data_image0
_chemical_formula_structural       HS2HSFeS2FeSFeS2HSH2FeSHCHFeCSCH2FeSNCH2SCHCHCH2C4H2C6H4C4HCH2CHC6H4C2FeHCH4C2H2NC6H8SH5C2HCH3C3H2CH3CH2CSH2C3HFeCH4SH2NH3CH3CHCH4CH4C2H2CSCHCHCHC2H7CH3CH4CHNH2CHC2HCHCH3CH5NH8CH2SHCH3CH2CH2FeH2FeH5CH4CHCHCH2CHC2HC2H2CH2SCSCH4C6H3SNHC3HCH2CH2CH2C3H11CH7CH3CHCH4CHCFeH8CSCH2CSCNCFeH2C2H6C2SHSCH2CH3CH3CH2CHSH2C4H2CH2CFeS2HSHSH2CFeSHFeSHFeS2FeSFeS3CSFeSHCH3NCH2C6H7C6H2CHC6H4C6H5NC4H2C2HC4H4CHCH2C3HCH3CH4SH2CHCH5NCH2C3H3C3H4SH2CH9CH5CH2C5H2C2HCH3CFeC2HC3HNHCHC2H2CHC2H4CH7CH3FeH4CH7SH4NH3SH2SH4C2H4C3H5CSHFeCSHFeCHCSHCH2CH2FeCSHSCHFeS2HSH2FeSCHFeS2FeS2FeCFeCS2C2HCHNHSC6H2CHC6H4C2HNC2H11CH2C2H5CH3CH3C2H2FeHCH3CHCH2C2HCH5CHCH3CH2CH2CH5C2NCH2SC2H6CHCHCS2CH4CH6C2H6C4HCSCHCH2SFeNH4FeHSH11CH2SFeSCHFeHCHCHCSHSHFeSHSFeS2FeSFeSCSCHC2HC2H4CH5CH3C3H2CH4C4HCH3C6H5CH6CHC2HFeNHCHCHSCHCH3CH3C2H3FeCH6CH3C4HCHSHCH6CHSC3HC3SC2HNHC3H7CH4CH2C2H2FeCHCHCH6CSCHCNCH5C2H2SH3FeHCH7CNHCH3CH5CH5FeSHFeS2FeHFeS5HCH4C6H5C3H3C3HCHCHCHCHNCHC2H2CH6FeCH2NC7HSC2H25SH2C4HC2NC4H2C6HCH7CH16C2HCH9SH2SHC3SFeH2CH6CHC2SFeHCHFeS2FeSHSCSCSFeSHSC2HFeSHCHCHSHC6H6CHC6H7CHC2NC6H12CH4CSH3CH4CSNHC4H9SCHCH3FeH5CHCH2C3HC2HCH2CNHSCH2C3HFeH5CHC2H5CHFeH8CHCHCH5SH2CNH4C2H7SHSH2C2H2C4HCHCH3SH2CH3SHSCFeSFeSH3SH2CHSHSC6H4C6H4C4FeCH2SFeC5H5C6H4NHSHCHNCH6CHC2HCH6C4SH2NH5CSHNC9HC2H14FeH7SC2H2C3H2CH4CHC2SH4C2HCH3CFeHCH8CH3CHFeH2CH4C3H2CHSH2NCFeHCH3C2FeSH2CFeCH8NCH7C2SH4SCFeS3FeCFeHS2C2H4CSHC2H4C2H2CHC2HCHCHC6H8CHCH2CH4CH3CHCHCNH2CHCHCH4SCH2C2HCH8CH4CHCHCH3C2H2C4HC2HFeCHCH5C2H2CNH3CHCH3CH2CH5C2SHCHNH3CH3CH2CH5CH4SHFeC2H3CH2CNHCH4CSHCH2CH5SCFeSHFeS2FeS2FeSFeS3H2FeSHFeHSHFeS2FeHSNFeS2HFeHSHC6H4C2HC6H4C3HC2H3C6H4C6H5NC12H32CHC2H6CH4CHCSHC3H2CH3C2HCHCHNC6H6CSHNCH4CHCHCH9CH6CH3CHFeHCSCH5C2HCH3C4H4CHC2H2C2H2CH3CH3CH7SH3NHCHCSHCH6C2H3CH2FeCH4SCHCH3C2HCH2C2HCH2CH2CH3SH4SH7CH2CH2CSC2HC3H2C2H5CHFeH2CH2CH2CHSC4HNC3HCHC3H2CH7C2HCH12CH3CH7C3NH2CH3FeH2CHCSCH3SHCH4CH2FeS2Fe2S2FeSHC2FeCFeSCSHSFeSHFeSFeS2HCSHC3HSH2CH3CHCHCHNHC2H2C6H4CHCH3CHCHCHCH3CH5C2H2C5H2CHCSH3C2H5SH10C2H3CHNCH3C4H3CH2C3H5CH3CH6CH3CHCH3CHCHC3NH2CH2SHCH2C2HCHC2HCNHSH3SCH4CHCH7C2HC
_chemical_formula_sum              "H1536 S192 Fe96 C864 N48"
_cell_length_a       32.8128
_cell_length_b       59.6595
_cell_length_c       57.4184
_cell_angle_alpha    90.2143
_cell_angle_beta     95.7591
_cell_angle_gamma    90.1566

_space_group_name_H-M_alt    "P 1"
_space_group_IT_number       1

loop_
  _space_group_symop_operation_xyz
  'x, y, z'

loop_
  _atom_site_type_symbol
  _atom_site_label
  _atom_site_symmetry_multiplicity
  _atom_site_fract_x
  _atom_site_fract_y
  _atom_site_fract_z
  _atom_site_occupancy
  H   H1        1.0  0.23966  0.12147  0.42580  1.0000
  S   S1        1.0  0.31696  0.01886  0.06034  1.0000
  S   S2        1.0  0.38016  0.28661  0.02000  1.0000
  H   H2        1.0  0.21330  0.11448  0.03048  1.0000
  S   S3        1.0  0.09963  0.00744  0.37433  1.0000
  Fe  Fe1       1.0  0.20712  0.03837  0.37939  1.0000
  S   S4        1.0  0.15200  0.05047  0.35683  1.0000
  S   S5        1.0  0.27083  0.05545  0.38573  1.0000
  Fe  Fe2       1.0  0.11598  0.04261  0.38746  1.0000
  S   S6        1.0  0.07867  0.07266  0.39891  1.0000
  Fe  Fe3       1.0  0.14003  0.01445  0.34559  1.0000
  S   S7        1.0  0.17196  0.03153  0.41061  1.0000
  S   S8        1.0  0.19772  0.00288  0.36649  1.0000
  H   H3        1.0  0.41569  0.31535  0.47031  1.0000
  S   S9        1.0  0.42503  0.16463  0.09997  1.0000
  H   H4        1.0  0.28098  0.14608  0.04384  1.0000
  H   H5        1.0  0.40324  0.12649  0.29641  1.0000
  Fe  Fe4       1.0  0.43780  0.13274  0.08090  1.0000
  S   S10       1.0  0.39587  0.11547  0.05233  1.0000
  H   H6        1.0  0.11436  0.15501  0.44616  1.0000
  C   C1        1.0  0.30250  0.00393  0.47343  1.0000
  H   H7        1.0  0.41174  0.20253  0.13712  1.0000
  Fe  Fe5       1.0  0.43228  0.15548  0.34409  1.0000
  C   C2        1.0  0.02067  0.09647  0.42035  1.0000
  S   S11       1.0  0.37048  0.13583  0.34143  1.0000
  C   C3        1.0  0.47942  0.05614  0.11923  1.0000
  H   H8        1.0  0.47192  0.07456  0.01045  1.0000
  H   H9        1.0  0.23594  0.25142  0.02005  1.0000
  Fe  Fe6       1.0  0.47152  0.20355  0.35002  1.0000
  S   S12       1.0  0.43381  0.18575  0.32024  1.0000
  N   N1        1.0  0.26876  0.98928  0.46181  1.0000
  C   C4        1.0  0.42163  0.10267  0.24342  1.0000
  H   H10       1.0  0.25585  0.13001  0.06511  1.0000
  H   H11       1.0  0.35247  0.08933  0.26296  1.0000
  S   S13       1.0  0.46909  0.11674  0.11308  1.0000
  C   C5        1.0  0.26990  0.27735  0.00273  1.0000
  H   H12       1.0  0.44381  0.20353  0.18490  1.0000
  C   C6        1.0  0.38432  0.09772  0.22524  1.0000
  H   H13       1.0  0.17871  0.05328  0.07143  1.0000
  C   C7        1.0  0.33819  0.06632  0.30171  1.0000
  H   H14       1.0  0.26970  0.07666  0.43204  1.0000
  H   H15       1.0  0.16561  0.09490  0.00260  1.0000
  C   C8        1.0  0.20083  0.07220  0.04298  1.0000
  C   C9        1.0  0.37773  0.01122  0.48566  1.0000
  C   C10       1.0  0.13677  0.15418  0.41160  1.0000
  C   C11       1.0  0.03535  0.07497  0.41532  1.0000
  H   H16       1.0  0.36825  0.09739  0.18759  1.0000
  H   H17       1.0  0.30919  0.07065  0.29102  1.0000
  C   C12       1.0  0.29793  0.07774  0.37284  1.0000
  C   C13       1.0  0.33722  0.08394  0.38316  1.0000
  C   C14       1.0  0.35987  0.10148  0.37388  1.0000
  C   C15       1.0  0.34361  0.11327  0.35405  1.0000
  C   C16       1.0  0.30432  0.10705  0.34370  1.0000
  C   C17       1.0  0.28166  0.08950  0.35297  1.0000
  H   H18       1.0  0.35037  0.07507  0.39849  1.0000
  H   H19       1.0  0.38992  0.10590  0.38214  1.0000
  H   H20       1.0  0.29126  0.11591  0.32834  1.0000
  H   H21       1.0  0.25171  0.08500  0.34465  1.0000
  C   C18       1.0  0.41094  0.26708  0.03779  1.0000
  C   C19       1.0  0.39923  0.24429  0.03760  1.0000
  C   C20       1.0  0.42335  0.22800  0.05044  1.0000
  C   C21       1.0  0.46005  0.23416  0.06348  1.0000
  H   H22       1.0  0.23602  0.01918  0.44949  1.0000
  C   C22       1.0  0.44697  0.27331  0.05145  1.0000
  H   H23       1.0  0.37162  0.23908  0.02710  1.0000
  H   H24       1.0  0.41397  0.21059  0.04982  1.0000
  C   C23       1.0  0.15832  0.13111  0.41525  1.0000
  H   H25       1.0  0.45597  0.29072  0.05254  1.0000
  C   C24       1.0  0.34065  0.04522  0.05769  1.0000
  C   C25       1.0  0.34661  0.05430  0.03588  1.0000
  C   C26       1.0  0.36499  0.07555  0.03455  1.0000
  C   C27       1.0  0.37735  0.08788  0.05495  1.0000
  C   C28       1.0  0.37232  0.07856  0.07676  1.0000
  C   C29       1.0  0.35414  0.05727  0.07810  1.0000
  H   H26       1.0  0.33685  0.04499  0.02009  1.0000
  H   H27       1.0  0.36915  0.08263  0.01763  1.0000
  H   H28       1.0  0.38156  0.08795  0.09258  1.0000
  H   H29       1.0  0.34985  0.05026  0.09504  1.0000
  C   C30       1.0  0.28459  0.00003  0.41978  1.0000
  C   C31       1.0  0.43696  0.23664  0.16784  1.0000
  Fe  Fe7       1.0  0.15817  0.99694  0.39579  1.0000
  H   H30       1.0  0.18133  0.04052  0.46740  1.0000
  C   C32       1.0  0.47153  0.25697  0.06388  1.0000
  H   H31       1.0  0.14966  0.01569  0.46349  1.0000
  H   H32       1.0  0.30026  0.00356  0.38417  1.0000
  H   H33       1.0  0.22445  0.15522  0.40493  1.0000
  H   H34       1.0  0.34899  0.04969  0.29618  1.0000
  C   C33       1.0  0.40413  0.12600  0.27710  1.0000
  C   C34       1.0  0.23972  0.11012  0.02061  1.0000
  H   H35       1.0  0.43645  0.21212  0.11328  1.0000
  H   H36       1.0  0.43805  0.23116  0.21663  1.0000
  N   N2        1.0  0.18950  0.12470  0.39856  1.0000
  C   C35       1.0  0.22244  0.11093  0.41202  1.0000
  C   C36       1.0  0.16972  0.11045  0.37877  1.0000
  C   C37       1.0  0.13768  0.12230  0.36146  1.0000
  C   C38       1.0  0.20759  0.08938  0.42369  1.0000
  C   C39       1.0  0.12105  0.10653  0.34171  1.0000
  C   C40       1.0  0.24150  0.07955  0.44082  1.0000
  H   H37       1.0  0.13400  0.11798  0.41523  1.0000
  H   H38       1.0  0.24538  0.10500  0.40042  1.0000
  H   H39       1.0  0.19334  0.10269  0.36868  1.0000
  H   H40       1.0  0.15351  0.09594  0.38582  1.0000
  H   H41       1.0  0.15105  0.13703  0.35327  1.0000
  H   H42       1.0  0.11109  0.12756  0.37060  1.0000
  H   H43       1.0  0.23122  0.13101  0.35760  1.0000
  H   H44       1.0  0.19911  0.07665  0.40996  1.0000
  S   S14       1.0  0.43708  0.15530  0.16711  1.0000
  H   H45       1.0  0.10399  0.09242  0.34884  1.0000
  H   H46       1.0  0.09950  0.11575  0.32904  1.0000
  H   H47       1.0  0.14631  0.09980  0.33224  1.0000
  H   H48       1.0  0.23794  0.31602  0.01667  1.0000
  H   H49       1.0  0.07900  0.99848  0.07669  1.0000
  C   C41       1.0  0.21081  0.00988  0.48124  1.0000
  C   C42       1.0  0.38174  0.08588  0.27369  1.0000
  H   H50       1.0  0.23126  0.06325  0.44746  1.0000
  C   C43       1.0  0.46533  0.03912  0.04295  1.0000
  H   H51       1.0  0.29395  0.08040  0.00317  1.0000
  H   H52       1.0  0.37889  0.17048  0.27698  1.0000
  H   H53       1.0  0.43683  0.27739  0.39135  1.0000
  C   C44       1.0  0.45096  0.16744  0.23774  1.0000
  C   C45       1.0  0.45989  0.15883  0.19658  1.0000
  C   C46       1.0  0.22759  0.06891  0.02241  1.0000
  H   H54       1.0  0.20612  0.99424  0.44700  1.0000
  H   H55       1.0  0.07547  0.00991  0.15376  1.0000
  C   C47       1.0  0.46442  0.01359  0.04739  1.0000
  H   H56       1.0  0.41415  0.00762  0.01998  1.0000
  H   H57       1.0  0.25835  0.06321  0.03007  1.0000
  H   H58       1.0  0.16994  0.07851  0.03676  1.0000
  C   C48       1.0  0.35396  0.21726  0.10413  1.0000
  H   H59       1.0  0.02639  0.02008  0.07296  1.0000
  H   H60       1.0  0.33761  0.12482  0.26598  1.0000
  C   C49       1.0  0.37076  0.08431  0.29931  1.0000
  S   S15       1.0  0.13389  0.00422  0.30668  1.0000
  H   H61       1.0  0.22649  0.27946  0.02979  1.0000
  H   H62       1.0  0.21547  0.08429  0.05600  1.0000
  C   C50       1.0  0.10233  0.15675  0.42747  1.0000
  C   C51       1.0  0.21859  0.31915  0.00008  1.0000
  C   C52       1.0  0.39322  0.31837  0.31251  1.0000
  H   H63       1.0  0.17699  0.03821  0.04414  1.0000
  Fe  Fe8       1.0  0.46262  0.14988  0.13147  1.0000
  C   C53       1.0  0.45321  0.28329  0.37711  1.0000
  H   H64       1.0  0.18726  0.15670  0.38043  1.0000
  H   H65       1.0  0.40187  0.16565  0.20971  1.0000
  H   H66       1.0  0.44444  0.08957  0.23988  1.0000
  H   H67       1.0  0.27247  0.17398  0.37841  1.0000
  S   S16       1.0  0.46556  0.17427  0.37445  1.0000
  H   H68       1.0  0.25590  0.00947  0.41511  1.0000
  H   H69       1.0  0.45209  0.06149  0.12775  1.0000
  N   N3        1.0  0.45393  0.23025  0.14527  1.0000
  H   H70       1.0  0.34324  0.20293  0.11424  1.0000
  H   H71       1.0  0.44725  0.31837  0.38630  1.0000
  H   H72       1.0  0.34738  0.15509  0.29551  1.0000
  C   C54       1.0  0.46811  0.26752  0.36169  1.0000
  H   H73       1.0  0.46212  0.04098  0.02362  1.0000
  H   H74       1.0  0.43113  0.17204  0.25086  1.0000
  H   H75       1.0  0.18056  0.09233  0.43342  1.0000
  C   C55       1.0  0.48032  0.31464  0.35605  1.0000
  H   H76       1.0  0.07818  0.14392  0.42309  1.0000
  C   C56       1.0  0.24342  0.14116  0.37296  1.0000
  H   H77       1.0  0.45013  0.30776  0.12482  1.0000
  H   H78       1.0  0.39768  0.07991  0.31163  1.0000
  H   H79       1.0  0.30658  0.11079  0.02749  1.0000
  H   H80       1.0  0.48535  0.20249  0.41998  1.0000
  C   C57       1.0  0.38413  0.23182  0.11960  1.0000
  H   H81       1.0  0.11280  0.00630  0.03890  1.0000
  H   H82       1.0  0.12342  0.15660  0.39332  1.0000
  H   H83       1.0  0.22551  0.04261  0.06169  1.0000
  H   H84       1.0  0.36865  0.21072  0.08886  1.0000
  C   C58       1.0  0.25919  0.16321  0.36373  1.0000
  C   C59       1.0  0.01528  0.05625  0.42340  1.0000
  H   H85       1.0  0.15914  0.16793  0.41608  1.0000
  H   H86       1.0  0.17286  0.13172  0.43366  1.0000
  C   C60       1.0  0.28252  0.26504  0.04506  1.0000
  S   S17       1.0  0.46020  0.23820  0.36662  1.0000
  C   C61       1.0  0.35352  0.15817  0.27713  1.0000
  H   H87       1.0  0.46761  0.24733  0.11358  1.0000
  C   C62       1.0  0.42223  0.21815  0.12895  1.0000
  H   H88       1.0  0.39772  0.21058  0.21542  1.0000
  C   C63       1.0  0.45911  0.30662  0.37432  1.0000
  H   H89       1.0  0.27033  0.13253  0.38207  1.0000
  C   C64       1.0  0.20997  0.14532  0.38977  1.0000
  C   C65       1.0  0.36407  0.13627  0.26525  1.0000
  H   H90       1.0  0.39264  0.20966  0.17256  1.0000
  H   H91       1.0  0.31083  0.12981  0.06570  1.0000
  H   H92       1.0  0.39108  0.06886  0.26818  1.0000
  H   H93       1.0  0.44359  0.04548  0.08789  1.0000
  H   H94       1.0  0.32558  0.16555  0.26768  1.0000
  H   H95       1.0  0.08821  0.17359  0.42498  1.0000
  H   H96       1.0  0.28365  0.15966  0.35216  1.0000
  C   C66       1.0  0.25023  0.26802  0.02418  1.0000
  H   H97       1.0  0.28794  0.29262  0.00832  1.0000
  H   H98       1.0  0.35730  0.10799  0.22819  1.0000
  H   H99       1.0  0.24304  0.12457  0.00876  1.0000
  C   C67       1.0  0.19529  0.05018  0.05580  1.0000
  H   H100      1.0  0.24876  0.09108  0.45591  1.0000
  H   H101      1.0  0.37541  0.07978  0.22624  1.0000
  H   H102      1.0  0.36786  0.23850  0.13413  1.0000
  H   H103      1.0  0.39894  0.01002  0.04928  1.0000
  C   C68       1.0  0.41020  0.22486  0.20598  1.0000
  H   H104      1.0  0.40853  0.00339  0.48814  1.0000
  N   N4        1.0  0.41444  0.10275  0.26911  1.0000
  H   H105      1.0  0.46044  0.24605  0.17935  1.0000
  H   H106      1.0  0.33181  0.06514  0.32031  1.0000
  C   C69       1.0  0.42278  0.00352  0.03868  1.0000
  H   H107      1.0  0.30889  0.01197  0.42659  1.0000
  C   C70       1.0  0.43452  0.16400  0.21427  1.0000
  C   C71       1.0  0.99724  0.01191  0.07633  1.0000
  H   H108      1.0  0.32699  0.22743  0.09748  1.0000
  C   C72       1.0  0.27955  0.10998  0.03764  1.0000
  H   H109      1.0  0.39314  0.24587  0.10856  1.0000
  C   C73       1.0  0.28170  0.13027  0.05402  1.0000
  H   H110      1.0  0.43558  0.11889  0.23867  1.0000
  H   H111      1.0  0.35810  0.10045  0.30488  1.0000
  H   H112      1.0  0.23412  0.17236  0.35339  1.0000
  C   C74       1.0  0.39471  0.10208  0.20029  1.0000
  H   H113      1.0  0.41586  0.27251  0.13465  1.0000
  H   H114      1.0  0.36636  0.30691  0.31050  1.0000
  H   H115      1.0  0.42167  0.09207  0.19631  1.0000
  H   H116      1.0  0.02597  0.03961  0.41967  1.0000
  H   H117      1.0  0.36791  0.14030  0.24674  1.0000
  N   N5        1.0  0.23101  0.08891  0.00661  1.0000
  H   H118      1.0  0.42886  0.13799  0.27388  1.0000
  H   H119      1.0  0.20091  0.99487  0.49058  1.0000
  H   H120      1.0  0.28225  0.09472  0.04862  1.0000
  H   H121      1.0  0.40140  0.12012  0.19792  1.0000
  H   H122      1.0  0.21481  0.05424  0.01211  1.0000
  H   H123      1.0  0.02488  0.99779  0.14889  1.0000
  H   H124      1.0  0.29754  0.28133  0.05006  1.0000
  H   H125      1.0  0.43696  0.04668  0.04864  1.0000
  C   C75       1.0  0.42082  0.21697  0.18197  1.0000
  H   H126      1.0  0.47667  0.28137  0.00104  1.0000
  H   H127      1.0  0.15903  0.02854  0.49194  1.0000
  S   S18       1.0  0.21640  0.99752  0.02822  1.0000
  H   H128      1.0  0.48008  0.31251  0.02457  1.0000
  C   C76       1.0  0.45372  0.09556  0.28310  1.0000
  H   H129      1.0  0.45953  0.07744  0.27997  1.0000
  H   H130      1.0  0.48759  0.03883  0.12499  1.0000
  H   H131      1.0  0.45131  0.09741  0.30220  1.0000
  C   C77       1.0  0.29743  0.98997  0.39711  1.0000
  H   H132      1.0  0.38675  0.23830  0.20413  1.0000
  H   H133      1.0  0.37883  0.02519  0.47298  1.0000
  C   C78       1.0  0.06277  0.99364  0.11994  1.0000
  H   H134      1.0  0.26786  0.25856  0.06030  1.0000
  H   H135      1.0  0.41095  0.24841  0.16466  1.0000
  Fe  Fe9       1.0  0.48477  0.17705  0.08899  1.0000
  H   H136      1.0  0.30630  0.25293  0.04074  1.0000
  H   H137      1.0  0.18436  0.28790  0.99708  1.0000
  Fe  Fe10      1.0  0.28477  0.99904  0.02996  1.0000
  H   H138      1.0  0.99177  0.01444  0.09493  1.0000
  H   H139      1.0  0.03569  0.11106  0.41408  1.0000
  H   H140      1.0  0.46010  0.07429  0.08811  1.0000
  H   H141      1.0  0.42107  0.30848  0.30995  1.0000
  H   H142      1.0  0.45216  0.28701  0.10215  1.0000
  C   C79       1.0  0.34596  0.99370  0.47645  1.0000
  H   H143      1.0  0.48753  0.00516  0.03756  1.0000
  H   H144      1.0  0.47794  0.19684  0.15347  1.0000
  H   H145      1.0  0.46723  0.11421  0.02356  1.0000
  H   H146      1.0  0.30404  0.02011  0.46395  1.0000
  C   C80       1.0  0.46977  0.05699  0.09265  1.0000
  H   H147      1.0  0.47038  0.00966  0.06627  1.0000
  C   C81       1.0  0.46329  0.29129  0.12054  1.0000
  H   H148      1.0  0.09576  0.99040  0.11843  1.0000
  C   C82       1.0  0.44973  0.27339  0.13714  1.0000
  H   H149      1.0  0.05528  0.01014  0.11200  1.0000
  H   H150      1.0  0.46764  0.08250  0.05242  1.0000
  C   C83       1.0  0.46979  0.25041  0.13281  1.0000
  H   H151      1.0  0.45902  0.27911  0.15535  1.0000
  C   C84       1.0  0.05757  0.99541  0.14602  1.0000
  C   C85       1.0  0.23020  0.00322  0.45857  1.0000
  H   H152      1.0  0.29336  0.26489  0.99862  1.0000
  C   C86       1.0  0.17296  0.02454  0.47558  1.0000
  C   C87       1.0  0.11661  0.98783  0.03992  1.0000
  H   H153      1.0  0.23267  0.01955  0.49338  1.0000
  H   H154      1.0  0.29561  0.00874  0.49134  1.0000
  C   C88       1.0  0.05005  0.25318  0.77023  1.0000
  H   H155      1.0  0.32288  0.05623  0.97407  1.0000
  H   H156      1.0  0.21640  0.26711  0.93379  1.0000
  S   S19       1.0  0.04824  0.29769  0.84386  1.0000
  C   C89       1.0  0.10066  0.27116  0.80111  1.0000
  S   S20       1.0  0.06534  0.04143  0.87678  1.0000
  C   C90       1.0  0.20611  0.29710  0.98686  1.0000
  H   H157      1.0  0.99921  0.99579  0.68753  1.0000
  H   H158      1.0  0.01829  0.21951  0.79626  1.0000
  H   H159      1.0  0.03659  0.23151  0.84965  1.0000
  H   H160      1.0  0.12614  0.26853  0.79005  1.0000
  C   C91       1.0  0.14113  0.03150  0.94816  1.0000
  C   C92       1.0  0.11433  0.04983  0.94467  1.0000
  C   C93       1.0  0.09121  0.05326  0.92291  1.0000
  C   C94       1.0  0.09429  0.03820  0.90444  1.0000
  C   C95       1.0  0.12099  0.01983  0.90798  1.0000
  C   C96       1.0  0.14433  0.01648  0.92969  1.0000
  H   H161      1.0  0.09192  0.99108  0.96121  1.0000
  H   H162      1.0  0.07123  0.06762  0.92033  1.0000
  H   H163      1.0  0.12369  0.00811  0.89379  1.0000
  S   S21       1.0  0.16918  0.02808  0.97603  1.0000
  N   N6        1.0  0.01546  0.23697  0.76289  1.0000
  H   H164      1.0  0.18196  0.07551  0.98241  1.0000
  C   C97       1.0  0.02374  0.24233  0.69551  1.0000
  C   C98       1.0  0.18920  0.11058  0.97315  1.0000
  C   C99       1.0  0.07706  0.99031  0.97775  1.0000
  H   H165      1.0  0.33112  0.30796  0.94027  1.0000
  C   C100      1.0  0.01365  0.21850  0.84993  1.0000
  H   H166      1.0  0.29136  0.04822  0.94785  1.0000
  H   H167      1.0  0.11127  0.06141  0.95891  1.0000
  C   C101      1.0  0.26442  0.29365  0.96354  1.0000
  H   H168      1.0  0.07318  0.19184  0.80978  1.0000
  H   H169      1.0  0.05710  0.19135  0.84929  1.0000
  C   C102      1.0  0.25874  0.06606  0.97316  1.0000
  H   H170      1.0  0.16474  0.00228  0.93211  1.0000
  H   H171      1.0  0.00279  0.99740  0.87923  1.0000
  C   C103      1.0  0.02518  0.19563  0.84962  1.0000
  C   C104      1.0  0.99012  0.31042  0.74684  1.0000
  C   C105      1.0  0.01169  0.24965  0.71942  1.0000
  H   H172      1.0  0.01790  0.25625  0.68281  1.0000
  H   H173      1.0  0.04828  0.22294  0.73534  1.0000
  H   H174      1.0  0.04775  0.02437  0.95339  1.0000
  H   H175      1.0  0.42831  0.99916  0.95493  1.0000
  H   H176      1.0  0.08284  0.23675  0.80098  1.0000
  H   H177      1.0  0.27408  0.10052  0.98285  1.0000
  H   H178      1.0  0.99766  0.10446  0.96874  1.0000
  H   H179      1.0  0.12256  0.10857  0.96576  1.0000
  H   H180      1.0  0.32413  0.27672  0.96792  1.0000
  H   H181      1.0  0.41863  0.23789  0.96375  1.0000
  H   H182      1.0  0.23396  0.07057  0.95940  1.0000
  C   C106      1.0  0.19736  0.26136  0.94754  1.0000
  H   H183      1.0  0.24333  0.29981  0.94854  1.0000
  H   H184      1.0  0.15932  0.23208  0.95276  1.0000
  H   H185      1.0  0.99145  0.02066  0.61161  1.0000
  H   H186      1.0  0.27956  0.30901  0.97132  1.0000
  H   H187      1.0  0.09232  0.00264  0.99032  1.0000
  H   H188      1.0  0.01733  0.99241  0.98960  1.0000
  H   H189      1.0  0.25022  0.05017  0.98129  1.0000
  C   C107      1.0  0.06790  0.25300  0.79632  1.0000
  H   H190      1.0  0.18906  0.12717  0.98197  1.0000
  H   H191      1.0  0.20510  0.22614  0.93859  1.0000
  H   H192      1.0  0.17113  0.27301  0.94792  1.0000
  C   C108      1.0  0.01735  0.21576  0.77726  1.0000
  H   H193      1.0  0.18758  0.30228  0.97045  1.0000
  C   C109      1.0  0.29745  0.06174  0.96112  1.0000
  H   H194      1.0  0.05686  0.23818  0.69661  1.0000
  H   H195      1.0  0.46749  0.29705  0.49763  1.0000
  H   H196      1.0  0.08424  0.17053  0.78914  1.0000
  H   H197      1.0  0.42373  0.30465  0.51257  1.0000
  C   C110      1.0  0.46912  0.28744  0.98281  1.0000
  H   H198      1.0  0.02645  0.02019  0.69961  1.0000
  C   C111      1.0  0.31709  0.29184  0.93398  1.0000
  Fe  Fe11      1.0  0.21606  0.00138  0.98927  1.0000
  H   H199      1.0  0.99477  0.21712  0.73218  1.0000
  H   H200      1.0  0.03246  0.17402  0.79652  1.0000
  H   H201      1.0  0.04046  0.27072  0.76583  1.0000
  H   H202      1.0  0.04632  0.19015  0.75703  1.0000
  H   H203      1.0  0.16197  0.23971  0.92263  1.0000
  H   H204      1.0  0.07665  0.25012  0.76001  1.0000
  H   H205      1.0  0.00537  0.22758  0.68884  1.0000
  H   H206      1.0  0.99906  0.02892  0.90563  1.0000
  C   C112      1.0  0.01785  0.23040  0.73758  1.0000
  S   S22       1.0  0.01264  0.14963  0.84872  1.0000
  C   C113      1.0  0.02441  0.01999  0.96538  1.0000
  H   H207      1.0  0.28757  0.26321  0.94691  1.0000
  H   H208      1.0  0.34123  0.28135  0.92721  1.0000
  C   C114      1.0  0.46101  0.26598  0.96779  1.0000
  S   S23       1.0  0.01531  0.30117  0.60834  1.0000
  C   C115      1.0  0.22273  0.26017  0.97185  1.0000
  N   N7        1.0  0.24081  0.28207  0.98127  1.0000
  C   C116      1.0  0.17998  0.23836  0.94002  1.0000
  Fe  Fe12      1.0  0.01314  0.06607  0.86707  1.0000
  H   H209      1.0  0.21558  0.11003  0.96254  1.0000
  H   H210      1.0  0.08226  0.20937  0.77207  1.0000
  C   C117      1.0  0.99711  0.01078  0.69889  1.0000
  C   C118      1.0  0.99802  0.01199  0.91341  1.0000
  H   H211      1.0  0.29301  0.29526  0.91940  1.0000
  H   H212      1.0  0.04399  0.25573  0.80831  1.0000
  H   H213      1.0  0.02956  0.00681  0.91988  1.0000
  H   H214      1.0  0.03286  0.03025  0.98131  1.0000
  H   H215      1.0  0.43054  0.24719  0.99349  1.0000
  H   H216      1.0  0.00896  0.05239  0.93470  1.0000
  C   C119      1.0  0.98997  0.06838  0.96537  1.0000
  C   C120      1.0  0.29890  0.27965  0.95390  1.0000
  S   S24       1.0  0.00653  0.08508  0.83287  1.0000
  H   H217      1.0  0.24702  0.24730  0.97094  1.0000
  S   S25       1.0  0.99645  0.09583  0.88808  1.0000
  C   C121      1.0  0.03136  0.99535  0.97307  1.0000
  H   H218      1.0  0.08732  0.28803  0.79748  1.0000
  H   H219      1.0  0.15113  0.09373  0.94510  1.0000
  C   C122      1.0  0.05351  0.19985  0.77350  1.0000
  H   H220      1.0  0.30684  0.07710  0.95216  1.0000
  H   H221      1.0  0.11336  0.27058  0.81977  1.0000
  H   H222      1.0  0.20199  0.25309  0.98416  1.0000
  C   C123      1.0  0.99603  0.17824  0.85016  1.0000
  H   H223      1.0  0.03035  0.26459  0.72512  1.0000
  H   H224      1.0  0.39636  0.26345  0.97344  1.0000
  H   H225      1.0  0.45435  0.26986  0.94895  1.0000
  C   C124      1.0  0.06114  0.18305  0.79346  1.0000
  H   H226      1.0  0.45685  0.31781  0.95024  1.0000
  H   H227      1.0  0.43959  0.29659  0.98298  1.0000
  C   C125      1.0  0.44989  0.31139  0.50385  1.0000
  H   H228      1.0  0.48778  0.25463  0.97043  1.0000
  S   S26       1.0  0.28483  0.00539  0.99152  1.0000
  H   H229      1.0  0.99219  0.00491  0.71674  1.0000
  H   H230      1.0  0.02056  0.09242  0.94434  1.0000
  C   C126      1.0  0.99368  0.09162  0.95464  1.0000
  C   C127      1.0  0.42433  0.25291  0.97511  1.0000
  C   C128      1.0  0.99986  0.31262  0.70499  1.0000
  C   C129      1.0  0.26578  0.08490  0.99182  1.0000
  H   H231      1.0  0.01832  0.06550  0.97713  1.0000
  H   H232      1.0  0.14829  0.12379  0.94440  1.0000
  C   C130      1.0  0.15033  0.10901  0.95616  1.0000
  H   H233      1.0  0.37040  0.01805  0.50278  1.0000
  H   H234      1.0  0.45135  0.99411  0.98428  1.0000
  C   C131      1.0  0.19086  0.09152  0.99158  1.0000
  Fe  Fe13      1.0  0.35238  0.37279  0.02452  1.0000
  S   S27       1.0  0.41266  0.35458  0.02677  1.0000
  S   S28       1.0  0.33053  0.39127  0.05621  1.0000
  H   H235      1.0  0.22155  0.52214  0.42075  1.0000
  S   S29       1.0  0.47171  0.39246  0.40252  1.0000
  H   H236      1.0  0.36602  0.37165  0.39084  1.0000
  S   S30       1.0  0.42613  0.40172  0.35008  1.0000
  H   H237      1.0  0.21592  0.65354  0.11057  1.0000
  H   H238      1.0  0.35617  0.48954  0.45412  1.0000
  C   C132      1.0  0.18091  0.33200  0.00632  1.0000
  Fe  Fe14      1.0  0.42500  0.41676  0.38622  1.0000
  S   S31       1.0  0.36379  0.42380  0.40033  1.0000
  H   H239      1.0  0.44764  0.52899  0.06761  1.0000
  Fe  Fe15      1.0  0.41645  0.54589  0.16183  1.0000
  S   S32       1.0  0.36584  0.54279  0.13283  1.0000
  H   H240      1.0  0.36751  0.34067  0.44806  1.0000
  Fe  Fe16      1.0  0.37488  0.51226  0.19306  1.0000
  S   S33       1.0  0.32178  0.50701  0.16504  1.0000
  S   S34       1.0  0.37228  0.49855  0.23053  1.0000
  Fe  Fe17      1.0  0.36980  0.50549  0.13928  1.0000
  S   S35       1.0  0.38154  0.48538  0.10621  1.0000
  Fe  Fe18      1.0  0.32198  0.54484  0.16087  1.0000
  S   S36       1.0  0.26145  0.56537  0.15526  1.0000
  S   S37       1.0  0.42260  0.50865  0.16762  1.0000
  S   S38       1.0  0.37290  0.54999  0.18968  1.0000
  C   C133      1.0  0.22264  0.64855  0.12917  1.0000
  S   S39       1.0  0.05878  0.61622  0.41954  1.0000
  Fe  Fe19      1.0  0.09985  0.62854  0.45065  1.0000
  S   S40       1.0  0.15600  0.61135  0.46915  1.0000
  H   H241      1.0  0.45176  0.34331  0.29371  1.0000
  C   C134      1.0  0.03697  0.55665  0.46356  1.0000
  H   H242      1.0  0.42968  0.35879  0.31578  1.0000
  H   H243      1.0  0.19982  0.45976  0.46480  1.0000
  H   H244      1.0  0.48517  0.41008  0.45545  1.0000
  N   N8        1.0  0.39685  0.36413  0.47318  1.0000
  C   C135      1.0  0.19857  0.45994  0.44539  1.0000
  H   H245      1.0  0.20836  0.62185  0.27791  1.0000
  H   H246      1.0  0.44015  0.57729  0.11310  1.0000
  C   C136      1.0  0.23098  0.58697  0.16706  1.0000
  C   C137      1.0  0.24667  0.60190  0.18468  1.0000
  C   C138      1.0  0.22222  0.61969  0.19198  1.0000
  C   C139      1.0  0.18128  0.62266  0.18233  1.0000
  C   C140      1.0  0.16517  0.60727  0.16532  1.0000
  C   C141      1.0  0.18995  0.58984  0.15758  1.0000
  H   H247      1.0  0.27789  0.60001  0.19239  1.0000
  H   H248      1.0  0.23525  0.63137  0.20515  1.0000
  H   H249      1.0  0.13394  0.60917  0.15758  1.0000
  H   H250      1.0  0.17719  0.57850  0.14399  1.0000
  H   H251      1.0  0.13388  0.58496  0.30279  1.0000
  H   H252      1.0  0.10599  0.61778  0.33955  1.0000
  H   H253      1.0  0.27669  0.54728  0.40817  1.0000
  C   C142      1.0  0.36084  0.43149  0.42994  1.0000
  C   C143      1.0  0.32240  0.43212  0.43875  1.0000
  C   C144      1.0  0.31912  0.43722  0.46247  1.0000
  C   C145      1.0  0.35429  0.44171  0.47760  1.0000
  C   C146      1.0  0.39267  0.44140  0.46872  1.0000
  C   C147      1.0  0.39593  0.43652  0.44494  1.0000
  H   H254      1.0  0.29509  0.42828  0.42724  1.0000
  H   H255      1.0  0.28945  0.43726  0.46917  1.0000
  C   C148      1.0  0.48409  0.49479  0.00126  1.0000
  H   H256      1.0  0.42567  0.43625  0.43832  1.0000
  C   C149      1.0  0.45072  0.45803  0.28745  1.0000
  C   C150      1.0  0.41464  0.46875  0.29232  1.0000
  C   C151      1.0  0.39114  0.48088  0.27465  1.0000
  C   C152      1.0  0.40319  0.48255  0.25184  1.0000
  C   C153      1.0  0.43910  0.47166  0.24690  1.0000
  C   C154      1.0  0.42046  0.37525  0.21342  1.0000
  H   H257      1.0  0.40498  0.46784  0.30976  1.0000
  H   H258      1.0  0.36336  0.48911  0.27872  1.0000
  H   H259      1.0  0.44860  0.47246  0.22942  1.0000
  H   H260      1.0  0.32457  0.48582  0.47752  1.0000
  C   C155      1.0  0.34577  0.41736  0.07004  1.0000
  C   C156      1.0  0.37412  0.43179  0.06116  1.0000
  C   C157      1.0  0.38462  0.45240  0.07252  1.0000
  C   C158      1.0  0.36723  0.45890  0.09299  1.0000
  C   C159      1.0  0.33911  0.44440  0.10197  1.0000
  C   C160      1.0  0.32843  0.42384  0.09053  1.0000
  H   H261      1.0  0.38771  0.42716  0.04544  1.0000
  H   H262      1.0  0.40634  0.46343  0.06535  1.0000
  H   H263      1.0  0.32532  0.44908  0.11761  1.0000
  H   H264      1.0  0.30642  0.41290  0.09758  1.0000
  H   H265      1.0  0.32053  0.56939  0.05879  1.0000
  N   N9        1.0  0.42125  0.37411  0.28168  1.0000
  C   C161      1.0  0.22974  0.56708  0.42163  1.0000
  C   C162      1.0  0.01086  0.54747  0.44208  1.0000
  C   C163      1.0  0.16119  0.58223  0.47447  1.0000
  C   C164      1.0  0.41852  0.36651  0.25649  1.0000
  H   H266      1.0  0.12975  0.53111  0.45277  1.0000
  H   H267      1.0  0.36301  0.56661  0.08105  1.0000
  C   C165      1.0  0.42469  0.35356  0.29705  1.0000
  C   C166      1.0  0.28290  0.62401  0.12113  1.0000
  H   H268      1.0  0.41697  0.39721  0.46446  1.0000
  C   C167      1.0  0.34230  0.61879  0.14993  1.0000
  C   C168      1.0  0.46265  0.45954  0.26459  1.0000
  C   C169      1.0  0.31021  0.51648  0.45719  1.0000
  C   C170      1.0  0.39085  0.35434  0.44874  1.0000
  H   H269      1.0  0.39901  0.38513  0.42863  1.0000
  H   H270      1.0  0.38965  0.35698  0.25185  1.0000
  H   H271      1.0  0.42186  0.59850  0.18944  1.0000
  H   H272      1.0  0.16627  0.62578  0.30692  1.0000
  C   C171      1.0  0.32984  0.57058  0.07789  1.0000
  H   H273      1.0  0.28802  0.59722  0.08259  1.0000
  C   C172      1.0  0.38162  0.56553  0.25059  1.0000
  H   H274      1.0  0.46930  0.59759  0.08076  1.0000
  H   H275      1.0  0.39383  0.41803  0.26748  1.0000
  C   C173      1.0  0.17238  0.53592  0.48345  1.0000
  C   C174      1.0  0.45884  0.38837  0.28824  1.0000
  C   C175      1.0  0.12146  0.60237  0.33406  1.0000
  H   H276      1.0  0.34621  0.37758  0.43042  1.0000
  C   C176      1.0  0.01388  0.63795  0.30912  1.0000
  H   H277      1.0  0.08533  0.59905  0.30099  1.0000
  H   H278      1.0  0.45996  0.39349  0.30694  1.0000
  H   H279      1.0  0.40657  0.35301  0.40160  1.0000
  C   C177      1.0  0.33431  0.59641  0.11328  1.0000
  H   H280      1.0  0.31775  0.61146  0.15968  1.0000
  H   H281      1.0  0.34794  0.38854  0.46690  1.0000
  H   H282      1.0  0.31849  0.51717  0.41226  1.0000
  H   H283      1.0  0.20482  0.63322  0.13238  1.0000
  S   S41       1.0  0.03193  0.63741  0.19618  1.0000
  H   H284      1.0  0.39410  0.49535  0.49301  1.0000
  H   H285      1.0  0.11544  0.63537  0.30023  1.0000
  C   C178      1.0  0.38270  0.38650  0.28659  1.0000
  H   H286      1.0  0.28778  0.55681  0.43805  1.0000
  C   C179      1.0  0.24710  0.52715  0.43384  1.0000
  H   H287      1.0  0.40446  0.61776  0.10460  1.0000
  H   H288      1.0  0.23247  0.53071  0.45019  1.0000
  H   H289      1.0  0.32250  0.48198  0.37703  1.0000
  H   H290      1.0  0.39348  0.36425  0.20870  1.0000
  H   H291      1.0  0.46386  0.51151  0.09229  1.0000
  N   N10       1.0  0.14234  0.62089  0.27057  1.0000
  C   C180      1.0  0.10885  0.60708  0.25741  1.0000
  H   H292      1.0  0.43996  0.57500  0.26787  1.0000
  H   H293      1.0  0.27367  0.64153  0.15419  1.0000
  C   C181      1.0  0.18450  0.61258  0.26657  1.0000
  C   C182      1.0  0.19313  0.58743  0.27129  1.0000
  C   C183      1.0  0.11104  0.60476  0.23065  1.0000
  H   H294      1.0  0.33133  0.36137  0.47469  1.0000
  H   H295      1.0  0.14431  0.64528  0.24266  1.0000
  H   H296      1.0  0.48162  0.48304  0.01603  1.0000
  C   C184      1.0  0.23417  0.58062  0.26293  1.0000
  C   C185      1.0  0.07891  0.58818  0.21980  1.0000
  C   C186      1.0  0.44891  0.54659  0.24406  1.0000
  H   H297      1.0  0.07834  0.61429  0.26011  1.0000
  H   H298      1.0  0.10804  0.58981  0.26433  1.0000
  H   H299      1.0  0.19067  0.34825  0.01465  1.0000
  H   H300      1.0  0.43054  0.53165  0.23790  1.0000
  S   S42       1.0  0.04867  0.63892  0.47173  1.0000
  H   H301      1.0  0.35852  0.34590  0.29727  1.0000
  H   H302      1.0  0.19130  0.61638  0.24835  1.0000
  C   C187      1.0  0.43456  0.32611  0.48308  1.0000
  H   H303      1.0  0.16941  0.57647  0.26206  1.0000
  H   H304      1.0  0.19498  0.58414  0.29036  1.0000
  H   H305      1.0  0.10505  0.62111  0.22201  1.0000
  H   H306      1.0  0.14136  0.59868  0.22646  1.0000
  H   H307      1.0  0.46078  0.51747  0.27539  1.0000
  H   H308      1.0  0.24208  0.58289  0.41492  1.0000
  H   H309      1.0  0.20440  0.56103  0.40885  1.0000
  H   H310      1.0  0.39813  0.64841  0.07548  1.0000
  H   H311      1.0  0.44336  0.35437  0.25385  1.0000
  C   C188      1.0  0.42429  0.55927  0.26176  1.0000
  H   H312      1.0  0.29547  0.52397  0.47210  1.0000
  H   H313      1.0  0.24016  0.56264  0.26690  1.0000
  H   H314      1.0  0.23357  0.58292  0.24368  1.0000
  H   H315      1.0  0.25959  0.59074  0.27190  1.0000
  H   H316      1.0  0.07978  0.58778  0.20050  1.0000
  C   C189      1.0  0.47162  0.37689  0.46881  1.0000
  H   H317      1.0  0.04773  0.59333  0.22362  1.0000
  H   H318      1.0  0.38383  0.57701  0.23557  1.0000
  C   C190      1.0  0.14605  0.54329  0.46422  1.0000
  C   C191      1.0  0.41901  0.38520  0.23789  1.0000
  C   C192      1.0  0.38253  0.41239  0.28401  1.0000
  C   C193      1.0  0.32129  0.59417  0.08664  1.0000
  C   C194      1.0  0.39650  0.63470  0.11058  1.0000
  H   H319      1.0  0.32922  0.52999  0.45046  1.0000
  H   H320      1.0  0.44899  0.36544  0.21250  1.0000
  C   C195      1.0  0.02752  0.65143  0.29132  1.0000
  C   C196      1.0  0.13836  0.64460  0.26139  1.0000
  H   H321      1.0  0.40502  0.62714  0.18632  1.0000
  C   C197      1.0  0.11839  0.60057  0.30737  1.0000
  H   H322      1.0  0.15401  0.60276  0.34153  1.0000
  H   H323      1.0  0.10630  0.65063  0.26191  1.0000
  H   H324      1.0  0.32759  0.41749  0.30184  1.0000
  C   C198      1.0  0.14014  0.56634  0.45985  1.0000
  Fe  Fe20      1.0  0.47436  0.42776  0.34532  1.0000
  C   C199      1.0  0.38080  0.60473  0.15814  1.0000
  C   C200      1.0  0.37582  0.35938  0.40480  1.0000
  H   H325      1.0  0.40249  0.41991  0.29876  1.0000
  C   C201      1.0  0.33952  0.42190  0.28500  1.0000
  C   C202      1.0  0.38751  0.33723  0.29454  1.0000
  C   C203      1.0  0.26382  0.54963  0.42516  1.0000
  H   H326      1.0  0.26536  0.60916  0.12654  1.0000
  N   N11       1.0  0.27784  0.50848  0.43832  1.0000
  H   H327      1.0  0.36668  0.59099  0.11600  1.0000
  C   C204      1.0  0.25715  0.48806  0.44742  1.0000
  H   H328      1.0  0.35359  0.34525  0.40364  1.0000
  C   C205      1.0  0.29920  0.50282  0.41695  1.0000
  C   C206      1.0  0.27191  0.49531  0.39478  1.0000
  H   H329      1.0  0.37586  0.38369  0.30501  1.0000
  H   H330      1.0  0.24610  0.50696  0.39033  1.0000
  C   C207      1.0  0.21261  0.48271  0.43698  1.0000
  H   H331      1.0  0.41997  0.54875  0.27724  1.0000
  C   C208      1.0  0.29670  0.49398  0.37365  1.0000
  C   C209      1.0  0.37440  0.50886  0.48477  1.0000
  H   H332      1.0  0.06448  0.54600  0.46639  1.0000
  H   H333      1.0  0.39058  0.39526  0.23745  1.0000
  H   H334      1.0  0.27608  0.47296  0.44520  1.0000
  H   H335      1.0  0.25501  0.48976  0.46664  1.0000
  C   C210      1.0  0.34984  0.63751  0.11183  1.0000
  H   H336      1.0  0.01628  0.63131  0.34636  1.0000
  H   H337      1.0  0.36422  0.55024  0.24444  1.0000
  H   H338      1.0  0.32105  0.48879  0.42074  1.0000
  H   H339      1.0  0.30903  0.51073  0.36963  1.0000
  H   H340      1.0  0.26005  0.47816  0.39738  1.0000
  H   H341      1.0  0.36439  0.57416  0.26367  1.0000
  H   H342      1.0  0.34621  0.65389  0.12064  1.0000
  C   C211      1.0  0.13676  0.62161  0.29647  1.0000
  H   H343      1.0  0.37041  0.60566  0.19507  1.0000
  H   H344      1.0  0.19121  0.49551  0.44267  1.0000
  H   H345      1.0  0.20894  0.48255  0.41768  1.0000
  Fe  Fe21      1.0  0.00735  0.62827  0.43997  1.0000
  H   H346      1.0  0.16643  0.45672  0.43813  1.0000
  H   H347      1.0  0.39612  0.32529  0.33061  1.0000
  H   H348      1.0  0.27673  0.48797  0.35809  1.0000
  H   H349      1.0  0.08529  0.57105  0.22670  1.0000
  C   C212      1.0  0.39527  0.60937  0.18385  1.0000
  H   H350      1.0  0.33496  0.63987  0.09372  1.0000
  H   H351      1.0  0.27201  0.62695  0.10242  1.0000
  H   H352      1.0  0.39379  0.52035  0.47540  1.0000
  H   H353      1.0  0.42006  0.44485  0.48030  1.0000
  H   H354      1.0  0.31692  0.58359  0.12236  1.0000
  H   H355      1.0  0.31208  0.55793  0.08689  1.0000
  H   H356      1.0  0.11980  0.57184  0.44499  1.0000
  S   S43       1.0  0.31696  0.34179  0.01140  1.0000
  H   H357      1.0  0.34050  0.44045  0.28363  1.0000
  H   H358      1.0  0.45757  0.40433  0.27839  1.0000
  H   H359      1.0  0.47084  0.36915  0.45121  1.0000
  H   H360      1.0  0.37308  0.58668  0.15650  1.0000
  N   N12       1.0  0.32840  0.61917  0.12400  1.0000
  H   H361      1.0  0.21741  0.57087  0.43853  1.0000
  H   H362      1.0  0.48688  0.36540  0.48207  1.0000
  H   H363      1.0  0.44918  0.55764  0.22849  1.0000
  S   S44       1.0  0.47408  0.56777  0.16143  1.0000
  H   H364      1.0  0.31835  0.41536  0.27021  1.0000
  H   H365      1.0  0.47733  0.53747  0.20196  1.0000
  S   S45       1.0  0.17661  0.50681  0.48894  1.0000
  H   H366      1.0  0.21821  0.44632  0.43951  1.0000
  H   H367      1.0  0.40683  0.60776  0.14778  1.0000
  H   H368      1.0  0.33857  0.60612  0.07656  1.0000
  H   H369      1.0  0.35564  0.37968  0.27551  1.0000
  C   C213      1.0  0.37730  0.37090  0.42871  1.0000
  C   C214      1.0  0.34077  0.49844  0.46773  1.0000
  H   H370      1.0  0.10628  0.58767  0.34134  1.0000
  H   H371      1.0  0.99251  0.62445  0.30440  1.0000
  H   H372      1.0  0.44599  0.39639  0.24131  1.0000
  H   H373      1.0  0.04606  0.57399  0.45929  1.0000
  C   C215      1.0  0.40832  0.34590  0.49092  1.0000
  C   C216      1.0  0.42823  0.38273  0.47523  1.0000
  C   C217      1.0  0.35631  0.37398  0.47846  1.0000
  H   H374      1.0  0.41922  0.34629  0.44389  1.0000
  H   H375      1.0  0.47267  0.54123  0.09425  1.0000
  H   H376      1.0  0.41998  0.38899  0.20038  1.0000
  H   H377      1.0  0.00208  0.52976  0.44484  1.0000
  H   H378      1.0  0.02863  0.54823  0.42663  1.0000
  C   C218      1.0  0.41263  0.65141  0.09356  1.0000
  S   S46       1.0  0.15290  0.64648  0.19130  1.0000
  H   H379      1.0  0.34724  0.63620  0.15674  1.0000
  Fe  Fe22      1.0  0.47700  0.37942  0.36603  1.0000
  C   C219      1.0  0.47117  0.58365  0.11555  1.0000
  S   S47       1.0  0.46991  0.44435  0.38057  1.0000
  H   H380      1.0  0.44628  0.64928  0.09349  1.0000
  Fe  Fe23      1.0  0.06079  0.65156  0.40565  1.0000
  C   C220      1.0  0.26848  0.64445  0.13504  1.0000
  H   H381      1.0  0.41317  0.63814  0.12801  1.0000
  C   C221      1.0  0.47192  0.52655  0.08230  1.0000
  S   S48       1.0  0.00965  0.64546  0.26146  1.0000
  H   H382      1.0  0.99812  0.53983  0.48578  1.0000
  C   C222      1.0  0.18847  0.57482  0.49330  1.0000
  H   H383      1.0  0.07947  0.58355  0.49268  1.0000
  H   H384      1.0  0.46153  0.33186  0.47462  1.0000
  C   C223      1.0  0.01324  0.55653  0.48555  1.0000
  H   H385      1.0  0.16427  0.32225  0.01884  1.0000
  H   H386      1.0  0.38417  0.32931  0.27694  1.0000
  Fe  Fe24      1.0  0.37803  0.32455  0.01121  1.0000
  C   C224      1.0  0.02734  0.64179  0.33299  1.0000
  S   S49       1.0  0.48292  0.44340  0.30931  1.0000
  H   H387      1.0  0.48709  0.50884  0.23299  1.0000
  S   S50       1.0  0.48850  0.34396  0.35128  1.0000
  C   C225      1.0  0.48786  0.59514  0.09720  1.0000
  H   H388      1.0  0.43245  0.38936  0.49344  1.0000
  Fe  Fe25      1.0  0.32463  0.35391  0.97502  1.0000
  S   S51       1.0  0.38483  0.33548  0.97419  1.0000
  S   S52       1.0  0.27902  0.34815  0.94174  1.0000
  H   H389      1.0  0.14730  0.53019  0.53510  1.0000
  S   S53       1.0  0.35642  0.38621  0.98803  1.0000
  H   H390      1.0  0.31022  0.39685  0.52565  1.0000
  H   H391      1.0  0.31941  0.50381  0.67908  1.0000
  Fe  Fe26      1.0  0.02786  0.33657  0.59596  1.0000
  S   S54       1.0  0.08318  0.34751  0.57699  1.0000
  C   C226      1.0  0.03422  0.32622  0.71072  1.0000
  H   H392      1.0  0.33577  0.53734  0.75587  1.0000
  Fe  Fe27      1.0  0.22906  0.45729  0.55675  1.0000
  S   S55       1.0  0.23013  0.45422  0.51761  1.0000
  S   S56       1.0  0.18952  0.43829  0.58123  1.0000
  Fe  Fe28      1.0  0.28571  0.49920  0.55955  1.0000
  S   S57       1.0  0.28932  0.49924  0.52068  1.0000
  S   S58       1.0  0.31499  0.52908  0.58000  1.0000
  Fe  Fe29      1.0  0.22211  0.49183  0.51711  1.0000
  C   C227      1.0  0.05651  0.38339  0.67628  1.0000
  Fe  Fe30      1.0  0.29764  0.46201  0.52411  1.0000
  C   C228      1.0  0.40284  0.60219  0.66962  1.0000
  S   S59       1.0  0.21712  0.49457  0.55562  1.0000
  S   S60       1.0  0.29778  0.46229  0.56356  1.0000
  C   C229      1.0  0.19389  0.55178  0.49788  1.0000
  C   C230      1.0  0.08325  0.53706  0.53930  1.0000
  H   H393      1.0  0.99443  0.52644  0.52724  1.0000
  C   C231      1.0  0.35153  0.54683  0.70977  1.0000
  H   H394      1.0  0.14490  0.44182  0.53269  1.0000
  N   N13       1.0  0.03810  0.56114  0.50870  1.0000
  H   H395      1.0  0.08793  0.41964  0.54538  1.0000
  S   S61       1.0  0.08802  0.33477  0.90370  1.0000
  C   C232      1.0  0.36236  0.52937  0.59792  1.0000
  C   C233      1.0  0.38149  0.50963  0.60620  1.0000
  C   C234      1.0  0.41752  0.51067  0.62178  1.0000
  C   C235      1.0  0.43508  0.53139  0.62905  1.0000
  C   C236      1.0  0.41649  0.55114  0.62036  1.0000
  C   C237      1.0  0.38011  0.55011  0.60506  1.0000
  H   H396      1.0  0.36804  0.49358  0.60098  1.0000
  H   H397      1.0  0.43162  0.49529  0.62842  1.0000
  C   C238      1.0  0.02122  0.42984  0.57395  1.0000
  H   H398      1.0  0.36548  0.56547  0.59878  1.0000
  C   C239      1.0  0.11203  0.37301  0.57827  1.0000
  C   C240      1.0  0.11188  0.38808  0.59697  1.0000
  C   C241      1.0  0.13577  0.40786  0.59752  1.0000
  C   C242      1.0  0.16042  0.41286  0.57948  1.0000
  C   C243      1.0  0.16079  0.39773  0.56079  1.0000
  C   C244      1.0  0.13677  0.37796  0.56024  1.0000
  H   H399      1.0  0.09428  0.38412  0.61134  1.0000
  H   H400      1.0  0.13553  0.41926  0.61220  1.0000
  H   H401      1.0  0.17961  0.40121  0.54681  1.0000
  H   H402      1.0  0.13749  0.36634  0.54578  1.0000
  C   C245      1.0  0.22561  0.34452  0.93162  1.0000
  C   C246      1.0  0.19400  0.34962  0.94544  1.0000
  H   H403      1.0  0.31420  0.54768  0.66807  1.0000
  N   N14       1.0  0.00300  0.39902  0.89894  1.0000
  C   C247      1.0  0.17307  0.33302  0.89995  1.0000
  C   C248      1.0  0.21464  0.33623  0.90879  1.0000
  H   H404      1.0  0.09365  0.44581  0.56079  1.0000
  H   H405      1.0  0.15983  0.33550  0.99039  1.0000
  H   H406      1.0  0.26323  0.51921  0.65158  1.0000
  H   H407      1.0  0.01387  0.43273  0.91212  1.0000
  H   H408      1.0  0.28976  0.52126  0.74828  1.0000
  H   H409      1.0  0.03533  0.59675  0.50194  1.0000
  H   H410      1.0  0.45098  0.38723  0.93369  1.0000
  H   H411      1.0  0.03319  0.44025  0.51645  1.0000
  H   H412      1.0  0.41995  0.60735  0.68648  1.0000
  H   H413      1.0  0.05796  0.52663  0.50512  1.0000
  H   H414      1.0  0.03465  0.40368  0.61473  1.0000
  C   C249      1.0  0.05880  0.58365  0.50688  1.0000
  H   H415      1.0  0.33080  0.56140  0.70644  1.0000
  H   H416      1.0  0.01402  0.42263  0.87155  1.0000
  C   C250      1.0  0.39766  0.56183  0.68294  1.0000
  C   C251      1.0  0.14149  0.33798  0.91384  1.0000
  H   H417      1.0  0.35227  0.50235  0.65610  1.0000
  H   H418      1.0  0.36424  0.37008  0.51719  1.0000
  H   H419      1.0  0.02461  0.56503  0.54484  1.0000
  H   H420      1.0  0.02824  0.38756  0.55544  1.0000
  H   H421      1.0  0.42514  0.59732  0.65717  1.0000
  C   C252      1.0  0.30955  0.53479  0.74229  1.0000
  H   H422      1.0  0.06100  0.36526  0.67296  1.0000
  H   H423      1.0  0.34194  0.51220  0.72186  1.0000
  H   H424      1.0  0.45939  0.47131  0.94384  1.0000
  C   C253      1.0  0.40159  0.52192  0.69220  1.0000
  H   H425      1.0  0.05830  0.52834  0.54736  1.0000
  H   H426      1.0  0.38537  0.50644  0.69657  1.0000
  H   H427      1.0  0.04894  0.39206  0.65932  1.0000
  C   C254      1.0  0.08389  0.43792  0.54354  1.0000
  C   C255      1.0  0.48136  0.39437  0.93709  1.0000
  H   H428      1.0  0.47145  0.34077  0.91368  1.0000
  H   H429      1.0  0.12486  0.38017  0.88767  1.0000
  Fe  Fe31      1.0  0.01872  0.32240  0.81736  1.0000
  H   H430      1.0  0.47390  0.44924  0.89691  1.0000
  C   C256      1.0  0.04552  0.38932  0.89871  1.0000
  H   H431      1.0  0.29127  0.55044  0.74037  1.0000
  H   H432      1.0  0.12812  0.39097  0.91732  1.0000
  H   H433      1.0  0.08578  0.39038  0.68471  1.0000
  C   C257      1.0  0.07988  0.40594  0.89338  1.0000
  H   H434      1.0  0.09161  0.55215  0.54995  1.0000
  C   C258      1.0  0.04663  0.33168  0.73434  1.0000
  H   H435      1.0  0.04774  0.41825  0.57535  1.0000
  H   H436      1.0  0.35183  0.58868  0.68552  1.0000
  C   C259      1.0  0.12228  0.39547  0.89852  1.0000
  C   C260      1.0  0.35420  0.38281  0.50384  1.0000
  H   H437      1.0  0.28195  0.49302  0.64107  1.0000
  C   C261      1.0  0.02257  0.38689  0.69230  1.0000
  H   H438      1.0  0.04490  0.39635  0.52775  1.0000
  H   H439      1.0  0.48478  0.40460  0.90129  1.0000
  H   H440      1.0  0.05575  0.38156  0.91590  1.0000
  H   H441      1.0  0.11465  0.58166  0.53103  1.0000
  H   H442      1.0  0.20150  0.35669  0.96269  1.0000
  C   C262      1.0  0.48064  0.46495  0.93148  1.0000
  H   H443      1.0  0.35612  0.57920  0.65609  1.0000
  C   C263      1.0  0.09909  0.61625  0.52642  1.0000
  H   H444      1.0  0.07191  0.62740  0.52504  1.0000
  H   H445      1.0  0.07906  0.42147  0.90400  1.0000
  H   H446      1.0  0.07666  0.41045  0.87454  1.0000
  C   C264      1.0  0.02494  0.32367  0.75259  1.0000
  H   H447      1.0  0.16551  0.32678  0.88232  1.0000
  H   H448      1.0  0.07372  0.34186  0.73855  1.0000
  C   C265      1.0  0.34170  0.53687  0.66734  1.0000
  H   H449      1.0  0.09738  0.54674  0.50460  1.0000
  H   H450      1.0  0.11391  0.50609  0.53066  1.0000
  C   C266      1.0  0.46448  0.50398  0.71380  1.0000
  H   H451      1.0  0.11581  0.61846  0.51073  1.0000
  H   H452      1.0  0.12856  0.35043  0.94761  1.0000
  H   H453      1.0  0.00967  0.35249  0.91932  1.0000
  H   H454      1.0  0.29651  0.51896  0.62832  1.0000
  H   H455      1.0  0.45833  0.53890  0.70690  1.0000
  C   C267      1.0  0.00841  0.56275  0.52713  1.0000
  C   C268      1.0  0.08619  0.59181  0.52884  1.0000
  N   N15       1.0  0.37258  0.54148  0.68825  1.0000
  C   C269      1.0  0.01795  0.39257  0.53722  1.0000
  H   H456      1.0  0.38524  0.61686  0.66229  1.0000
  H   H457      1.0  0.01715  0.35750  0.52705  1.0000
  S   S62       1.0  0.47856  0.53165  0.65014  1.0000
  C   C270      1.0  0.03886  0.44421  0.53548  1.0000
  C   C271      1.0  0.32736  0.51220  0.66302  1.0000
  H   H458      1.0  0.99210  0.39667  0.86126  1.0000
  H   H459      1.0  0.41936  0.55745  0.67000  1.0000
  H   H460      1.0  0.03832  0.46287  0.53668  1.0000
  H   H461      1.0  0.47720  0.50017  0.69700  1.0000
  H   H462      1.0  0.03251  0.37867  0.70923  1.0000
  H   H463      1.0  0.41473  0.51783  0.67558  1.0000
  C   C272      1.0  0.12037  0.52153  0.54126  1.0000
  H   H464      1.0  0.02197  0.43211  0.62244  1.0000
  C   C273      1.0  0.43798  0.52504  0.71139  1.0000
  H   H465      1.0  0.42694  0.52857  0.72866  1.0000
  C   C274      1.0  0.06943  0.54271  0.51332  1.0000
  S   S63       1.0  0.35194  0.44661  0.50787  1.0000
  S   S64       1.0  0.01874  0.35029  0.84406  1.0000
  C   C275      1.0  0.37357  0.58279  0.67328  1.0000
  H   H466      1.0  0.41696  0.56755  0.69892  1.0000
  H   H467      1.0  0.11980  0.62137  0.54203  1.0000
  H   H468      1.0  0.37431  0.55231  0.72436  1.0000
  H   H469      1.0  0.35476  0.54152  0.65085  1.0000
  C   C276      1.0  0.15247  0.34623  0.93669  1.0000
  H   H470      1.0  0.42973  0.56719  0.62570  1.0000
  H   H471      1.0  0.12824  0.51665  0.55981  1.0000
  H   H472      1.0  0.10563  0.43802  0.50882  1.0000
  H   H473      1.0  0.29729  0.52520  0.70639  1.0000
  H   H474      1.0  0.04532  0.37544  0.88569  1.0000
  H   H475      1.0  0.20529  0.58700  0.50453  1.0000
  C   C277      1.0  0.28997  0.51085  0.64491  1.0000
  C   C278      1.0  0.32479  0.52807  0.71895  1.0000
  H   H476      1.0  0.14621  0.40757  0.89430  1.0000
  H   H477      1.0  0.07042  0.59080  0.54495  1.0000
  H   H478      1.0  0.03307  0.44581  0.58222  1.0000
  H   H479      1.0  0.11106  0.46465  0.52418  1.0000
  H   H480      1.0  0.44634  0.48940  0.71897  1.0000
  H   H481      1.0  0.43431  0.44224  0.91525  1.0000
  C   C279      1.0  0.00965  0.41612  0.61462  1.0000
  C   C280      1.0  0.31049  0.38951  0.50785  1.0000
  C   C281      1.0  0.00362  0.41620  0.91842  1.0000
  C   C282      1.0  0.99659  0.37230  0.52501  1.0000
  H   H482      1.0  0.21451  0.54632  0.51266  1.0000
  C   C283      1.0  0.99146  0.40959  0.87533  1.0000
  S   S65       1.0  0.00611  0.35285  0.62789  1.0000
  C   C284      1.0  0.45427  0.45601  0.90996  1.0000
  H   H483      1.0  0.99158  0.43819  0.96008  1.0000
  C   C285      1.0  0.11294  0.44617  0.52616  1.0000
  H   H484      1.0  0.02688  0.41170  0.93315  1.0000
  H   H485      1.0  0.99792  0.37438  0.93901  1.0000
  S   S66       1.0  0.47948  0.38070  0.98351  1.0000
  Fe  Fe32      1.0  0.04359  0.32496  0.87100  1.0000
  N   N16       1.0  0.00557  0.43397  0.54867  1.0000
  H   H486      1.0  0.43452  0.46947  0.90171  1.0000
  H   H487      1.0  0.48797  0.49756  0.91797  1.0000
  H   H488      1.0  0.05203  0.33193  0.69703  1.0000
  H   H489      1.0  0.23853  0.33235  0.89774  1.0000
  Fe  Fe33      1.0  0.41568  0.36678  0.98960  1.0000
  H   H490      1.0  0.02026  0.40515  0.69542  1.0000
  S   S67       1.0  0.04319  0.33036  0.78213  1.0000
  H   H491      1.0  0.23572  0.33016  0.98897  1.0000
  H   H492      1.0  0.36102  0.51829  0.49886  1.0000
  H   H493      1.0  0.47525  0.33307  0.98935  1.0000
  H   H494      1.0  0.42445  0.35330  0.50718  1.0000
  H   H495      1.0  0.37385  0.39789  0.50710  1.0000
  H   H496      1.0  0.98915  0.37562  0.50604  1.0000
  H   H497      1.0  0.28986  0.37467  0.50641  1.0000
  H   H498      1.0  0.38022  0.33776  0.49649  1.0000
  H   H499      1.0  0.29859  0.40232  0.49496  1.0000
  H   H500      1.0  0.45292  0.49727  0.99217  1.0000
  H   H501      1.0  0.98912  0.57805  0.52421  1.0000
  C   C286      1.0  0.99000  0.41976  0.58967  1.0000
  H   H502      1.0  0.47039  0.32114  0.51677  1.0000
  H   H503      1.0  0.48891  0.50894  0.95801  1.0000
  S   S68       1.0  0.29161  0.96152  0.02703  1.0000
  Fe  Fe34      1.0  0.22255  0.96073  0.02242  1.0000
  S   S69       1.0  0.18094  0.93560  0.03847  1.0000
  C   C287      1.0  0.99060  0.70423  0.11305  1.0000
  H   H504      1.0  0.16493  0.84941  0.07614  1.0000
  Fe  Fe35      1.0  0.05293  0.67286  0.45451  1.0000
  H   H505      1.0  0.05035  0.95873  0.11575  1.0000
  C   C288      1.0  0.16021  0.68561  0.26412  1.0000
  H   H506      1.0  0.16853  0.95595  0.34861  1.0000
  C   C289      1.0  0.03620  0.97434  0.10798  1.0000
  H   H507      1.0  0.19278  0.79995  0.16626  1.0000
  C   C290      1.0  0.08391  0.94712  0.35331  1.0000
  S   S70       1.0  0.04711  0.68186  0.16480  1.0000
  H   H508      1.0  0.22931  0.89208  0.17099  1.0000
  S   S71       1.0  0.07630  0.68276  0.22086  1.0000
  H   H509      1.0  0.10221  0.84141  0.08164  1.0000
  Fe  Fe36      1.0  0.03362  0.70307  0.19576  1.0000
  S   S72       1.0  0.01729  0.74076  0.19695  1.0000
  H   H510      1.0  0.08947  0.70320  0.40220  1.0000
  S   S73       1.0  0.02753  0.94085  0.17136  1.0000
  Fe  Fe37      1.0  0.05314  0.87630  0.17329  1.0000
  S   S74       1.0  0.09576  0.90273  0.19062  1.0000
  S   S75       1.0  0.07592  0.83981  0.17035  1.0000
  Fe  Fe38      1.0  0.03990  0.91886  0.20314  1.0000
  S   S76       1.0  0.03455  0.93090  0.24090  1.0000
  Fe  Fe39      1.0  0.08093  0.92300  0.15781  1.0000
  S   S77       1.0  0.12991  0.94374  0.14228  1.0000
  C   C291      1.0  0.07129  0.73875  0.40351  1.0000
  S   S78       1.0  0.04267  0.89584  0.13952  1.0000
  C   C292      1.0  0.03476  0.76810  0.18957  1.0000
  H   H511      1.0  0.05394  0.93905  0.07869  1.0000
  C   C293      1.0  0.02506  0.80906  0.19061  1.0000
  C   C294      1.0  0.05889  0.81246  0.17799  1.0000
  H   H512      1.0  0.09897  0.96310  0.34927  1.0000
  C   C295      1.0  0.06853  0.77150  0.17688  1.0000
  C   C296      1.0  0.15858  0.92591  0.48208  1.0000
  H   H513      1.0  0.17600  0.82435  0.10691  1.0000
  H   H514      1.0  0.21432  0.87673  0.38226  1.0000
  H   H515      1.0  0.09398  0.92559  0.31206  1.0000
  H   H516      1.0  0.99772  0.70368  0.09456  1.0000
  C   C297      1.0  0.14198  0.72267  0.41541  1.0000
  H   H517      1.0  0.10058  0.87660  0.28789  1.0000
  H   H518      1.0  0.01903  0.94756  0.05478  1.0000
  H   H519      1.0  0.05667  0.77792  0.37804  1.0000
  H   H520      1.0  0.10690  0.82445  0.10775  1.0000
  H   H521      1.0  0.04521  0.84303  0.12090  1.0000
  C   C298      1.0  0.18224  0.82944  0.14457  1.0000
  H   H522      1.0  0.02078  0.70046  0.38610  1.0000
  H   H523      1.0  0.01681  0.73950  0.43391  1.0000
  H   H524      1.0  0.15857  0.70785  0.42320  1.0000
  C   C299      1.0  0.06235  0.95162  0.25867  1.0000
  C   C300      1.0  0.04991  0.95674  0.28088  1.0000
  C   C301      1.0  0.28465  0.94745  0.47346  1.0000
  H   H525      1.0  0.19736  0.90232  0.33744  1.0000
  H   H526      1.0  0.33840  0.91630  0.99685  1.0000
  C   C302      1.0  0.09645  0.96286  0.25153  1.0000
  H   H527      1.0  0.23220  0.88441  0.09126  1.0000
  H   H528      1.0  0.25245  0.97052  0.43004  1.0000
  H   H529      1.0  0.08242  0.90272  0.27485  1.0000
  H   H530      1.0  0.10646  0.95920  0.23454  1.0000
  C   C303      1.0  0.16314  0.94821  0.43855  1.0000
  C   C304      1.0  0.17582  0.92577  0.44169  1.0000
  C   C305      1.0  0.17326  0.91463  0.46320  1.0000
  C   C306      1.0  0.07753  0.97663  0.04661  1.0000
  H   H531      1.0  0.22805  0.96418  0.47406  1.0000
  C   C307      1.0  0.14719  0.95925  0.45715  1.0000
  H   H532      1.0  0.18812  0.91698  0.42747  1.0000
  H   H533      1.0  0.19613  0.96748  0.29594  1.0000
  H   H534      1.0  0.21243  0.66218  0.14047  1.0000
  C   C308      1.0  0.16806  0.93778  0.06761  1.0000
  C   C309      1.0  0.18748  0.95311  0.08358  1.0000
  C   C310      1.0  0.17586  0.95454  0.10651  1.0000
  C   C311      1.0  0.14483  0.94066  0.11369  1.0000
  C   C312      1.0  0.12573  0.92520  0.09783  1.0000
  C   C313      1.0  0.13716  0.92385  0.07486  1.0000
  H   H535      1.0  0.21138  0.96393  0.07823  1.0000
  H   H536      1.0  0.19085  0.96657  0.11869  1.0000
  H   H537      1.0  0.10138  0.91475  0.10311  1.0000
  H   H538      1.0  0.12162  0.91217  0.06251  1.0000
  H   H539      1.0  0.04261  0.93603  0.37854  1.0000
  C   C314      1.0  0.11012  0.89265  0.28030  1.0000
  H   H540      1.0  0.14991  0.83016  0.14838  1.0000
  H   H541      1.0  0.04102  0.86022  0.09490  1.0000
  H   H542      1.0  0.10666  0.79578  0.16145  1.0000
  H   H543      1.0  0.14264  0.95377  0.32012  1.0000
  H   H544      1.0  0.09763  0.91316  0.36284  1.0000
  H   H545      1.0  0.22985  0.93938  0.33841  1.0000
  C   C315      1.0  0.17532  0.90662  0.35015  1.0000
  H   H546      1.0  0.18256  0.85272  0.37411  1.0000
  C   C316      1.0  0.14556  0.94829  0.47883  1.0000
  C   C317      1.0  0.00829  0.72742  0.41931  1.0000
  H   H547      1.0  0.15617  0.87846  0.08031  1.0000
  Fe  Fe40      1.0  0.99231  0.66090  0.17273  1.0000
  N   N17       1.0  0.02582  0.73513  0.39734  1.0000
  H   H548      1.0  0.14084  0.88664  0.37393  1.0000
  C   C318      1.0  0.16343  0.94450  0.33317  1.0000
  H   H549      1.0  0.20655  0.91599  0.15529  1.0000
  C   C319      1.0  0.15927  0.88401  0.35898  1.0000
  H   H550      1.0  0.08549  0.75720  0.17147  1.0000
  S   S79       1.0  0.04576  0.70630  0.47449  1.0000
  C   C320      1.0  0.06908  0.67247  0.32164  1.0000
  H   H551      1.0  0.14968  0.92062  0.28889  1.0000
  C   C321      1.0  0.05825  0.74865  0.49404  1.0000
  H   H552      1.0  0.03478  0.83024  0.09251  1.0000
  H   H553      1.0  0.01746  0.90317  0.08336  1.0000
  H   H554      1.0  0.12866  0.69130  0.26639  1.0000
  C   C322      1.0  0.07617  0.73073  0.48265  1.0000
  H   H555      1.0  0.00905  0.76907  0.40556  1.0000
  H   H556      1.0  0.09836  0.89884  0.32483  1.0000
  H   H557      1.0  0.16552  0.89457  0.30323  1.0000
  C   C323      1.0  0.02570  0.94892  0.07413  1.0000
  C   C324      1.0  0.21994  0.86906  0.08204  1.0000
  H   H558      1.0  0.00813  0.82336  0.19607  1.0000
  H   H559      1.0  0.08022  0.95665  0.38979  1.0000
  H   H560      1.0  0.22890  0.80338  0.14482  1.0000
  Fe  Fe41      1.0  0.02238  0.66096  0.22615  1.0000
  C   C325      1.0  0.11574  0.92817  0.35876  1.0000
  H   H561      1.0  0.00515  0.97521  0.11412  1.0000
  H   H562      1.0  0.06559  0.67954  0.28446  1.0000
  H   H563      1.0  0.20134  0.83977  0.15758  1.0000
  H   H564      1.0  0.10983  0.87634  0.10817  1.0000
  H   H565      1.0  0.99328  0.98433  0.05134  1.0000
  H   H566      1.0  0.02341  0.94832  0.28655  1.0000
  C   C326      1.0  0.08045  0.79348  0.17119  1.0000
  H   H567      1.0  0.07677  0.75262  0.41657  1.0000
  H   H568      1.0  0.24051  0.85488  0.08737  1.0000
  H   H569      1.0  0.17708  0.79383  0.13597  1.0000
  C   C327      1.0  0.05951  0.95137  0.37421  1.0000
  C   C328      1.0  0.09588  0.71816  0.41348  1.0000
  C   C329      1.0  0.07107  0.97284  0.29570  1.0000
  C   C330      1.0  0.13913  0.90562  0.29803  1.0000
  H   H570      1.0  0.18565  0.90597  0.18112  1.0000
  C   C331      1.0  0.00733  0.75750  0.39018  1.0000
  H   H571      1.0  0.16486  0.68568  0.24521  1.0000
  S   S80       1.0  0.16987  0.96177  0.41149  1.0000
  H   H572      1.0  0.40655  0.66890  0.09890  1.0000
  C   C332      1.0  0.05197  0.84391  0.10236  1.0000
  H   H573      1.0  0.12573  0.88887  0.26445  1.0000
  H   H574      1.0  0.30536  0.97056  0.43884  1.0000
  H   H575      1.0  0.29544  0.91481  0.48953  1.0000
  H   H576      1.0  0.14036  0.87503  0.34478  1.0000
  H   H577      1.0  0.08020  0.95841  0.04295  1.0000
  H   H578      1.0  0.27223  0.93933  0.45675  1.0000
  C   C333      1.0  0.09786  0.84115  0.10051  1.0000
  H   H579      1.0  0.13457  0.93279  0.37533  1.0000
  S   S81       1.0  0.10663  0.66301  0.43549  1.0000
  C   C334      1.0  0.27792  0.98141  0.43784  1.0000
  C   C335      1.0  0.20604  0.94266  0.32365  1.0000
  C   C336      1.0  0.26072  0.96941  0.47710  1.0000
  H   H580      1.0  0.02185  0.71115  0.42519  1.0000
  C   C337      1.0  0.18896  0.87881  0.12716  1.0000
  C   C338      1.0  0.07275  0.98051  0.07290  1.0000
  C   C339      1.0  0.10528  0.98400  0.28860  1.0000
  S   S82       1.0  0.07366  0.66479  0.36927  1.0000
  C   C340      1.0  0.17114  0.88500  0.15038  1.0000
  C   C341      1.0  0.19479  0.86866  0.36763  1.0000
  H   H581      1.0  0.20739  0.92897  0.31075  1.0000
  N   N18       1.0  0.16855  0.85992  0.11258  1.0000
  H   H582      1.0  0.08605  0.74398  0.38778  1.0000
  C   C342      1.0  0.20007  0.90070  0.16530  1.0000
  C   C343      1.0  0.18765  0.83765  0.11954  1.0000
  C   C344      1.0  0.01957  0.71753  0.37823  1.0000
  H   H583      1.0  0.11556  0.85854  0.13257  1.0000
  H   H584      1.0  0.18371  0.89751  0.46540  1.0000
  H   H585      1.0  0.18715  0.89476  0.11704  1.0000
  H   H586      1.0  0.22228  0.87537  0.13116  1.0000
  H   H587      1.0  0.19406  0.91475  0.36518  1.0000
  H   H588      1.0  0.21377  0.86466  0.35319  1.0000
  H   H589      1.0  0.25416  0.87686  0.05260  1.0000
  C   C345      1.0  0.12287  0.85994  0.11422  1.0000
  H   H590      1.0  0.08807  0.71423  0.43134  1.0000
  H   H591      1.0  0.14989  0.73742  0.42688  1.0000
  H   H592      1.0  0.16521  0.87023  0.16112  1.0000
  H   H593      1.0  0.14154  0.89385  0.14637  1.0000
  C   C346      1.0  0.11763  0.97893  0.26637  1.0000
  H   H594      1.0  0.09049  0.68594  0.32635  1.0000
  H   H595      1.0  0.22124  0.83818  0.11840  1.0000
  C   C347      1.0  0.01319  0.78708  0.19634  1.0000
  C   C348      1.0  0.11727  0.73284  0.47830  1.0000
  H   H596      1.0  0.01608  0.79718  0.34598  1.0000
  H   H597      1.0  0.13413  0.95722  0.49325  1.0000
  Fe  Fe42      1.0  0.08575  0.65955  0.19040  1.0000
  C   C349      1.0  0.16756  0.66221  0.27436  1.0000
  H   H598      1.0  0.18211  0.69767  0.27334  1.0000
  C   C350      1.0  0.22213  0.87293  0.05589  1.0000
  H   H599      1.0  0.06157  0.94253  0.33826  1.0000
  C   C351      1.0  0.05509  0.66885  0.29781  1.0000
  H   H600      1.0  0.20256  0.88732  0.04971  1.0000
  H   H601      1.0  0.24904  0.96285  0.30628  1.0000
  H   H602      1.0  0.13187  0.71924  0.46983  1.0000
  H   H603      1.0  0.15226  0.72565  0.39783  1.0000
  H   H604      1.0  0.21201  0.85774  0.04563  1.0000
  H   H605      1.0  0.99240  0.80057  0.37280  1.0000
  C   C352      1.0  0.19622  0.80516  0.14799  1.0000
  S   S83       1.0  0.00682  0.66295  0.42404  1.0000
  C   C353      1.0  0.11692  0.91311  0.31924  1.0000
  H   H606      1.0  0.20002  0.65800  0.27268  1.0000
  C   C354      1.0  0.99702  0.98655  0.07067  1.0000
  N   N19       1.0  0.14328  0.92290  0.33987  1.0000
  C   C355      1.0  0.17518  0.86407  0.08725  1.0000
  H   H607      1.0  0.01456  0.71437  0.12334  1.0000
  H   H608      1.0  0.05135  0.98348  0.03517  1.0000
  H   H609      1.0  0.17156  0.75371  0.48179  1.0000
  H   H610      1.0  0.12410  0.98141  0.02271  1.0000
  H   H611      1.0  0.13666  0.97632  0.45499  1.0000
  C   C356      1.0  0.21766  0.96430  0.31177  1.0000
  C   C357      1.0  0.02769  0.76983  0.37055  1.0000
  H   H612      1.0  0.04530  0.71775  0.36694  1.0000
  H   H613      1.0  0.06941  0.98007  0.15522  1.0000
  S   S84       1.0  0.99778  0.89103  0.18787  1.0000
  H   H614      1.0  0.28479  0.66000  0.13093  1.0000
  H   H615      1.0  0.03696  0.96496  0.36991  1.0000
  H   H616      1.0  0.27411  0.97775  0.38952  1.0000
  Fe  Fe43      1.0  0.98994  0.91227  0.15518  1.0000
  H   H617      1.0  0.14298  0.98393  0.05290  1.0000
  C   C358      1.0  0.13982  0.75246  0.48521  1.0000
  H   H618      1.0  0.21697  0.97880  0.32387  1.0000
  H   H619      1.0  0.03523  0.75807  0.35660  1.0000
  H   H620      1.0  0.34718  0.97999  0.48949  1.0000
  H   H621      1.0  0.31773  0.95039  0.47263  1.0000
  H   H622      1.0  0.16307  0.66324  0.29324  1.0000
  H   H623      1.0  0.06046  0.97692  0.31241  1.0000
  H   H624      1.0  0.99131  0.68682  0.11981  1.0000
  C   C359      1.0  0.99032  0.93643  0.08471  1.0000
  N   N20       1.0  0.03287  0.97308  0.08149  1.0000
  H   H625      1.0  0.09858  0.97141  0.08274  1.0000
  C   C360      1.0  0.00004  0.78824  0.35936  1.0000
  H   H626      1.0  0.47387  0.88631  0.00447  1.0000
  H   H627      1.0  0.00013  0.69754  0.33392  1.0000
  H   H628      1.0  0.99439  0.93669  0.10412  1.0000
  C   C361      1.0  0.05518  0.65907  0.33945  1.0000
  H   H629      1.0  0.32751  0.98147  0.40037  1.0000
  H   H630      1.0  0.37677  0.88038  0.99711  1.0000
  H   H631      1.0  0.35539  0.98727  0.45969  1.0000
  H   H632      1.0  0.42371  0.98500  0.04056  1.0000
  H   H633      1.0  0.14386  0.98750  0.26056  1.0000
  C   C362      1.0  0.27994  0.93078  0.49318  1.0000
  H   H634      1.0  0.34840  0.80371  0.89591  1.0000
  H   H635      1.0  0.45891  0.96536  0.94040  1.0000
  H   H636      1.0  0.06648  0.78165  0.50994  1.0000
  H   H637      1.0  0.23164  0.80773  0.63556  1.0000
  H   H638      1.0  0.38008  0.85267  0.91886  1.0000
  Fe  Fe44      1.0  0.15858  0.87861  0.52714  1.0000
  S   S85       1.0  0.10302  0.85584  0.52267  1.0000
  H   H639      1.0  0.32763  0.86267  0.85668  1.0000
  Fe  Fe45      1.0  0.20098  0.85040  0.56872  1.0000
  S   S86       1.0  0.14714  0.82661  0.56644  1.0000
  S   S87       1.0  0.24878  0.84542  0.60110  1.0000
  Fe  Fe46      1.0  0.14822  0.82712  0.52731  1.0000
  H   H640      1.0  0.17894  0.86065  0.67657  1.0000
  Fe  Fe47      1.0  0.10594  0.85697  0.56217  1.0000
  S   S88       1.0  0.05208  0.85845  0.58500  1.0000
  S   S89       1.0  0.20424  0.85001  0.52958  1.0000
  S   S90       1.0  0.15940  0.88058  0.56660  1.0000
  S   S91       1.0  0.42701  0.85994  0.96482  1.0000
  S   S92       1.0  0.43871  0.82898  0.63948  1.0000
  H   H641      1.0  0.31207  0.81542  0.52754  1.0000
  C   C363      1.0  0.43899  0.98592  0.96765  1.0000
  H   H642      1.0  0.09205  0.88054  0.67918  1.0000
  H   H643      1.0  0.12166  0.94462  0.62526  1.0000
  H   H644      1.0  0.15422  0.83206  0.65499  1.0000
  H   H645      1.0  0.35085  0.88868  0.90576  1.0000
  C   C364      1.0  0.30186  0.84076  0.61123  1.0000
  C   C365      1.0  0.33287  0.83990  0.59615  1.0000
  C   C366      1.0  0.37419  0.83624  0.60513  1.0000
  C   C367      1.0  0.38550  0.83326  0.62931  1.0000
  C   C368      1.0  0.35443  0.83401  0.64436  1.0000
  C   C369      1.0  0.31315  0.83780  0.63540  1.0000
  H   H646      1.0  0.32518  0.84228  0.57757  1.0000
  H   H647      1.0  0.39768  0.83576  0.59321  1.0000
  H   H648      1.0  0.36226  0.83182  0.66297  1.0000
  H   H649      1.0  0.28978  0.83845  0.64739  1.0000
  H   H650      1.0  0.07274  0.93034  0.62061  1.0000
  C   C370      1.0  0.38183  0.80636  0.89892  1.0000
  C   C371      1.0  0.12361  0.86464  0.70915  1.0000
  C   C372      1.0  0.02093  0.88124  0.59300  1.0000
  H   H651      1.0  0.99013  0.86116  0.61706  1.0000
  H   H652      1.0  0.28190  0.86214  0.92567  1.0000
  H   H653      1.0  0.41223  0.97536  0.97091  1.0000
  C   C373      1.0  0.35702  0.91246  0.98283  1.0000
  C   C374      1.0  0.30390  0.82948  0.86316  1.0000
  C   C375      1.0  0.02355  0.90266  0.58342  1.0000
  H   H654      1.0  0.42448  0.86813  0.89268  1.0000
  C   C376      1.0  0.27086  0.83231  0.84264  1.0000
  H   H655      1.0  0.12817  0.80121  0.62863  1.0000
  C   C377      1.0  0.40303  0.88667  0.96481  1.0000
  H   H656      1.0  0.40073  0.81830  0.86586  1.0000
  C   C378      1.0  0.40492  0.90182  0.94646  1.0000
  H   H657      1.0  0.24562  0.82014  0.84430  1.0000
  C   C379      1.0  0.12199  0.77029  0.49681  1.0000
  H   H658      1.0  0.25870  0.81261  0.51678  1.0000
  N   N21       1.0  0.37260  0.84686  0.88152  1.0000
  C   C380      1.0  0.39724  0.82537  0.88355  1.0000
  H   H659      1.0  0.12042  0.72688  0.53523  1.0000
  C   C381      1.0  0.24519  0.79071  0.63738  1.0000
  C   C382      1.0  0.40239  0.78402  0.89432  1.0000
  H   H660      1.0  0.17283  0.83394  0.62670  1.0000
  H   H661      1.0  0.39241  0.77106  0.90639  1.0000
  C   C383      1.0  0.12910  0.73849  0.55009  1.0000
  H   H662      1.0  0.38927  0.81068  0.91773  1.0000
  H   H663      1.0  0.47892  0.91666  0.89216  1.0000
  H   H664      1.0  0.35394  0.84026  0.84491  1.0000
  H   H665      1.0  0.13485  0.88059  0.71758  1.0000
  H   H666      1.0  0.10344  0.82113  0.60840  1.0000
  H   H667      1.0  0.43624  0.78558  0.89727  1.0000
  Fe  Fe48      1.0  0.28719  0.96750  0.98814  1.0000
  C   C384      1.0  0.11581  0.86746  0.68263  1.0000
  H   H668      1.0  0.28916  0.83243  0.87942  1.0000
  H   H669      1.0  0.00081  0.93657  0.58283  1.0000
  N   N22       1.0  0.23064  0.77022  0.57223  1.0000
  C   C385      1.0  0.23525  0.78398  0.55064  1.0000
  C   C386      1.0  0.18739  0.76119  0.57084  1.0000
  C   C387      1.0  0.23634  0.78588  0.59309  1.0000
  C   C388      1.0  0.26167  0.75151  0.57566  1.0000
  C   C389      1.0  0.27645  0.74083  0.55325  1.0000
  C   C390      1.0  0.27540  0.79788  0.55114  1.0000
  C   C391      1.0  0.22825  0.77568  0.61705  1.0000
  H   H670      1.0  0.39387  0.77839  0.87602  1.0000
  S   S93       1.0  0.15946  0.91385  0.51060  1.0000
  C   C392      1.0  0.30125  0.71958  0.55908  1.0000
  C   C393      1.0  0.28515  0.80401  0.52648  1.0000
  H   H671      1.0  0.46786  0.78864  0.82450  1.0000
  H   H672      1.0  0.20961  0.79617  0.54777  1.0000
  H   H673      1.0  0.23225  0.77348  0.53459  1.0000
  H   H674      1.0  0.18206  0.75208  0.58710  1.0000
  H   H675      1.0  0.27910  0.88306  0.64255  1.0000
  H   H676      1.0  0.21600  0.80073  0.59020  1.0000
  H   H677      1.0  0.26812  0.79272  0.59523  1.0000
  H   H678      1.0  0.29001  0.75742  0.58629  1.0000
  H   H679      1.0  0.24952  0.73782  0.58618  1.0000
  H   H680      1.0  0.29655  0.75269  0.54486  1.0000
  H   H681      1.0  0.25081  0.73638  0.54004  1.0000
  H   H682      1.0  0.27185  0.81374  0.56095  1.0000
  H   H683      1.0  0.30199  0.78878  0.55999  1.0000
  H   H684      1.0  0.24261  0.75895  0.61964  1.0000
  H   H685      1.0  0.19477  0.77399  0.61815  1.0000
  H   H686      1.0  0.46529  0.68906  0.66467  1.0000
  H   H687      1.0  0.12242  0.73017  0.56656  1.0000
  H   H688      1.0  0.09459  0.85990  0.71633  1.0000
  H   H689      1.0  0.33472  0.83818  0.90922  1.0000
  H   H690      1.0  0.24709  0.92710  0.49462  1.0000
  H   H691      1.0  0.31239  0.71268  0.54288  1.0000
  H   H692      1.0  0.40377  0.86399  0.83891  1.0000
  H   H693      1.0  0.28192  0.70664  0.56651  1.0000
  H   H694      1.0  0.46624  0.92924  0.93158  1.0000
  H   H695      1.0  0.45807  0.94051  0.97340  1.0000
  S   S94       1.0  0.47564  0.79809  0.70373  1.0000
  H   H696      1.0  0.08705  0.81841  0.63730  1.0000
  H   H697      1.0  0.27906  0.79209  0.63791  1.0000
  C   C394      1.0  0.40155  0.86581  0.87716  1.0000
  C   C395      1.0  0.33004  0.87395  0.90510  1.0000
  C   C396      1.0  0.42515  0.86325  0.85513  1.0000
  C   C397      1.0  0.30675  0.87489  0.92686  1.0000
  H   H698      1.0  0.31461  0.81189  0.86263  1.0000
  C   C398      1.0  0.14531  0.83585  0.63632  1.0000
  C   C399      1.0  0.35868  0.92758  0.96439  1.0000
  N   N23       1.0  0.15141  0.87832  0.64592  1.0000
  C   C400      1.0  0.15581  0.87393  0.67193  1.0000
  C   C401      1.0  0.19353  0.87945  0.63764  1.0000
  C   C402      1.0  0.12842  0.90004  0.64159  1.0000
  C   C403      1.0  0.12773  0.85985  0.63259  1.0000
  H   H699      1.0  0.04509  0.90580  0.57072  1.0000
  H   H700      1.0  0.23759  0.78346  0.65419  1.0000
  C   C404      1.0  0.12567  0.90919  0.61624  1.0000
  C   C405      1.0  0.22096  0.89925  0.64735  1.0000
  C   C406      1.0  0.26242  0.89873  0.63737  1.0000
  C   C407      1.0  0.38296  0.92217  0.94628  1.0000
  C   C408      1.0  0.11405  0.81810  0.62708  1.0000
  C   C409      1.0  0.10374  0.93178  0.61453  1.0000
  H   H701      1.0  0.16831  0.88905  0.68161  1.0000
  C   C410      1.0  0.17460  0.74437  0.55083  1.0000
  H   H702      1.0  0.21085  0.86385  0.64250  1.0000
  H   H703      1.0  0.19152  0.87986  0.61818  1.0000
  H   H704      1.0  0.14171  0.91345  0.65359  1.0000
  H   H705      1.0  0.09619  0.89810  0.64577  1.0000
  H   H706      1.0  0.09499  0.85999  0.63621  1.0000
  H   H707      1.0  0.12683  0.86286  0.61346  1.0000
  H   H708      1.0  0.19180  0.72848  0.55374  1.0000
  C   C411      1.0  0.99809  0.92009  0.59020  1.0000
  H   H709      1.0  0.29395  0.93758  0.51017  1.0000
  H   H710      1.0  0.17985  0.75122  0.53350  1.0000
  H   H711      1.0  0.10810  0.89748  0.60401  1.0000
  H   H712      1.0  0.15637  0.91172  0.61020  1.0000
  H   H713      1.0  0.20658  0.91562  0.64265  1.0000
  H   H714      1.0  0.22680  0.89831  0.66669  1.0000
  H   H715      1.0  0.28140  0.91320  0.64422  1.0000
  H   H716      1.0  0.02658  0.74732  0.49762  1.0000
  H   H717      1.0  0.25831  0.89971  0.61795  1.0000
  H   H718      1.0  0.44190  0.84718  0.85521  1.0000
  H   H719      1.0  0.11006  0.75382  0.54751  1.0000
  H   H720      1.0  0.32820  0.72333  0.57182  1.0000
  H   H721      1.0  0.48064  0.88107  0.86865  1.0000
  H   H722      1.0  0.42208  0.89746  0.93200  1.0000
  H   H723      1.0  0.01423  0.94762  0.53403  1.0000
  H   H724      1.0  0.10025  0.93740  0.59601  1.0000
  C   C412      1.0  0.35493  0.85190  0.90428  1.0000
  C   C413      1.0  0.08086  0.76822  0.50108  1.0000
  H   H725      1.0  0.47146  0.88024  0.83727  1.0000
  C   C414      1.0  0.34017  0.84569  0.86095  1.0000
  H   H726      1.0  0.38414  0.93363  0.93181  1.0000
  H   H727      1.0  0.16516  0.77536  0.56939  1.0000
  H   H728      1.0  0.29290  0.89175  0.92839  1.0000
  H   H729      1.0  0.30715  0.87561  0.88967  1.0000
  H   H730      1.0  0.32762  0.87178  0.94294  1.0000
  H   H731      1.0  0.28367  0.82912  0.82574  1.0000
  H   H732      1.0  0.38484  0.88198  0.87495  1.0000
  H   H733      1.0  0.47772  0.90434  0.64441  1.0000
  H   H734      1.0  0.25791  0.84950  0.84256  1.0000
  S   S95       1.0  0.21803  0.96412  0.98305  1.0000
  H   H735      1.0  0.08154  0.97319  0.98508  1.0000
  H   H736      1.0  0.42916  0.82884  0.89135  1.0000
  S   S96       1.0  0.15296  0.79429  0.50589  1.0000
  H   H737      1.0  0.46065  0.74528  0.75667  1.0000
  C   C415      1.0  0.48373  0.80389  0.82062  1.0000
  C   C416      1.0  0.45650  0.88205  0.85370  1.0000
  C   C417      1.0  0.37895  0.89211  0.98297  1.0000
  S   S97       1.0  0.33091  0.95326  0.96292  1.0000
  Fe  Fe49      1.0  0.48280  0.82113  0.67287  1.0000
  H   H738      1.0  0.47356  0.77391  0.75063  1.0000
  H   H739      1.0  0.44144  0.89870  0.85364  1.0000
  C   C418      1.0  0.99262  0.87764  0.60954  1.0000
  H   H740      1.0  0.01867  0.98318  0.95966  1.0000
  H   H741      1.0  0.10324  0.85134  0.67530  1.0000
  H   H742      1.0  0.47089  0.79997  0.78306  1.0000
  H   H743      1.0  0.14647  0.85121  0.71356  1.0000
  H   H744      1.0  0.26553  0.97419  0.49596  1.0000
  H   H745      1.0  0.29235  0.78870  0.51663  1.0000
  C   C419      1.0  0.48578  0.81014  0.79703  1.0000
  H   H746      1.0  0.48827  0.95848  0.99261  1.0000
  C   C420      1.0  0.48515  0.95195  0.97431  1.0000
  C   C421      1.0  0.47198  0.97174  0.95772  1.0000
  S   S98       1.0  0.48477  0.81085  0.93537  1.0000
  Fe  Fe50      1.0  0.48167  0.84688  0.94700  1.0000
  H   H747      1.0  0.47415  0.87511  0.65232  1.0000
  C   C422      1.0  0.48598  0.75669  0.75294  1.0000
  H   H748      1.0  0.48760  0.72839  0.67345  1.0000
  Fe  Fe51      1.0  0.80532  0.13877  0.46574  1.0000
  S   S99       1.0  0.87307  0.14642  0.46470  1.0000
  S   S100      1.0  0.76210  0.15339  0.43497  1.0000
  Fe  Fe52      1.0  0.88473  0.11010  0.47357  1.0000
  S   S101      1.0  0.92354  0.08274  0.45806  1.0000
  H   H749      1.0  0.64942  0.24167  0.44745  1.0000
  S   S102      1.0  0.81720  0.10209  0.47244  1.0000
  C   C423      1.0  0.55058  0.20135  0.41554  1.0000
  S   S103      1.0  0.57887  0.10478  0.10348  1.0000
  C   C424      1.0  0.55635  0.22717  0.41605  1.0000
  S   S104      1.0  0.53179  0.19162  0.33887  1.0000
  Fe  Fe53      1.0  0.52499  0.16184  0.36219  1.0000
  S   S105      1.0  0.57338  0.14735  0.39044  1.0000
  H   H750      1.0  0.64865  0.05353  0.14833  1.0000
  S   S106      1.0  0.79134  0.02825  0.02304  1.0000
  C   C425      1.0  0.63176  0.22416  0.41416  1.0000
  C   C426      1.0  0.98684  0.09927  0.43351  1.0000
  H   H751      1.0  0.52143  0.08636  0.05777  1.0000
  Fe  Fe54      1.0  0.72356  0.02573  0.02701  1.0000
  S   S107      1.0  0.68235  0.05679  0.02836  1.0000
  H   H752      1.0  0.58206  0.02978  0.07295  1.0000
  C   C427      1.0  0.78234  0.05197  0.10576  1.0000
  H   H753      1.0  0.93278  0.01620  0.06354  1.0000
  C   C428      1.0  0.76199  0.12279  0.37373  1.0000
  H   H754      1.0  0.54402  0.00998  0.06164  1.0000
  S   S108      1.0  0.85274  0.99915  0.07563  1.0000
  H   H755      1.0  0.50979  0.17599  0.42709  1.0000
  C   C429      1.0  0.60660  0.09145  0.08208  1.0000
  C   C430      1.0  0.60674  0.09964  0.05928  1.0000
  C   C431      1.0  0.63013  0.08883  0.04320  1.0000
  C   C432      1.0  0.65349  0.06961  0.04955  1.0000
  C   C433      1.0  0.65281  0.06120  0.07223  1.0000
  C   C434      1.0  0.62970  0.07213  0.08838  1.0000
  H   H756      1.0  0.58953  0.11456  0.05418  1.0000
  H   H757      1.0  0.63038  0.09552  0.02573  1.0000
  H   H758      1.0  0.67015  0.04633  0.07730  1.0000
  H   H759      1.0  0.62967  0.06561  0.10591  1.0000
  H   H760      1.0  0.53300  0.27151  0.40733  1.0000
  H   H761      1.0  0.59895  0.30581  0.39686  1.0000
  C   C435      1.0  0.83982  0.09541  0.36737  1.0000
  H   H762      1.0  0.61584  0.26144  0.36523  1.0000
  C   C436      1.0  0.70918  0.15182  0.42330  1.0000
  C   C437      1.0  0.68071  0.13779  0.43266  1.0000
  C   C438      1.0  0.63959  0.13679  0.42242  1.0000
  C   C439      1.0  0.62594  0.14973  0.40265  1.0000
  C   C440      1.0  0.65438  0.16385  0.39333  1.0000
  C   C441      1.0  0.69551  0.16489  0.40360  1.0000
  H   H763      1.0  0.69037  0.12759  0.44773  1.0000
  H   H764      1.0  0.61813  0.12577  0.42986  1.0000
  H   H765      1.0  0.64477  0.17382  0.37808  1.0000
  H   H766      1.0  0.71704  0.17580  0.39608  1.0000
  H   H767      1.0  0.91777  0.06698  0.34187  1.0000
  H   H768      1.0  0.54520  0.19524  0.39723  1.0000
  H   H769      1.0  0.50519  0.06768  0.12499  1.0000
  C   C442      1.0  0.61660  0.24292  0.36367  1.0000
  H   H770      1.0  0.65868  0.23182  0.40691  1.0000
  C   C443      1.0  0.81060  0.01227  0.13778  1.0000
  C   C444      1.0  0.59478  0.01287  0.04136  1.0000
  N   N24       1.0  0.82969  0.10390  0.39100  1.0000
  C   C445      1.0  0.84514  0.08865  0.41084  1.0000
  C   C446      1.0  0.78365  0.10548  0.39086  1.0000
  C   C447      1.0  0.87946  0.08120  0.36680  1.0000
  C   C448      1.0  0.82335  0.06552  0.41126  1.0000
  C   C449      1.0  0.89009  0.07769  0.34173  1.0000
  C   C450      1.0  0.84757  0.04900  0.42749  1.0000
  H   H771      1.0  0.84181  0.09695  0.42787  1.0000
  H   H772      1.0  0.87855  0.08576  0.41122  1.0000
  H   H773      1.0  0.79011  0.07995  0.08248  1.0000
  H   H774      1.0  0.76912  0.08895  0.38631  1.0000
  H   H775      1.0  0.81457  0.08466  0.35903  1.0000
  H   H776      1.0  0.87522  0.06438  0.37439  1.0000
  H   H777      1.0  0.79284  0.06757  0.41785  1.0000
  H   H778      1.0  0.81858  0.05799  0.39350  1.0000
  H   H779      1.0  0.86445  0.06923  0.33098  1.0000
  H   H780      1.0  0.49834  0.10869  0.25961  1.0000
  H   H781      1.0  0.87884  0.04654  0.42208  1.0000
  H   H782      1.0  0.84999  0.05528  0.44582  1.0000
  C   C451      1.0  0.70008  0.03572  0.13610  1.0000
  H   H783      1.0  0.90609  0.12479  0.38134  1.0000
  H   H784      1.0  0.58239  0.20944  0.18490  1.0000
  H   H785      1.0  0.57475  0.24238  0.33160  1.0000
  H   H786      1.0  0.83161  0.03255  0.42686  1.0000
  C   C452      1.0  0.90746  0.15373  0.40307  1.0000
  S   S109      1.0  0.71177  0.00241  0.99593  1.0000
  H   H787      1.0  0.79851  0.05288  0.06987  1.0000
  H   H788      1.0  0.52750  0.23424  0.40716  1.0000
  H   H789      1.0  0.81504  0.05267  0.11280  1.0000
  C   C453      1.0  0.68034  0.04868  0.15502  1.0000
  H   H790      1.0  0.97641  0.11591  0.43746  1.0000
  H   H791      1.0  0.70584  0.21475  0.43971  1.0000
  H   H792      1.0  0.61634  0.02563  0.03572  1.0000
  H   H793      1.0  0.57763  0.19253  0.42421  1.0000
  C   C454      1.0  0.67874  0.20952  0.44853  1.0000
  S   S110      1.0  0.49552  0.14599  0.06773  1.0000
  N   N25       1.0  0.59286  0.23593  0.40484  1.0000
  H   H794      1.0  0.74697  0.06221  0.07325  1.0000
  C   C455      1.0  0.49838  0.08213  0.02124  1.0000
  C   C456      1.0  0.77920  0.06231  0.08133  1.0000
  C   C457      1.0  0.59749  0.26062  0.41022  1.0000
  C   C458      1.0  0.58578  0.23164  0.37883  1.0000
  H   H795      1.0  0.96185  0.04183  0.06698  1.0000
  H   H796      1.0  0.76214  0.04381  0.15084  1.0000
  H   H797      1.0  0.70071  0.13201  0.35907  1.0000
  H   H798      1.0  0.62799  0.24604  0.32722  1.0000
  H   H799      1.0  0.60964  0.21884  0.33486  1.0000
  H   H800      1.0  0.63144  0.20644  0.40802  1.0000
  H   H801      1.0  0.69796  0.06423  0.15985  1.0000
  H   H802      1.0  0.89678  0.09400  0.33363  1.0000
  H   H803      1.0  0.64830  0.23719  0.36888  1.0000
  S   S111      1.0  0.73163  0.99763  0.05296  1.0000
  C   C459      1.0  0.74440  0.02854  0.14491  1.0000
  H   H804      1.0  0.49966  0.26206  0.07398  1.0000
  C   C460      1.0  0.52214  0.22018  0.17010  1.0000
  H   H805      1.0  0.52212  0.15295  0.18957  1.0000
  H   H806      1.0  0.88134  0.00859  0.16820  1.0000
  H   H807      1.0  0.90641  0.08891  0.37691  1.0000
  Fe  Fe55      1.0  0.49370  0.17197  0.31044  1.0000
  H   H808      1.0  0.77448  0.12244  0.35649  1.0000
  H   H809      1.0  0.76448  0.06270  0.11680  1.0000
  H   H810      1.0  0.55092  0.18725  0.17139  1.0000
  H   H811      1.0  0.84170  0.10972  0.35510  1.0000
  H   H812      1.0  0.76623  0.13995  0.38123  1.0000
  C   C461      1.0  0.90458  0.00191  0.99595  1.0000
  H   H813      1.0  0.53404  0.03860  0.02506  1.0000
  C   C462      1.0  0.56183  0.27573  0.39972  1.0000
  H   H814      1.0  0.53420  0.06030  0.08736  1.0000
  H   H815      1.0  0.55835  0.10887  0.28900  1.0000
  C   C463      1.0  0.48910  0.21399  0.14977  1.0000
  C   C464      1.0  0.84692  0.12716  0.39589  1.0000
  C   C465      1.0  0.57110  0.30047  0.40491  1.0000
  H   H816      1.0  0.51855  0.19936  0.44698  1.0000
  C   C466      1.0  0.96295  0.02401  0.06142  1.0000
  C   C467      1.0  0.50744  0.04997  0.08011  1.0000
  H   H817      1.0  0.52700  0.07640  0.01436  1.0000
  C   C468      1.0  0.71591  0.11827  0.36964  1.0000
  H   H818      1.0  0.54504  0.31087  0.39737  1.0000
  H   H819      1.0  0.52263  0.11594  0.02733  1.0000
  C   C469      1.0  0.51375  0.19449  0.42822  1.0000
  N   N26       1.0  0.50270  0.05155  0.05372  1.0000
  H   H820      1.0  0.58711  0.21333  0.37524  1.0000
  S   S112      1.0  0.51587  0.16950  0.27348  1.0000
  C   C470      1.0  0.89412  0.12946  0.39804  1.0000
  H   H821      1.0  0.74211  0.01859  0.16109  1.0000
  H   H822      1.0  0.53233  0.23785  0.16915  1.0000
  C   C471      1.0  0.56452  0.02347  0.05665  1.0000
  C   C472      1.0  0.53107  0.09858  0.29196  1.0000
  C   C473      1.0  0.98118  0.05905  0.43635  1.0000
  H   H823      1.0  0.94144  0.15472  0.40541  1.0000
  Fe  Fe56      1.0  0.52687  0.13082  0.10053  1.0000
  H   H824      1.0  0.57437  0.20747  0.15341  1.0000
  H   H825      1.0  0.60010  0.26349  0.42947  1.0000
  H   H826      1.0  0.70225  0.11744  0.38655  1.0000
  H   H827      1.0  0.96849  0.02350  0.04267  1.0000
  H   H828      1.0  0.53222  0.30379  0.02263  1.0000
  C   C474      1.0  0.60648  0.23715  0.33778  1.0000
  H   H829      1.0  0.55116  0.15875  0.23089  1.0000
  C   C475      1.0  0.50998  0.31757  0.01875  1.0000
  C   C476      1.0  0.54106  0.04323  0.04385  1.0000
  H   H830      1.0  0.92491  0.00347  0.01250  1.0000
  H   H831      1.0  0.67145  0.19172  0.44409  1.0000
  H   H832      1.0  0.62669  0.26717  0.40451  1.0000
  H   H833      1.0  0.89561  0.16000  0.41929  1.0000
  H   H834      1.0  0.55711  0.23300  0.43452  1.0000
  C   C477      1.0  0.96680  0.08054  0.44161  1.0000
  H   H835      1.0  0.67882  0.03819  0.17086  1.0000
  Fe  Fe57      1.0  0.79871  0.99827  0.04703  1.0000
  H   H836      1.0  0.61595  0.21810  0.45030  1.0000
  H   H837      1.0  0.77521  0.10969  0.40874  1.0000
  H   H838      1.0  0.69968  0.04681  0.12063  1.0000
  H   H839      1.0  0.55641  0.27384  0.38047  1.0000
  H   H840      1.0  0.83540  0.13894  0.38180  1.0000
  H   H841      1.0  0.55426  0.23675  0.37182  1.0000
  H   H842      1.0  0.73491  0.02752  0.09529  1.0000
  H   H843      1.0  0.82876  0.00415  0.12471  1.0000
  C   C478      1.0  0.51848  0.16026  0.22636  1.0000
  H   H844      1.0  0.56427  0.05693  0.04409  1.0000
  C   C479      1.0  0.64183  0.22440  0.44116  1.0000
  H   H845      1.0  0.52788  0.09848  0.31104  1.0000
  C   C480      1.0  0.55972  0.20514  0.16986  1.0000
  H   H846      1.0  0.70981  0.10222  0.36005  1.0000
  H   H847      1.0  0.89609  0.16475  0.38828  1.0000
  H   H848      1.0  0.50112  0.26378  0.33140  1.0000
  H   H849      1.0  0.90860  0.11896  0.41244  1.0000
  H   H850      1.0  0.83602  0.13391  0.41233  1.0000
  S   S113      1.0  0.52236  0.16318  0.12114  1.0000
  H   H851      1.0  0.50990  0.21783  0.18727  1.0000
  H   H852      1.0  0.68059  0.02087  0.13123  1.0000
  C   C481      1.0  0.76627  0.02745  0.10468  1.0000
  N   N27       1.0  0.76671  0.01533  0.12772  1.0000
  H   H853      1.0  0.82569  0.02878  0.14142  1.0000
  H   H854      1.0  0.68669  0.21075  0.46776  1.0000
  H   H855      1.0  0.78512  0.01833  0.09282  1.0000
  H   H856      1.0  0.53611  0.08119  0.28591  1.0000
  C   C482      1.0  0.49307  0.10865  0.27839  1.0000
  C   C483      1.0  0.50208  0.15699  0.20283  1.0000
  H   H857      1.0  0.51194  0.30475  0.32652  1.0000
  H   H858      1.0  0.51453  0.03268  0.08613  1.0000
  H   H859      1.0  0.91837  0.99513  0.11240  1.0000
  H   H860      1.0  0.50467  0.21189  0.13347  1.0000
  H   H861      1.0  0.49721  0.29283  0.12219  1.0000
  H   H862      1.0  0.50318  0.25301  0.13734  1.0000
  H   H863      1.0  0.71570  0.99531  0.11238  1.0000
  S   S114      1.0  0.49109  0.14115  0.33310  1.0000
  H   H864      1.0  0.57561  0.30356  0.42408  1.0000
  S   S115      1.0  0.49305  0.21430  0.07930  1.0000
  H   H865      1.0  0.96597  0.04441  0.44246  1.0000
  H   H866      1.0  0.61284  0.99969  0.05132  1.0000
  C   C484      1.0  0.86195  0.99326  0.16732  1.0000
  C   C485      1.0  0.49311  0.16541  0.24406  1.0000
  H   H867      1.0  0.80701  0.00951  0.17566  1.0000
  H   H868      1.0  0.57797  0.00510  0.02564  1.0000
  C   C486      1.0  0.81687  0.99913  0.16115  1.0000
  C   C487      1.0  0.74540  0.99299  0.12329  1.0000
  C   C488      1.0  0.49544  0.29887  0.34071  1.0000
  C   C489      1.0  0.49740  0.07609  0.04752  1.0000
  H   H869      1.0  0.49618  0.11132  0.99869  1.0000
  C   C490      1.0  0.49594  0.10746  0.01758  1.0000
  H   H870      1.0  0.49093  0.12622  0.28421  1.0000
  C   C491      1.0  0.48931  0.27554  0.34341  1.0000
  H   H871      1.0  0.88235  0.01598  0.99468  1.0000
  H   H872      1.0  0.81486  0.00370  0.77868  1.0000
  H   H873      1.0  0.85872  0.21654  0.63920  1.0000
  S   S116      1.0  0.91239  0.27932  0.56573  1.0000
  H   H874      1.0  0.89774  0.24956  0.78140  1.0000
  H   H875      1.0  0.76953  0.05007  0.84804  1.0000
  C   C492      1.0  0.88625  0.21187  0.63051  1.0000
  H   H876      1.0  0.88603  0.00435  0.58399  1.0000
  H   H877      1.0  0.77671  0.05634  0.68592  1.0000
  H   H878      1.0  0.96402  0.02667  0.79001  1.0000
  S   S117      1.0  0.94898  0.05190  0.86184  1.0000
  H   H879      1.0  0.88293  0.06618  0.52511  1.0000
  S   S118      1.0  0.91883  0.10321  0.84787  1.0000
  C   C493      1.0  0.79859  0.05857  0.84494  1.0000
  Fe  Fe58      1.0  0.93184  0.08285  0.88085  1.0000
  S   S119      1.0  0.89182  0.08399  0.91105  1.0000
  Fe  Fe59      1.0  0.94117  0.07280  0.82902  1.0000
  S   S120      1.0  0.90261  0.06208  0.79483  1.0000
  H   H880      1.0  0.79291  0.06873  0.82875  1.0000
  H   H881      1.0  0.83953  0.08323  0.86315  1.0000
  H   H882      1.0  0.93359  0.05515  0.53253  1.0000
  S   S121      1.0  0.79152  0.08722  0.53494  1.0000
  H   H883      1.0  0.89308  0.09066  0.71215  1.0000
  H   H884      1.0  0.93011  0.13549  0.55642  1.0000
  C   C494      1.0  0.83327  0.04143  0.84195  1.0000
  H   H885      1.0  0.95825  0.12940  0.58422  1.0000
  S   S122      1.0  0.85463  0.02971  0.62509  1.0000
  H   H886      1.0  0.91470  0.27796  0.77634  1.0000
  S   S123      1.0  0.91625  0.17863  0.52475  1.0000
  C   C495      1.0  0.81194  0.07015  0.55866  1.0000
  C   C496      1.0  0.84840  0.07557  0.57233  1.0000
  C   C497      1.0  0.86120  0.06280  0.59240  1.0000
  C   C498      1.0  0.83842  0.04411  0.59869  1.0000
  C   C499      1.0  0.80276  0.03823  0.58458  1.0000
  C   C500      1.0  0.78936  0.05137  0.56489  1.0000
  H   H887      1.0  0.86615  0.08989  0.56774  1.0000
  H   H888      1.0  0.88889  0.06746  0.60314  1.0000
  H   H889      1.0  0.78466  0.02408  0.58931  1.0000
  H   H890      1.0  0.76095  0.04713  0.55457  1.0000
  C   C501      1.0  0.86897  0.06094  0.92421  1.0000
  C   C502      1.0  0.86862  0.03943  0.91446  1.0000
  C   C503      1.0  0.84989  0.02157  0.92540  1.0000
  C   C504      1.0  0.83143  0.02503  0.94619  1.0000
  C   C505      1.0  0.83203  0.04651  0.95602  1.0000
  C   C506      1.0  0.85059  0.06438  0.94501  1.0000
  H   H891      1.0  0.88293  0.03656  0.89857  1.0000
  H   H892      1.0  0.84989  0.00494  0.91785  1.0000
  H   H893      1.0  0.81790  0.04940  0.97200  1.0000
  H   H894      1.0  0.85060  0.08100  0.95263  1.0000
  C   C507      1.0  0.90545  0.03888  0.77527  1.0000
  C   C508      1.0  0.87270  0.03506  0.75789  1.0000
  C   C509      1.0  0.87319  0.01691  0.74205  1.0000
  C   C510      1.0  0.90702  0.00258  0.74291  1.0000
  Fe  Fe60      1.0  0.84379  0.99439  0.63945  1.0000
  C   C511      1.0  0.93868  0.02413  0.77668  1.0000
  H   H895      1.0  0.84667  0.04621  0.75670  1.0000
  H   H896      1.0  0.84744  0.01402  0.72908  1.0000
  S   S124      1.0  0.80873  0.00192  0.95934  1.0000
  Fe  Fe61      1.0  0.95278  0.30472  0.58842  1.0000
  C   C512      1.0  0.97260  0.22442  0.85104  1.0000
  C   C513      1.0  0.94347  0.20704  0.85165  1.0000
  C   C514      1.0  0.95500  0.18418  0.85122  1.0000
  C   C515      1.0  0.61074  0.31018  0.90062  1.0000
  C   C516      1.0  0.93943  0.00616  0.76059  1.0000
  H   H897      1.0  0.93986  0.06233  0.66137  1.0000
  H   H898      1.0  0.91164  0.21129  0.85255  1.0000
  H   H899      1.0  0.93208  0.17117  0.85168  1.0000
  H   H900      1.0  0.91215  0.26792  0.80571  1.0000
  H   H901      1.0  0.92496  0.03643  0.96687  1.0000
  C   C517      1.0  0.91441  0.25122  0.55467  1.0000
  C   C518      1.0  0.88161  0.24321  0.53905  1.0000
  C   C519      1.0  0.88163  0.22126  0.52961  1.0000
  C   C520      1.0  0.91434  0.20674  0.53586  1.0000
  C   C521      1.0  0.94695  0.21464  0.55166  1.0000
  C   C522      1.0  0.94708  0.23667  0.56097  1.0000
  H   H902      1.0  0.85623  0.25426  0.53391  1.0000
  H   H903      1.0  0.85664  0.21576  0.51718  1.0000
  H   H904      1.0  0.94949  0.23650  0.75653  1.0000
  H   H905      1.0  0.63438  0.30693  0.91546  1.0000
  N   N28       1.0  0.50192  0.30315  0.97574  1.0000
  H   H906      1.0  0.94297  0.02822  0.57690  1.0000
  S   S125      1.0  0.89109  0.11659  0.51242  1.0000
  H   H907      1.0  0.75168  0.00523  0.75261  1.0000
  C   C523      1.0  0.96363  0.25493  0.78890  1.0000
  H   H908      1.0  0.87771  0.08391  0.65608  1.0000
  N   N29       1.0  0.82019  0.02068  0.82797  1.0000
  C   C524      1.0  0.78709  0.00978  0.78630  1.0000
  H   H909      1.0  0.88275  0.03385  0.70081  1.0000
  H   H910      1.0  0.93948  0.01622  0.61811  1.0000
  H   H911      1.0  0.96670  0.24085  0.80144  1.0000
  H   H912      1.0  0.90296  0.00412  0.51540  1.0000
  H   H913      1.0  0.90692  0.06856  0.73175  1.0000
  H   H914      1.0  0.88233  0.03598  0.55487  1.0000
  C   C525      1.0  0.91744  0.07818  0.71684  1.0000
  H   H915      1.0  0.91291  0.21105  0.64402  1.0000
  C   C526      1.0  0.88338  0.04932  0.69021  1.0000
  C   C527      1.0  0.85784  0.00795  0.82259  1.0000
  H   H916      1.0  0.75197  0.17806  0.52512  1.0000
  C   C528      1.0  0.97777  0.30490  0.72322  1.0000
  H   H917      1.0  0.56301  0.29151  0.94247  1.0000
  H   H918      1.0  0.90887  0.18553  0.61026  1.0000
  H   H919      1.0  0.94423  0.00263  0.82966  1.0000
  H   H920      1.0  0.72857  0.02398  0.77215  1.0000
  H   H921      1.0  0.87739  0.01886  0.81264  1.0000
  H   H922      1.0  0.77201  0.99535  0.79409  1.0000
  C   C529      1.0  0.95082  0.02471  0.97192  1.0000
  C   C530      1.0  0.88376  0.03151  0.53626  1.0000
  C   C531      1.0  0.84227  0.06123  0.69359  1.0000
  C   C532      1.0  0.96142  0.02543  0.68896  1.0000
  S   S126      1.0  0.95573  0.25301  0.85165  1.0000
  H   H923      1.0  0.96454  0.03046  0.98947  1.0000
  H   H924      1.0  0.61821  0.30046  0.88506  1.0000
  N   N30       1.0  0.92261  0.06236  0.69673  1.0000
  H   H925      1.0  0.84817  0.03714  0.85952  1.0000
  H   H926      1.0  0.78592  0.08770  0.86578  1.0000
  H   H927      1.0  0.95078  0.03932  0.72258  1.0000
  H   H928      1.0  0.73801  0.20139  0.54280  1.0000
  H   H929      1.0  0.85750  0.05061  0.83355  1.0000
  C   C533      1.0  0.97432  0.24787  0.76430  1.0000
  S   S127      1.0  0.97948  0.31455  0.87842  1.0000
  H   H930      1.0  0.75902  0.01090  0.83552  1.0000
  N   N31       1.0  0.83197  0.16829  0.58618  1.0000
  C   C534      1.0  0.81823  0.15150  0.60342  1.0000
  C   C535      1.0  0.84372  0.18998  0.59885  1.0000
  C   C536      1.0  0.79543  0.17317  0.56871  1.0000
  C   C537      1.0  0.86687  0.15980  0.57330  1.0000
  C   C538      1.0  0.89799  0.14365  0.58678  1.0000
  C   C539      1.0  0.79899  0.12955  0.59242  1.0000
  C   C540      1.0  0.80175  0.19107  0.54983  1.0000
  C   C541      1.0  0.88009  0.18915  0.61818  1.0000
  C   C542      1.0  0.90253  0.05114  0.52400  1.0000
  H   H931      1.0  0.85187  0.02931  0.52802  1.0000
  C   C543      1.0  0.79924  0.11069  0.61038  1.0000
  C   C544      1.0  0.76274  0.19421  0.53322  1.0000
  H   H932      1.0  0.79494  0.15920  0.61382  1.0000
  H   H933      1.0  0.84369  0.14682  0.61661  1.0000
  H   H934      1.0  0.85329  0.20276  0.58642  1.0000
  H   H935      1.0  0.81671  0.19709  0.60662  1.0000
  H   H936      1.0  0.76876  0.17847  0.57800  1.0000
  H   H937      1.0  0.78557  0.15774  0.55870  1.0000
  H   H938      1.0  0.85519  0.15073  0.55694  1.0000
  H   H939      1.0  0.88429  0.17429  0.56724  1.0000
  H   H940      1.0  0.76959  0.03710  0.80768  1.0000
  H   H941      1.0  0.94145  0.01403  0.53654  1.0000
  H   H942      1.0  0.76656  0.13259  0.58561  1.0000
  H   H943      1.0  0.81523  0.12363  0.57752  1.0000
  H   H944      1.0  0.82672  0.18585  0.53934  1.0000
  H   H945      1.0  0.80924  0.20779  0.55758  1.0000
  Fe  Fe62      1.0  0.98330  0.28860  0.84973  1.0000
  H   H946      1.0  0.95264  0.11428  0.65249  1.0000
  H   H947      1.0  0.88217  0.04318  0.67182  1.0000
  H   H948      1.0  0.95100  0.29448  0.71902  1.0000
  H   H949      1.0  0.78359  0.09568  0.60210  1.0000
  H   H950      1.0  0.97259  0.20371  0.55660  1.0000
  H   H951      1.0  0.81247  0.06558  0.88212  1.0000
  H   H952      1.0  0.78281  0.11587  0.62551  1.0000
  S   S128      1.0  0.95427  0.31211  0.82192  1.0000
  C   C545      1.0  0.91102  0.99572  0.57570  1.0000
  C   C546      1.0  0.55597  0.27932  0.95600  1.0000
  H   H953      1.0  0.80491  0.03096  0.69258  1.0000
  H   H954      1.0  0.76900  0.20596  0.51902  1.0000
  C   C547      1.0  0.92481  0.98876  0.83531  1.0000
  C   C548      1.0  0.91934  0.26309  0.78788  1.0000
  C   C549      1.0  0.90848  0.00961  0.53404  1.0000
  H   H955      1.0  0.78837  0.02172  0.87472  1.0000
  H   H956      1.0  0.81778  0.04097  0.79661  1.0000
  C   C550      1.0  0.93718  0.14154  0.57467  1.0000
  H   H957      1.0  0.96557  0.99506  0.76170  1.0000
  H   H958      1.0  0.83664  0.00205  0.55395  1.0000
  H   H959      1.0  0.90815  0.99798  0.95912  1.0000
  H   H960      1.0  0.93514  0.09735  0.76114  1.0000
  C   C551      1.0  0.80998  0.07472  0.86524  1.0000
  H   H961      1.0  0.95513  0.05425  0.93482  1.0000
  C   C552      1.0  0.92964  0.00172  0.97488  1.0000
  C   C553      1.0  0.75807  0.01866  0.76595  1.0000
  S   S129      1.0  0.80690  0.14701  0.50440  1.0000
  H   H962      1.0  0.83925  0.06352  0.71256  1.0000
  H   H963      1.0  0.96360  0.06883  0.97605  1.0000
  H   H964      1.0  0.60343  0.25701  0.94595  1.0000
  H   H965      1.0  0.90701  0.14914  0.60496  1.0000
  C   C554      1.0  0.59441  0.26525  0.96203  1.0000
  C   C555      1.0  0.79150  0.00586  0.84016  1.0000
  H   H966      1.0  0.88447  0.12665  0.58763  1.0000
  C   C556      1.0  0.95597  0.09162  0.72668  1.0000
  H   H967      1.0  0.83115  0.10592  0.61662  1.0000
  H   H968      1.0  0.87527  0.17650  0.63171  1.0000
  H   H969      1.0  0.93839  0.01686  0.92547  1.0000
  C   C557      1.0  0.80552  0.04731  0.68346  1.0000
  Fe  Fe63      1.0  0.82355  0.11059  0.51088  1.0000
  H   H970      1.0  0.95299  0.15802  0.57433  1.0000
  C   C558      1.0  0.79861  0.02836  0.80485  1.0000
  H   H971      1.0  0.93365  0.01480  0.68762  1.0000
  H   H972      1.0  0.97285  0.30438  0.76064  1.0000
  H   H973      1.0  0.89372  0.01082  0.85720  1.0000
  H   H974      1.0  0.80671  0.04435  0.66443  1.0000
  H   H975      1.0  0.53166  0.26809  0.94793  1.0000
  H   H976      1.0  0.84004  0.07790  0.68525  1.0000
  H   H977      1.0  0.89733  0.10472  0.67747  1.0000
  H   H978      1.0  0.90236  0.11742  0.63711  1.0000
  C   C559      1.0  0.94975  0.01050  0.58163  1.0000
  H   H979      1.0  0.62026  0.27597  0.96952  1.0000
  H   H980      1.0  0.58852  0.25199  0.97483  1.0000
  H   H981      1.0  0.61708  0.99977  0.98524  1.0000
  C   C560      1.0  0.95610  0.04601  0.70501  1.0000
  H   H982      1.0  0.58068  0.30425  0.90546  1.0000
  Fe  Fe64      1.0  0.87485  0.15273  0.50367  1.0000
  H   H983      1.0  0.89248  0.22515  0.61776  1.0000
  H   H984      1.0  0.77217  0.03308  0.75752  1.0000
  C   C561      1.0  0.90577  0.09227  0.66445  1.0000
  H   H985      1.0  0.97259  0.24246  0.57289  1.0000
  H   H986      1.0  0.95100  0.00043  0.88675  1.0000
  H   H987      1.0  0.90445  0.04726  0.50520  1.0000
  H   H988      1.0  0.56829  0.30422  0.98276  1.0000
  C   C562      1.0  0.88519  0.99810  0.84349  1.0000
  C   C563      1.0  0.54333  0.29183  0.97794  1.0000
  C   C564      1.0  0.48917  0.31182  0.95140  1.0000
  H   H989      1.0  0.98358  0.26902  0.79569  1.0000
  H   H990      1.0  0.92226  0.11954  0.74027  1.0000
  C   C565      1.0  0.93571  0.07447  0.67567  1.0000
  H   H991      1.0  0.97174  0.26345  0.75375  1.0000
  S   S130      1.0  0.98494  0.30340  0.67578  1.0000
  H   H992      1.0  0.97896  0.25460  0.71686  1.0000
  H   H993      1.0  0.84942  0.99327  0.81114  1.0000
  N   N32       1.0  0.89836  0.99081  0.55008  1.0000
  C   C566      1.0  0.92474  0.10508  0.64517  1.0000
  Fe  Fe65      1.0  0.98475  0.11437  0.85373  1.0000
  H   H994      1.0  0.93289  0.09339  0.63126  1.0000
  C   C567      1.0  0.79761  0.00548  0.86739  1.0000
  H   H995      1.0  0.82985  0.00251  0.87417  1.0000
  H   H996      1.0  0.77584  0.98785  0.89674  1.0000
  H   H997      1.0  0.97193  0.99250  0.61341  1.0000
  C   C568      1.0  0.96924  0.01165  0.93324  1.0000
  C   C569      1.0  0.94609  0.10719  0.74656  1.0000
  Fe  Fe66      1.0  0.78003  0.00302  0.99398  1.0000
  S   S131      1.0  0.92554  0.32000  0.61932  1.0000
  H   H998      1.0  0.96633  0.08236  0.67986  1.0000
  H   H999      1.0  0.96538  0.99386  0.93802  1.0000
  C   C570      1.0  0.96394  0.00989  0.60780  1.0000
  Fe  Fe67      1.0  0.98850  0.31813  0.63885  1.0000
  C   C571      1.0  0.98273  0.99599  0.89366  1.0000
  H   H1000     1.0  0.96768  0.10211  0.71289  1.0000
  H   H1001     1.0  0.98065  0.08028  0.73408  1.0000
  H   H1002     1.0  0.54538  0.27971  0.99274  1.0000
  H   H1003     1.0  0.96746  0.03047  0.67107  1.0000
  H   H1004     1.0  0.97413  0.11647  0.75353  1.0000
  H   H1005     1.0  0.97573  0.00513  0.57213  1.0000
  H   H1006     1.0  0.96557  0.09573  0.94304  1.0000
  H   H1007     1.0  0.73856  0.98988  0.87156  1.0000
  N   N33       1.0  0.98223  0.02605  0.95436  1.0000
  C   C572      1.0  0.98377  0.05005  0.94602  1.0000
  H   H1008     1.0  0.98641  0.05456  0.70724  1.0000
  H   H1009     1.0  0.79320  0.98827  0.83375  1.0000
  H   H1010     1.0  0.98865  0.20579  0.77332  1.0000
  H   H1011     1.0  0.48901  0.29832  0.93811  1.0000
  H   H1012     1.0  0.86487  0.31993  0.66310  1.0000
  H   H1013     1.0  0.95171  0.98777  0.97718  1.0000
  H   H1014     1.0  0.59857  0.55864  0.02227  1.0000
  C   C573      1.0  0.86341  0.65293  0.14967  1.0000
  C   C574      1.0  0.52805  0.51736  0.19410  1.0000
  S   S132      1.0  0.69063  0.50301  0.46161  1.0000
  H   H1015     1.0  0.79187  0.58741  0.45485  1.0000
  H   H1016     1.0  0.67040  0.49353  0.02968  1.0000
  H   H1017     1.0  0.74235  0.54367  0.45714  1.0000
  H   H1018     1.0  0.81998  0.51384  0.05977  1.0000
  S   S133      1.0  0.56666  0.42405  0.42627  1.0000
  C   C575      1.0  0.58399  0.52065  0.04727  1.0000
  Fe  Fe68      1.0  0.61126  0.62914  0.06745  1.0000
  S   S134      1.0  0.66767  0.60870  0.07662  1.0000
  S   S135      1.0  0.54684  0.61878  0.07646  1.0000
  S   S136      1.0  0.71516  0.63989  0.04119  1.0000
  Fe  Fe69      1.0  0.67560  0.60861  0.03806  1.0000
  C   C576      1.0  0.58686  0.57975  0.26205  1.0000
  Fe  Fe70      1.0  0.70362  0.64119  0.07916  1.0000
  H   H1019     1.0  0.53647  0.52066  0.08848  1.0000
  S   S137      1.0  0.61778  0.62798  0.02863  1.0000
  S   S138      1.0  0.95169  0.60458  0.43875  1.0000
  C   C577      1.0  0.81676  0.59631  0.02639  1.0000
  C   C578      1.0  0.87652  0.64954  0.10925  1.0000
  H   H1020     1.0  0.79005  0.48107  0.43936  1.0000
  H   H1021     1.0  0.64008  0.55394  0.12598  1.0000
  H   H1022     1.0  0.64535  0.48776  0.05555  1.0000
  H   H1023     1.0  0.87094  0.61282  0.07378  1.0000
  C   C579      1.0  0.54467  0.58821  0.00049  1.0000
  S   S139      1.0  0.52568  0.40492  0.35988  1.0000
  H   H1024     1.0  0.83801  0.51898  0.41801  1.0000
  C   C580      1.0  0.55164  0.60046  0.12145  1.0000
  C   C581      1.0  0.52819  0.60363  0.09999  1.0000
  H   H1025     1.0  0.52700  0.54957  0.21060  1.0000
  H   H1026     1.0  0.85849  0.59729  0.41849  1.0000
  H   H1027     1.0  0.65340  0.54968  0.38302  1.0000
  H   H1028     1.0  0.58237  0.60724  0.12407  1.0000
  C   C582      1.0  0.51753  0.56059  0.25640  1.0000
  C   C583      1.0  0.60287  0.54792  0.09312  1.0000
  H   H1029     1.0  0.78298  0.59534  0.41705  1.0000
  H   H1030     1.0  0.51348  0.57121  0.24041  1.0000
  C   C584      1.0  0.79193  0.54703  0.05813  1.0000
  H   H1031     1.0  0.85076  0.55045  0.07742  1.0000
  C   C585      1.0  0.92634  0.59161  0.46124  1.0000
  C   C586      1.0  0.90472  0.57147  0.45614  1.0000
  H   H1032     1.0  0.88735  0.59110  0.05562  1.0000
  C   C587      1.0  0.81433  0.51335  0.42923  1.0000
  H   H1033     1.0  0.94163  0.61545  0.09530  1.0000
  C   C588      1.0  0.53477  0.58922  0.13989  1.0000
  H   H1034     1.0  0.65642  0.54225  0.49010  1.0000
  C   C589      1.0  0.65593  0.48103  0.45221  1.0000
  C   C590      1.0  0.65692  0.46024  0.46341  1.0000
  C   C591      1.0  0.62924  0.44314  0.45526  1.0000
  C   C592      1.0  0.60034  0.44649  0.43576  1.0000
  C   C593      1.0  0.59907  0.46737  0.42467  1.0000
  C   C594      1.0  0.62669  0.48453  0.43289  1.0000
  H   H1035     1.0  0.67938  0.45722  0.47816  1.0000
  H   H1036     1.0  0.63057  0.42706  0.46397  1.0000
  H   H1037     1.0  0.57697  0.47023  0.40971  1.0000
  H   H1038     1.0  0.62552  0.50055  0.42411  1.0000
  H   H1039     1.0  0.85059  0.55814  0.04781  1.0000
  H   H1040     1.0  0.51083  0.50126  0.19296  1.0000
  H   H1041     1.0  0.68394  0.54830  0.43541  1.0000
  H   H1042     1.0  0.56327  0.59118  0.03713  1.0000
  C   C595      1.0  0.76278  0.57841  0.45693  1.0000
  H   H1043     1.0  0.62779  0.57883  0.10919  1.0000
  C   C596      1.0  0.63630  0.56090  0.10798  1.0000
  H   H1044     1.0  0.82296  0.64736  0.08384  1.0000
  H   H1045     1.0  0.73048  0.55216  0.39114  1.0000
  C   C597      1.0  0.83955  0.59503  0.40148  1.0000
  H   H1046     1.0  0.55300  0.58729  0.15652  1.0000
  H   H1047     1.0  0.68917  0.52622  0.41433  1.0000
  H   H1048     1.0  0.74915  0.51464  0.43074  1.0000
  H   H1049     1.0  0.83448  0.61180  0.39340  1.0000
  C   C598      1.0  0.81268  0.48775  0.42796  1.0000
  H   H1050     1.0  0.64776  0.57178  0.40424  1.0000
  H   H1051     1.0  0.62190  0.50610  0.49397  1.0000
  H   H1052     1.0  0.80328  0.61550  0.05693  1.0000
  C   C599      1.0  0.72844  0.55578  0.41005  1.0000
  H   H1053     1.0  0.81374  0.55031  0.39948  1.0000
  C   C600      1.0  0.80380  0.59751  0.05165  1.0000
  H   H1054     1.0  0.82473  0.51809  0.44747  1.0000
  C   C601      1.0  0.79839  0.58426  0.40524  1.0000
  N   N34       1.0  0.76773  0.54874  0.42407  1.0000
  H   H1055     1.0  0.57483  0.59236  0.27389  1.0000
  H   H1056     1.0  0.73707  0.58675  0.44645  1.0000
  C   C602      1.0  0.59606  0.55744  0.06800  1.0000
  H   H1057     1.0  0.55648  0.34282  0.02931  1.0000
  C   C603      1.0  0.65100  0.55341  0.40180  1.0000
  H   H1058     1.0  0.66600  0.55957  0.10034  1.0000
  C   C604      1.0  0.56695  0.55574  0.02714  1.0000
  H   H1059     1.0  0.54477  0.48838  0.31223  1.0000
  H   H1060     1.0  0.79544  0.54759  0.45995  1.0000
  H   H1061     1.0  0.57615  0.58959  0.99502  1.0000
  H   H1062     1.0  0.61244  0.53015  0.09327  1.0000
  S   S140      1.0  0.69074  0.57302  0.02560  1.0000
  C   C605      1.0  0.94463  0.59711  0.09259  1.0000
  H   H1063     1.0  0.57778  0.54561  0.25141  1.0000
  H   H1064     1.0  0.83087  0.55975  0.42818  1.0000
  C   C606      1.0  0.80411  0.55995  0.41466  1.0000
  C   C607      1.0  0.51371  0.52324  0.07318  1.0000
  H   H1065     1.0  0.84321  0.48075  0.43408  1.0000
  C   C608      1.0  0.76693  0.55353  0.44988  1.0000
  H   H1066     1.0  0.85664  0.58454  0.38974  1.0000
  H   H1067     1.0  0.72371  0.57412  0.41107  1.0000
  H   H1068     1.0  0.90813  0.56725  0.09065  1.0000
  H   H1069     1.0  0.62304  0.54504  0.40704  1.0000
  H   H1070     1.0  0.76462  0.51881  0.40230  1.0000
  H   H1071     1.0  0.62637  0.56028  0.06136  1.0000
  H   H1072     1.0  0.55123  0.54490  0.01313  1.0000
  H   H1073     1.0  0.90468  0.56412  0.43889  1.0000
  C   C609      1.0  0.64077  0.49446  0.03745  1.0000
  H   H1074     1.0  0.55988  0.49414  0.48553  1.0000
  H   H1075     1.0  0.50656  0.57119  0.27044  1.0000
  H   H1076     1.0  0.52946  0.39335  0.46428  1.0000
  H   H1077     1.0  0.52615  0.33406  0.05219  1.0000
  C   C610      1.0  0.83391  0.64869  0.10219  1.0000
  H   H1078     1.0  0.81150  0.52552  0.03056  1.0000
  C   C611      1.0  0.79875  0.52390  0.04770  1.0000
  H   H1079     1.0  0.98279  0.55768  0.43828  1.0000
  C   C612      1.0  0.88391  0.56051  0.47323  1.0000
  H   H1080     1.0  0.52719  0.52451  0.17621  1.0000
  H   H1081     1.0  0.50746  0.36353  0.29744  1.0000
  H   H1082     1.0  0.50135  0.40611  0.48624  1.0000
  C   C613      1.0  0.52281  0.50233  0.30829  1.0000
  C   C614      1.0  0.52031  0.46562  0.48197  1.0000
  H   H1083     1.0  0.78020  0.57300  0.49411  1.0000
  H   H1084     1.0  0.56932  0.55154  0.28154  1.0000
  C   C615      1.0  0.82078  0.65214  0.14260  1.0000
  C   C616      1.0  0.50705  0.52402  0.23492  1.0000
  C   C617      1.0  0.90297  0.58551  0.09235  1.0000
  C   C618      1.0  0.52384  0.50973  0.28289  1.0000
  H   H1085     1.0  0.86844  0.54478  0.46921  1.0000
  C   C619      1.0  0.62645  0.51881  0.03770  1.0000
  C   C620      1.0  0.54594  0.57903  0.02538  1.0000
  H   H1086     1.0  0.55497  0.51600  0.28089  1.0000
  Fe  Fe71      1.0  0.51725  0.41947  0.39536  1.0000
  C   C621      1.0  0.83287  0.55993  0.06325  1.0000
  H   H1087     1.0  0.56049  0.51413  0.20067  1.0000
  C   C622      1.0  0.81359  0.58665  0.09368  1.0000
  H   H1088     1.0  0.53146  0.51644  0.32047  1.0000
  H   H1089     1.0  0.89169  0.58878  0.10963  1.0000
  H   H1090     1.0  0.62480  0.52488  0.01939  1.0000
  H   H1091     1.0  0.96583  0.59049  0.10725  1.0000
  H   H1092     1.0  0.70792  0.52808  0.01113  1.0000
  C   C623      1.0  0.76662  0.58876  0.09418  1.0000
  C   C624      1.0  0.75471  0.58719  0.11920  1.0000
  H   H1093     1.0  0.52321  0.46402  0.46290  1.0000
  H   H1094     1.0  0.61800  0.48388  0.02680  1.0000
  C   C625      1.0  0.52498  0.54332  0.05781  1.0000
  N   N35       1.0  0.82980  0.58429  0.06999  1.0000
  H   H1095     1.0  0.77126  0.59214  0.05031  1.0000
  H   H1096     1.0  0.82446  0.57253  0.10531  1.0000
  H   H1097     1.0  0.82609  0.60211  0.10278  1.0000
  C   C626      1.0  0.78785  0.60989  0.00937  1.0000
  H   H1098     1.0  0.61994  0.57722  0.26759  1.0000
  C   C627      1.0  0.52518  0.33802  0.03326  1.0000
  H   H1099     1.0  0.56182  0.51120  0.03492  1.0000
  H   H1100     1.0  0.94368  0.61601  0.48813  1.0000
  H   H1101     1.0  0.77774  0.54436  0.07464  1.0000
  C   C628      1.0  0.56397  0.55748  0.26321  1.0000
  H   H1102     1.0  0.53710  0.40096  0.30766  1.0000
  H   H1103     1.0  0.51190  0.50755  0.06262  1.0000
  C   C629      1.0  0.50079  0.37748  0.28490  1.0000
  H   H1104     1.0  0.75666  0.60540  0.08719  1.0000
  H   H1105     1.0  0.74922  0.57584  0.08347  1.0000
  H   H1106     1.0  0.72131  0.59006  0.11926  1.0000
  H   H1107     1.0  0.76213  0.57036  0.12662  1.0000
  H   H1108     1.0  0.77107  0.60021  0.13050  1.0000
  C   C630      1.0  0.87250  0.59424  0.07189  1.0000
  C   C631      1.0  0.53569  0.39445  0.28945  1.0000
  S   S141      1.0  0.80651  0.49864  0.49160  1.0000
  H   H1109     1.0  0.58375  0.58631  0.24387  1.0000
  C   C632      1.0  0.75494  0.58074  0.48259  1.0000
  H   H1110     1.0  0.58367  0.57456  0.07005  1.0000
  N   N36       1.0  0.56816  0.54410  0.05056  1.0000
  H   H1111     1.0  0.58583  0.51102  0.06380  1.0000
  H   H1112     1.0  0.65015  0.52860  0.04852  1.0000
  H   H1113     1.0  0.57431  0.54962  0.10184  1.0000
  C   C633      1.0  0.68854  0.54465  0.41690  1.0000
  H   H1114     1.0  0.77941  0.58395  0.38807  1.0000
  H   H1115     1.0  0.80409  0.48202  0.40969  1.0000
  H   H1116     1.0  0.77019  0.55597  0.04547  1.0000
  C   C634      1.0  0.77183  0.52365  0.42104  1.0000
  H   H1117     1.0  0.50440  0.35251  0.02949  1.0000
  H   H1118     1.0  0.76902  0.51486  0.04476  1.0000
  C   C635      1.0  0.92714  0.60058  0.48385  1.0000
  H   H1119     1.0  0.56535  0.38626  0.28709  1.0000
  H   H1120     1.0  0.75596  0.60346  0.00895  1.0000
  H   H1121     1.0  0.48914  0.53945  0.29056  1.0000
  H   H1122     1.0  0.49177  0.49623  0.31134  1.0000
  H   H1123     1.0  0.51803  0.55916  0.06701  1.0000
  C   C636      1.0  0.50869  0.53390  0.21011  1.0000
  H   H1124     1.0  0.53808  0.51757  0.24058  1.0000
  H   H1125     1.0  0.51886  0.49460  0.27163  1.0000
  H   H1126     1.0  0.95826  0.59401  0.07594  1.0000
  H   H1127     1.0  0.79938  0.65305  0.15573  1.0000
  S   S142      1.0  0.75115  0.64823  0.11119  1.0000
  H   H1128     1.0  0.49600  0.51110  0.00846  1.0000
  Fe  Fe72      1.0  0.73836  0.50146  0.49345  1.0000
  C   C637      1.0  0.89176  0.65145  0.13305  1.0000
  C   C638      1.0  0.68399  0.55958  0.99756  1.0000
  H   H1129     1.0  0.58504  0.46740  0.49028  1.0000
  H   H1130     1.0  0.84796  0.60324  0.02557  1.0000
  H   H1131     1.0  0.78857  0.62788  0.01446  1.0000
  C   C639      1.0  0.80556  0.64977  0.11884  1.0000
  H   H1132     1.0  0.81594  0.57877  0.01987  1.0000
  H   H1133     1.0  0.53137  0.40875  0.27711  1.0000
  C   C640      1.0  0.48993  0.52726  0.27587  1.0000
  N   N37       1.0  0.49192  0.53957  0.25298  1.0000
  H   H1134     1.0  0.51749  0.44850  0.48915  1.0000
  C   C641      1.0  0.55819  0.47750  0.49394  1.0000
  H   H1135     1.0  0.89792  0.64880  0.09613  1.0000
  H   H1136     1.0  0.98825  0.56895  0.48257  1.0000
  H   H1137     1.0  0.51402  0.57842  0.03013  1.0000
  H   H1138     1.0  0.53086  0.60521  0.99987  1.0000
  C   C642      1.0  0.49836  0.39793  0.46875  1.0000
  S   S143      1.0  0.94619  0.65110  0.14083  1.0000
  H   H1139     1.0  0.72544  0.57266  0.48570  1.0000
  C   C643      1.0  0.69517  0.53688  0.99567  1.0000
  H   H1140     1.0  0.50212  0.54245  0.04210  1.0000
  H   H1141     1.0  0.50162  0.37106  0.26682  1.0000
  C   C644      1.0  0.49444  0.58076  0.13711  1.0000
  H   H1142     1.0  0.75341  0.59876  0.48733  1.0000
  H   H1143     1.0  0.49210  0.47527  0.48435  1.0000
  H   H1144     1.0  0.49045  0.45133  0.26055  1.0000
  H   H1145     1.0  0.87427  0.65419  0.16804  1.0000
  H   H1146     1.0  0.54220  0.48116  0.99467  1.0000
  S   S144      1.0  0.81684  0.50406  0.54924  1.0000
  C   C645      1.0  0.72441  0.36274  0.86686  1.0000
  Fe  Fe73      1.0  0.74791  0.50681  0.54671  1.0000
  S   S145      1.0  0.70675  0.50618  0.57649  1.0000
  H   H1147     1.0  0.90889  0.43709  0.84453  1.0000
  Fe  Fe74      1.0  0.71272  0.44663  0.88890  1.0000
  S   S146      1.0  0.65708  0.43805  0.86436  1.0000
  S   S147      1.0  0.76433  0.42023  0.89680  1.0000
  Fe  Fe75      1.0  0.67120  0.48990  0.90537  1.0000
  S   S148      1.0  0.61345  0.48303  0.88145  1.0000
  S   S149      1.0  0.66798  0.52346  0.92539  1.0000
  Fe  Fe76      1.0  0.61970  0.44736  0.89376  1.0000
  S   S150      1.0  0.56170  0.42697  0.89903  1.0000
  Fe  Fe77      1.0  0.65475  0.47454  0.85377  1.0000
  S   S151      1.0  0.63641  0.48040  0.81429  1.0000
  S   S152      1.0  0.67492  0.45447  0.91913  1.0000
  S   S153      1.0  0.71301  0.48290  0.87685  1.0000
  H   H1148     1.0  0.98148  0.46586  0.55883  1.0000
  H   H1149     1.0  0.60156  0.34421  0.91113  1.0000
  Fe  Fe78      1.0  0.94462  0.35361  0.60672  1.0000
  S   S154      1.0  0.90728  0.38528  0.61094  1.0000
  H   H1150     1.0  0.97856  0.40326  0.58278  1.0000
  Fe  Fe79      1.0  0.95509  0.33871  0.85018  1.0000
  H   H1151     1.0  0.53692  0.51596  0.97300  1.0000
  S   S155      1.0  0.90428  0.36609  0.84816  1.0000
  H   H1152     1.0  0.90638  0.59697  0.51821  1.0000
  Fe  Fe80      1.0  0.59686  0.58404  0.65914  1.0000
  S   S156      1.0  0.53209  0.59250  0.64584  1.0000
  S   S157      1.0  0.64940  0.58828  0.63655  1.0000
  Fe  Fe81      1.0  0.57480  0.57286  0.70869  1.0000
  H   H1153     1.0  0.57731  0.52192  0.52658  1.0000
  S   S158      1.0  0.60727  0.56482  0.74516  1.0000
  N   N38       1.0  0.94453  0.38164  0.69432  1.0000
  Fe  Fe82      1.0  0.53012  0.61128  0.68011  1.0000
  S   S159      1.0  0.58017  0.55226  0.67640  1.0000
  S   S160      1.0  0.59610  0.60457  0.69203  1.0000
  H   H1154     1.0  0.87856  0.37770  0.68778  1.0000
  Fe  Fe83      1.0  0.80601  0.47606  0.52306  1.0000
  H   H1155     1.0  0.52946  0.37310  0.86289  1.0000
  S   S161      1.0  0.73757  0.47690  0.52269  1.0000
  H   H1156     1.0  0.60131  0.49395  0.98031  1.0000
  C   C646      1.0  0.62645  0.50442  0.79595  1.0000
  C   C647      1.0  0.60550  0.50154  0.77344  1.0000
  C   C648      1.0  0.59818  0.51982  0.75794  1.0000
  C   C649      1.0  0.61269  0.54127  0.76449  1.0000
  C   C650      1.0  0.63376  0.54412  0.78694  1.0000
  C   C651      1.0  0.64030  0.52594  0.80262  1.0000
  H   H1157     1.0  0.59470  0.48500  0.76799  1.0000
  H   H1158     1.0  0.58180  0.51726  0.74087  1.0000
  H   H1159     1.0  0.64520  0.56057  0.79229  1.0000
  H   H1160     1.0  0.65668  0.52852  0.81973  1.0000
  C   C652      1.0  0.54003  0.41383  0.92277  1.0000
  C   C653      1.0  0.90533  0.34615  0.67809  1.0000
  H   H1161     1.0  0.93086  0.34307  0.75485  1.0000
  C   C654      1.0  0.80344  0.40569  0.88283  1.0000
  C   C655      1.0  0.82598  0.38861  0.89520  1.0000
  C   C656      1.0  0.85626  0.37613  0.88488  1.0000
  C   C657      1.0  0.86500  0.38063  0.86196  1.0000
  C   C658      1.0  0.84263  0.39779  0.84963  1.0000
  C   C659      1.0  0.81215  0.41018  0.85990  1.0000
  H   H1162     1.0  0.81968  0.38483  0.91290  1.0000
  H   H1163     1.0  0.87278  0.36301  0.89467  1.0000
  H   H1164     1.0  0.84894  0.40157  0.83193  1.0000
  H   H1165     1.0  0.79532  0.42317  0.85001  1.0000
  C   C660      1.0  0.67470  0.53670  0.95358  1.0000
  C   C661      1.0  0.66370  0.55940  0.95551  1.0000
  C   C662      1.0  0.66798  0.57073  0.97731  1.0000
  H   H1166     1.0  0.59505  0.44029  0.52559  1.0000
  C   C663      1.0  0.90695  0.37202  0.68046  1.0000
  C   C664      1.0  0.69034  0.52546  0.97391  1.0000
  H   H1167     1.0  0.65208  0.56842  0.93994  1.0000
  H   H1168     1.0  0.67493  0.33696  0.89768  1.0000
  H   H1169     1.0  0.69941  0.50811  0.97279  1.0000
  C   C665      1.0  0.69091  0.52945  0.59255  1.0000
  C   C666      1.0  0.70568  0.55113  0.58944  1.0000
  C   C667      1.0  0.69271  0.56902  0.60301  1.0000
  C   C668      1.0  0.66453  0.56545  0.61955  1.0000
  C   C669      1.0  0.64958  0.54377  0.62250  1.0000
  C   C670      1.0  0.66294  0.52586  0.60918  1.0000
  H   H1170     1.0  0.72736  0.55408  0.57677  1.0000
  H   H1171     1.0  0.70452  0.58569  0.60061  1.0000
  H   H1172     1.0  0.62789  0.54075  0.63512  1.0000
  H   H1173     1.0  0.65169  0.50911  0.61183  1.0000
  C   C671      1.0  0.85773  0.42721  0.54718  1.0000
  C   C672      1.0  0.87547  0.40615  0.54405  1.0000
  C   C673      1.0  0.89043  0.39309  0.56341  1.0000
  C   C674      1.0  0.88785  0.40101  0.58616  1.0000
  C   C675      1.0  0.87007  0.42208  0.58934  1.0000
  C   C676      1.0  0.85508  0.43516  0.56994  1.0000
  H   H1174     1.0  0.90381  0.37686  0.56071  1.0000
  H   H1175     1.0  0.86790  0.42833  0.60687  1.0000
  H   H1176     1.0  0.84152  0.45137  0.57257  1.0000
  H   H1177     1.0  0.52479  0.51358  0.59956  1.0000
  H   H1178     1.0  0.94513  0.49387  0.53147  1.0000
  N   N39       1.0  0.70600  0.52427  0.70404  1.0000
  C   C677      1.0  0.72587  0.50913  0.72287  1.0000
  C   C678      1.0  0.72729  0.52145  0.68206  1.0000
  C   C679      1.0  0.71289  0.54820  0.71242  1.0000
  C   C680      1.0  0.66045  0.52018  0.69902  1.0000
  C   C681      1.0  0.64455  0.49592  0.70226  1.0000
  C   C682      1.0  0.71239  0.51314  0.74774  1.0000
  C   C683      1.0  0.69985  0.56682  0.69439  1.0000
  C   C684      1.0  0.72434  0.49808  0.67023  1.0000
  C   C685      1.0  0.75033  0.49713  0.64956  1.0000
  C   C686      1.0  0.60008  0.49330  0.69176  1.0000
  C   C687      1.0  0.72163  0.49300  0.76373  1.0000
  C   C688      1.0  0.70082  0.58991  0.70606  1.0000
  H   H1179     1.0  0.75980  0.51120  0.72433  1.0000
  H   H1180     1.0  0.72066  0.49122  0.71830  1.0000
  H   H1181     1.0  0.71419  0.53305  0.66814  1.0000
  H   H1182     1.0  0.76031  0.52603  0.68565  1.0000
  H   H1183     1.0  0.74585  0.55105  0.71850  1.0000
  H   H1184     1.0  0.69575  0.55150  0.72790  1.0000
  H   H1185     1.0  0.64292  0.53092  0.71042  1.0000
  H   H1186     1.0  0.65024  0.52538  0.68078  1.0000
  H   H1187     1.0  0.64561  0.49182  0.72116  1.0000
  H   H1188     1.0  0.66290  0.48319  0.69400  1.0000
  H   H1189     1.0  0.72897  0.52787  0.75602  1.0000
  H   H1190     1.0  0.67922  0.51671  0.74701  1.0000
  H   H1191     1.0  0.66845  0.56380  0.68592  1.0000
  H   H1192     1.0  0.72122  0.56759  0.68059  1.0000
  H   H1193     1.0  0.73515  0.48460  0.68254  1.0000
  H   H1194     1.0  0.69223  0.49466  0.66306  1.0000
  H   H1195     1.0  0.74660  0.48051  0.64080  1.0000
  H   H1196     1.0  0.74050  0.51019  0.63643  1.0000
  H   H1197     1.0  0.78326  0.49962  0.65561  1.0000
  H   H1198     1.0  0.59741  0.49628  0.67257  1.0000
  H   H1199     1.0  0.58917  0.47604  0.69488  1.0000
  H   H1200     1.0  0.57996  0.50529  0.69999  1.0000
  H   H1201     1.0  0.75477  0.48890  0.76512  1.0000
  H   H1202     1.0  0.71302  0.49695  0.78153  1.0000
  H   H1203     1.0  0.70344  0.47818  0.75702  1.0000
  H   H1204     1.0  0.69225  0.60285  0.69260  1.0000
  H   H1205     1.0  0.67866  0.59060  0.71947  1.0000
  H   H1206     1.0  0.73202  0.59378  0.71447  1.0000
  H   H1207     1.0  0.52374  0.50221  0.55831  1.0000
  H   H1208     1.0  0.52590  0.57719  0.98798  1.0000
  H   H1209     1.0  0.60626  0.38379  0.83818  1.0000
  H   H1210     1.0  0.54288  0.46464  0.52735  1.0000
  C   C689      1.0  0.54114  0.40294  0.96369  1.0000
  H   H1211     1.0  0.61586  0.44402  0.55569  1.0000
  C   C690      1.0  0.60898  0.48172  0.96684  1.0000
  C   C691      1.0  0.53685  0.53137  0.92277  1.0000
  H   H1212     1.0  0.96046  0.40748  0.54414  1.0000
  H   H1213     1.0  0.95354  0.45237  0.69192  1.0000
  H   H1214     1.0  0.93574  0.34079  0.91460  1.0000
  H   H1215     1.0  0.97118  0.45577  0.93600  1.0000
  H   H1216     1.0  0.95865  0.33937  0.94442  1.0000
  H   H1217     1.0  0.92477  0.36222  0.93547  1.0000
  C   C692      1.0  0.92996  0.44524  0.67868  1.0000
  H   H1218     1.0  0.52916  0.33457  0.98865  1.0000
  H   H1219     1.0  0.83872  0.34307  0.67534  1.0000
  H   H1220     1.0  0.51129  0.32182  0.90628  1.0000
  H   H1221     1.0  0.72998  0.35379  0.83040  1.0000
  C   C693      1.0  0.55395  0.50401  0.56866  1.0000
  H   H1222     1.0  0.55899  0.63933  0.64450  1.0000
  C   C694      1.0  0.97405  0.37977  0.90194  1.0000
  S   S162      1.0  0.96684  0.33900  0.57429  1.0000
  H   H1223     1.0  0.93058  0.45481  0.66216  1.0000
  C   C695      1.0  0.56027  0.41302  0.94538  1.0000
  C   C696      1.0  0.65886  0.43279  0.53266  1.0000
  C   C697      1.0  0.56323  0.51181  0.93379  1.0000
  H   H1224     1.0  0.66620  0.36513  0.84650  1.0000
  H   H1225     1.0  0.94227  0.38572  0.90269  1.0000
  C   C698      1.0  0.93837  0.40655  0.69692  1.0000
  H   H1226     1.0  0.93352  0.52987  0.55018  1.0000
  H   H1227     1.0  0.96361  0.43105  0.59103  1.0000
  H   H1228     1.0  0.65780  0.63963  0.70575  1.0000
  C   C699      1.0  0.88382  0.56975  0.49564  1.0000
  C   C700      1.0  0.86462  0.33845  0.66525  1.0000
  H   H1229     1.0  0.62056  0.38414  0.92421  1.0000
  C   C701      1.0  0.63051  0.46170  0.97913  1.0000
  H   H1230     1.0  0.87755  0.39983  0.52651  1.0000
  C   C702      1.0  0.98561  0.36454  0.92344  1.0000
  H   H1231     1.0  0.97928  0.54103  0.56622  1.0000
  N   N40       1.0  0.65358  0.36855  0.88271  1.0000
  C   C703      1.0  0.67469  0.37937  0.90455  1.0000
  C   C704      1.0  0.68043  0.37255  0.86318  1.0000
  C   C705      1.0  0.64871  0.34356  0.88586  1.0000
  C   C706      1.0  0.95133  0.37137  0.71838  1.0000
  C   C707      1.0  0.65237  0.37784  0.92700  1.0000
  C   C708      1.0  0.67448  0.39175  0.94684  1.0000
  H   H1232     1.0  0.90846  0.40988  0.70383  1.0000
  H   H1233     1.0  0.69527  0.63776  0.59022  1.0000
  H   H1234     1.0  0.70524  0.37176  0.90932  1.0000
  H   H1235     1.0  0.68070  0.39745  0.90119  1.0000
  H   H1236     1.0  0.68344  0.39086  0.85989  1.0000
  H   H1237     1.0  0.74661  0.38199  0.83844  1.0000
  C   C709      1.0  0.91446  0.37230  0.73327  1.0000
  S   S163      1.0  0.74489  0.53166  0.51733  1.0000
  H   H1238     1.0  0.96251  0.43952  0.84032  1.0000
  N   N41       1.0  0.54010  0.49279  0.94390  1.0000
  C   C710      1.0  0.97840  0.54271  0.52819  1.0000
  H   H1239     1.0  0.65221  0.36024  0.93314  1.0000
  H   H1240     1.0  0.67452  0.40975  0.94202  1.0000
  H   H1241     1.0  0.65845  0.38999  0.96288  1.0000
  H   H1242     1.0  0.70664  0.38604  0.95076  1.0000
  C   C711      1.0  0.56302  0.55206  0.91919  1.0000
  H   H1243     1.0  0.63114  0.48987  0.95613  1.0000
  C   C712      1.0  0.60531  0.51148  0.53020  1.0000
  H   H1244     1.0  0.95099  0.43738  0.88247  1.0000
  C   C713      1.0  0.55506  0.48050  0.52054  1.0000
  H   H1245     1.0  0.59061  0.42015  0.94875  1.0000
  H   H1246     1.0  0.59241  0.35648  0.84799  1.0000
  H   H1247     1.0  0.50861  0.34705  0.95275  1.0000
  H   H1248     1.0  0.59150  0.37729  0.88957  1.0000
  H   H1249     1.0  0.56507  0.52143  0.56671  1.0000
  H   H1250     1.0  0.65629  0.47743  0.54429  1.0000
  H   H1251     1.0  0.90425  0.37849  0.66223  1.0000
  H   H1252     1.0  0.92991  0.34030  0.66771  1.0000
  H   H1253     1.0  0.90275  0.47662  0.53847  1.0000
  C   C714      1.0  0.98876  0.41291  0.53665  1.0000
  H   H1254     1.0  0.66436  0.50928  0.51574  1.0000
  H   H1255     1.0  0.93641  0.42242  0.91660  1.0000
  H   H1256     1.0  0.62296  0.51917  0.54590  1.0000
  H   H1257     1.0  0.57617  0.50325  0.60581  1.0000
  H   H1258     1.0  0.68621  0.43827  0.54430  1.0000
  H   H1259     1.0  0.65036  0.33461  0.86889  1.0000
  C   C715      1.0  0.92497  0.36122  0.75709  1.0000
  H   H1260     1.0  0.77797  0.35837  0.84798  1.0000
  H   H1261     1.0  0.49920  0.46884  0.97776  1.0000
  H   H1262     1.0  0.64424  0.63746  0.62790  1.0000
  C   C716      1.0  0.50914  0.48406  0.92473  1.0000
  H   H1263     1.0  0.97208  0.36861  0.88624  1.0000
  Fe  Fe84      1.0  0.81324  0.52691  0.51765  1.0000
  H   H1264     1.0  0.53164  0.37816  0.83208  1.0000
  C   C717      1.0  0.63290  0.51523  0.51014  1.0000
  S   S164      1.0  0.84077  0.44320  0.52215  1.0000
  C   C718      1.0  0.93872  0.42055  0.67416  1.0000
  H   H1265     1.0  0.94089  0.55966  0.55208  1.0000
  H   H1266     1.0  0.94478  0.44374  0.55691  1.0000
  H   H1267     1.0  0.74468  0.64472  0.60522  1.0000
  H   H1268     1.0  0.54377  0.56532  0.91016  1.0000
  H   H1269     1.0  0.91516  0.41452  0.66034  1.0000
  C   C719      1.0  0.92565  0.47927  0.52573  1.0000
  C   C720      1.0  0.96608  0.44027  0.94600  1.0000
  H   H1270     1.0  0.74333  0.37222  0.88060  1.0000
  C   C721      1.0  0.90590  0.58973  0.50087  1.0000
  H   H1271     1.0  0.65946  0.58819  0.97833  1.0000
  H   H1272     1.0  0.49940  0.63440  0.61572  1.0000
  H   H1273     1.0  0.71188  0.62504  0.61813  1.0000
  C   C722      1.0  0.57048  0.47440  0.95065  1.0000
  C   C723      1.0  0.51499  0.65097  0.61716  1.0000
  C   C724      1.0  0.95690  0.54340  0.55060  1.0000
  C   C725      1.0  0.61333  0.38031  0.87637  1.0000
  H   H1274     1.0  0.95248  0.36912  0.76667  1.0000
  H   H1275     1.0  0.93705  0.44218  0.95423  1.0000
  H   H1276     1.0  0.57652  0.55879  0.93632  1.0000
  H   H1277     1.0  0.96116  0.35361  0.71723  1.0000
  C   C726      1.0  0.51924  0.50168  0.96438  1.0000
  H   H1278     1.0  0.58177  0.46689  0.93466  1.0000
  C   C727      1.0  0.97103  0.45071  0.54842  1.0000
  C   C728      1.0  0.98133  0.37672  0.68142  1.0000
  H   H1279     1.0  0.58197  0.50543  0.92009  1.0000
  H   H1280     1.0  0.58561  0.51937  0.94749  1.0000
  C   C729      1.0  0.58519  0.48662  0.56082  1.0000
  C   C730      1.0  0.60846  0.33522  0.89513  1.0000
  H   H1281     1.0  0.55580  0.46019  0.95900  1.0000
  H   H1282     1.0  0.89891  0.36302  0.76789  1.0000
  C   C731      1.0  0.59124  0.37467  0.85188  1.0000
  H   H1283     1.0  0.72416  0.34486  0.87206  1.0000
  H   H1284     1.0  0.58207  0.33770  0.88173  1.0000
  H   H1285     1.0  0.61796  0.39875  0.87688  1.0000
  C   C732      1.0  0.54642  0.38202  0.84990  1.0000
  H   H1286     1.0  0.63892  0.47294  0.51462  1.0000
  H   H1287     1.0  0.97553  0.46249  0.51193  1.0000
  H   H1288     1.0  0.92443  0.41111  0.87709  1.0000
  C   C733      1.0  0.94964  0.42170  0.87195  1.0000
  H   H1289     1.0  0.65289  0.41486  0.53621  1.0000
  H   H1290     1.0  0.53031  0.49296  0.52196  1.0000
  H   H1291     1.0  0.97725  0.37985  0.72892  1.0000
  H   H1292     1.0  0.54435  0.40039  0.85291  1.0000
  H   H1293     1.0  0.89918  0.44721  0.68490  1.0000
  H   H1294     1.0  0.57324  0.46985  0.56514  1.0000
  H   H1295     1.0  0.55713  0.40237  0.98110  1.0000
  S   S165      1.0  0.85793  0.55673  0.51790  1.0000
  H   H1296     1.0  0.96170  0.41378  0.71029  1.0000
  H   H1297     1.0  0.88741  0.36341  0.72447  1.0000
  H   H1298     1.0  0.64867  0.54981  0.51977  1.0000
  N   N42       1.0  0.59361  0.48757  0.53539  1.0000
  H   H1299     1.0  0.62000  0.64309  0.66368  1.0000
  C   C734      1.0  0.62900  0.47200  0.53249  1.0000
  H   H1300     1.0  0.90882  0.33770  0.69533  1.0000
  C   C735      1.0  0.50073  0.40417  0.91872  1.0000
  S   S166      1.0  0.49857  0.64589  0.67858  1.0000
  H   H1301     1.0  0.53444  0.48399  0.59737  1.0000
  C   C736      1.0  0.62151  0.44681  0.53721  1.0000
  H   H1302     1.0  0.69249  0.64662  0.66968  1.0000
  H   H1303     1.0  0.66546  0.43434  0.51412  1.0000
  H   H1304     1.0  0.61429  0.48901  0.57245  1.0000
  H   H1305     1.0  0.86000  0.34612  0.64756  1.0000
  H   H1306     1.0  0.95416  0.54347  0.51326  1.0000
  H   H1307     1.0  0.93221  0.44487  0.51553  1.0000
  C   C737      1.0  0.74588  0.36434  0.84449  1.0000
  C   C738      1.0  0.54707  0.50093  0.59441  1.0000
  H   H1308     1.0  0.90582  0.38992  0.73652  1.0000
  H   H1309     1.0  0.58807  0.54786  0.90825  1.0000
  H   H1310     1.0  0.49807  0.45066  0.93958  1.0000
  C   C739      1.0  0.96299  0.41988  0.92972  1.0000
  H   H1311     1.0  0.96900  0.41972  0.66718  1.0000
  H   H1312     1.0  0.52515  0.47829  0.90951  1.0000
  Fe  Fe85      1.0  0.51492  0.56190  0.66527  1.0000
  C   C740      1.0  0.93877  0.42823  0.84637  1.0000
  H   H1313     1.0  0.98641  0.35832  0.68045  1.0000
  H   H1314     1.0  0.97888  0.41623  0.51787  1.0000
  H   H1315     1.0  0.93588  0.41303  0.83506  1.0000
  H   H1316     1.0  0.61016  0.45341  0.99084  1.0000
  S   S167      1.0  0.50793  0.58082  0.69891  1.0000
  C   C741      1.0  0.94883  0.35093  0.92983  1.0000
  H   H1317     1.0  0.63944  0.44933  0.96608  1.0000
  C   C742      1.0  0.55943  0.64798  0.62750  1.0000
  H   H1318     1.0  0.57454  0.63686  0.61547  1.0000
  H   H1319     1.0  0.96787  0.36823  0.53283  1.0000
  H   H1320     1.0  0.60520  0.54677  0.49780  1.0000
  C   C743      1.0  0.51259  0.48496  0.98439  1.0000
  C   C744      1.0  0.95206  0.45840  0.52385  1.0000
  H   H1321     1.0  0.97567  0.38216  0.66285  1.0000
  C   C745      1.0  0.71234  0.64068  0.60769  1.0000
  H   H1322     1.0  0.95599  0.40514  0.94036  1.0000
  H   H1323     1.0  0.79748  0.60847  0.99142  1.0000
  C   C746      1.0  0.50444  0.33648  0.91717  1.0000
  C   C747      1.0  0.63584  0.54009  0.50416  1.0000
  H   H1324     1.0  0.54842  0.32821  0.94644  1.0000
  C   C748      1.0  0.50386  0.32301  0.99226  1.0000
  H   H1325     1.0  0.51265  0.53632  0.93392  1.0000
  H   H1326     1.0  0.52263  0.35109  0.91207  1.0000
  C   C749      1.0  0.50142  0.39373  0.95975  1.0000
  H   H1327     1.0  0.90894  0.48307  0.50841  1.0000
  H   H1328     1.0  0.52213  0.52631  0.90525  1.0000
  C   C750      1.0  0.51512  0.33155  0.94316  1.0000
  H   H1329     1.0  0.65871  0.46750  0.98978  1.0000
  H   H1330     1.0  0.98636  0.40949  0.62557  1.0000
  H   H1331     1.0  0.49051  0.50674  0.72746  1.0000
  S   S168      1.0  0.68363  0.94363  0.02495  1.0000
  H   H1332     1.0  0.74278  0.85007  0.07905  1.0000
  H   H1333     1.0  0.95199  0.72040  0.37052  1.0000
  H   H1334     1.0  0.91114  0.71361  0.21557  1.0000
  H   H1335     1.0  0.86277  0.91885  0.09601  1.0000
  S   S169      1.0  0.92881  0.91464  0.13237  1.0000
  H   H1336     1.0  0.73698  0.98554  0.13991  1.0000
  H   H1337     1.0  0.97130  0.78090  0.35059  1.0000
  H   H1338     1.0  0.77126  0.83737  0.05724  1.0000
  H   H1339     1.0  0.70332  0.75933  0.05206  1.0000
  H   H1340     1.0  0.52635  0.87675  0.00576  1.0000
  H   H1341     1.0  0.94181  0.76747  0.16795  1.0000
  H   H1342     1.0  0.88698  0.98600  0.99642  1.0000
  C   C751      1.0  0.50578  0.88962  0.01211  1.0000
  H   H1343     1.0  0.59695  0.71502  0.03230  1.0000
  H   H1344     1.0  0.94543  0.69953  0.33374  1.0000
  C   C752      1.0  0.70702  0.75686  0.03321  1.0000
  H   H1345     1.0  0.55258  0.83274  0.05142  1.0000
  H   H1346     1.0  0.93285  0.69808  0.14523  1.0000
  C   C753      1.0  0.58177  0.74421  0.01069  1.0000
  S   S170      1.0  0.64575  0.66211  0.07259  1.0000
  C   C754      1.0  0.90800  0.93845  0.11700  1.0000
  C   C755      1.0  0.92347  0.96009  0.12155  1.0000
  H   H1347     1.0  0.80373  0.71908  0.07669  1.0000
  C   C756      1.0  0.60121  0.72342  0.01606  1.0000
  C   C757      1.0  0.85798  0.95385  0.08669  1.0000
  C   C758      1.0  0.87502  0.93550  0.09962  1.0000
  H   H1348     1.0  0.94832  0.96262  0.13517  1.0000
  H   H1349     1.0  0.96293  0.90333  0.08495  1.0000
  C   C759      1.0  0.94834  0.71454  0.11437  1.0000
  C   C760      1.0  0.70418  0.83110  0.02345  1.0000
  H   H1350     1.0  0.59404  0.80419  0.03317  1.0000
  H   H1351     1.0  0.73531  0.74700  0.03170  1.0000
  H   H1352     1.0  0.83276  0.95126  0.07329  1.0000
  H   H1353     1.0  0.94399  0.73831  0.41085  1.0000
  H   H1354     1.0  0.71633  0.95875  0.09188  1.0000
  C   C761      1.0  0.56812  0.83690  0.03567  1.0000
  H   H1355     1.0  0.95305  0.70869  0.40645  1.0000
  Fe  Fe86      1.0  0.72418  0.97439  0.02168  1.0000
  H   H1356     1.0  0.56267  0.75153  0.02299  1.0000
  H   H1357     1.0  0.91796  0.79996  0.14351  1.0000
  C   C762      1.0  0.76956  0.97493  0.11082  1.0000
  H   H1358     1.0  0.87198  0.69228  0.21391  1.0000
  H   H1359     1.0  0.97301  0.79865  0.14787  1.0000
  C   C763      1.0  0.64211  0.90755  0.00402  1.0000
  H   H1360     1.0  0.85768  0.72140  0.21112  1.0000
  H   H1361     1.0  0.54587  0.83417  0.02003  1.0000
  C   C764      1.0  0.62887  0.82744  0.01309  1.0000
  H   H1362     1.0  0.96797  0.98009  0.07655  1.0000
  S   S171      1.0  0.79170  0.97314  0.01774  1.0000
  C   C765      1.0  0.87356  0.97544  0.09115  1.0000
  C   C766      1.0  0.94513  0.79017  0.13944  1.0000
  C   C767      1.0  0.97973  0.71900  0.36120  1.0000
  C   C768      1.0  0.66745  0.92612  0.00077  1.0000
  H   H1363     1.0  0.57745  0.85482  0.03672  1.0000
  N   N43       1.0  0.90008  0.72952  0.14405  1.0000
  C   C769      1.0  0.90480  0.75367  0.13693  1.0000
  C   C770      1.0  0.86147  0.71942  0.13150  1.0000
  C   C771      1.0  0.89595  0.72938  0.17007  1.0000
  H   H1364     1.0  0.68062  0.74700  0.02496  1.0000
  C   C772      1.0  0.60540  0.82178  0.03456  1.0000
  H   H1365     1.0  0.94906  0.73132  0.10627  1.0000
  C   C773      1.0  0.88172  0.70692  0.18036  1.0000
  C   C774      1.0  0.84859  0.72715  0.10603  1.0000
  C   C775      1.0  0.81400  0.71249  0.09437  1.0000
  H   H1366     1.0  0.60744  0.82220  0.99779  1.0000
  H   H1367     1.0  0.71492  0.77565  0.00243  1.0000
  C   C776      1.0  0.88060  0.70875  0.20685  1.0000
  H   H1368     1.0  0.87715  0.76335  0.14066  1.0000
  H   H1369     1.0  0.90615  0.75526  0.11781  1.0000
  H   H1370     1.0  0.86350  0.70075  0.13157  1.0000
  H   H1371     1.0  0.83446  0.72357  0.14104  1.0000
  H   H1372     1.0  0.87382  0.74247  0.17458  1.0000
  H   H1373     1.0  0.92573  0.73375  0.18018  1.0000
  H   H1374     1.0  0.55920  0.94982  0.00184  1.0000
  C   C777      1.0  0.93716  0.71571  0.13990  1.0000
  C   C778      1.0  0.94293  0.76626  0.14875  1.0000
  H   H1375     1.0  0.62479  0.82345  0.05135  1.0000
  C   C779      1.0  0.74346  0.84725  0.05995  1.0000
  H   H1376     1.0  0.66457  0.79375  0.04089  1.0000
  H   H1377     1.0  0.90256  0.69306  0.17683  1.0000
  H   H1378     1.0  0.85045  0.70213  0.17280  1.0000
  H   H1379     1.0  0.83711  0.74466  0.10618  1.0000
  H   H1380     1.0  0.87416  0.72668  0.09490  1.0000
  H   H1381     1.0  0.82482  0.69504  0.09237  1.0000
  H   H1382     1.0  0.78737  0.71231  0.10490  1.0000
  H   H1383     1.0  0.91384  0.71607  0.44027  1.0000
  H   H1384     1.0  0.70266  0.84822  0.01585  1.0000
  H   H1385     1.0  0.63392  0.90379  0.02137  1.0000
  H   H1386     1.0  0.98300  0.91039  0.05780  1.0000
  H   H1387     1.0  0.92591  0.70368  0.10382  1.0000
  C   C780      1.0  0.70476  0.83469  0.05016  1.0000
  H   H1388     1.0  0.97416  0.75588  0.38452  1.0000
  H   H1389     1.0  0.73460  0.82457  0.01972  1.0000
  H   H1390     1.0  0.55099  0.91553  0.01441  1.0000
  C   C781      1.0  0.90631  0.97847  0.10868  1.0000
  H   H1391     1.0  0.97169  0.75771  0.14525  1.0000
  H   H1392     1.0  0.67837  0.84521  0.05394  1.0000
  H   H1393     1.0  0.96027  0.94399  0.07872  1.0000
  H   H1394     1.0  0.74535  0.86385  0.05137  1.0000
  H   H1395     1.0  0.95597  0.73228  0.45426  1.0000
  H   H1396     1.0  0.73238  0.94662  0.12027  1.0000
  H   H1397     1.0  0.98063  0.73387  0.34973  1.0000
  C   C782      1.0  0.74315  0.95427  0.10437  1.0000
  C   C783      1.0  0.98849  0.91183  0.07715  1.0000
  C   C784      1.0  0.67043  0.79331  0.02223  1.0000
  N   N44       1.0  0.67024  0.81655  0.01185  1.0000
  H   H1398     1.0  0.76156  0.94165  0.09577  1.0000
  H   H1399     1.0  0.96453  0.72145  0.15146  1.0000
  C   C785      1.0  0.70999  0.77939  0.02088  1.0000
  H   H1400     1.0  0.97420  0.68280  0.35569  1.0000
  H   H1401     1.0  0.64460  0.78335  0.01334  1.0000
  H   H1402     1.0  0.70401  0.81861  0.05969  1.0000
  Fe  Fe87      1.0  0.65578  0.65957  0.03432  1.0000
  H   H1403     1.0  0.73717  0.78837  0.02940  1.0000
  H   H1404     1.0  0.96199  0.70264  0.44889  1.0000
  C   C786      1.0  0.97466  0.69842  0.34523  1.0000
  H   H1405     1.0  0.79686  0.96926  0.12223  1.0000
  C   C787      1.0  0.96144  0.72348  0.41770  1.0000
  S   S172      1.0  0.65350  0.68788  0.00668  1.0000
  C   C788      1.0  0.94760  0.71834  0.44177  1.0000
  H   H1406     1.0  0.50678  0.88822  0.03144  1.0000
  H   H1407     1.0  0.94695  0.79006  0.12023  1.0000
  H   H1408     1.0  0.86596  0.98483  0.18461  1.0000
  S   S173      1.0  0.97854  0.68239  0.20314  1.0000
  H   H1409     1.0  0.61751  0.97740  0.00634  1.0000
  C   C789      1.0  0.62644  0.71368  0.00054  1.0000
  H   H1410     1.0  0.78020  0.98150  0.09452  1.0000
  H   H1411     1.0  0.63152  0.84600  0.01171  1.0000
  H   H1412     1.0  0.79921  0.98326  0.16045  1.0000
  H   H1413     1.0  0.87244  0.98158  0.15406  1.0000
  C   C790      1.0  0.51960  0.91303  0.00557  1.0000
  H   H1414     1.0  0.49872  0.92533  0.01267  1.0000
  H   H1415     1.0  0.98706  0.78479  0.20617  1.0000
  Fe  Fe88      1.0  0.80283  0.95081  0.65652  1.0000
  S   S174      1.0  0.86392  0.93678  0.67186  1.0000
  S   S175      1.0  0.73732  0.93601  0.65851  1.0000
  Fe  Fe89      1.0  0.87603  0.97196  0.68636  1.0000
  Fe  Fe90      1.0  0.88878  0.94867  0.63837  1.0000
  S   S176      1.0  0.93694  0.93916  0.61326  1.0000
  S   S177      1.0  0.82721  0.96110  0.62234  1.0000
  Fe  Fe91      1.0  0.54707  0.80901  0.95574  1.0000
  S   S178      1.0  0.57974  0.82003  0.92484  1.0000
  H   H1416     1.0  0.59224  0.80695  0.84936  1.0000
  C   C791      1.0  0.79015  0.96772  0.56051  1.0000
  C   C792      1.0  0.58657  0.75553  0.98960  1.0000
  Fe  Fe92      1.0  0.51703  0.82390  0.90499  1.0000
  C   C793      1.0  0.62403  0.71106  0.65562  1.0000
  Fe  Fe93      1.0  0.56959  0.85541  0.93736  1.0000
  S   S179      1.0  0.61638  0.88354  0.93742  1.0000
  C   C794      1.0  0.68550  0.83159  0.94683  1.0000
  S   S180      1.0  0.54163  0.84442  0.96930  1.0000
  H   H1417     1.0  0.61062  0.66976  0.67499  1.0000
  S   S181      1.0  0.54242  0.80495  0.66466  1.0000
  Fe  Fe94      1.0  0.51337  0.82386  0.72575  1.0000
  S   S182      1.0  0.57341  0.80813  0.71966  1.0000
  H   H1418     1.0  0.61615  0.75424  0.95786  1.0000
  Fe  Fe95      1.0  0.57507  0.83094  0.68864  1.0000
  S   S183      1.0  0.63848  0.84600  0.68214  1.0000
  Fe  Fe96      1.0  0.53659  0.78329  0.69632  1.0000
  S   S184      1.0  0.55997  0.74691  0.70225  1.0000
  S   S185      1.0  0.51628  0.84800  0.69548  1.0000
  H   H1419     1.0  0.90500  0.96487  0.52439  1.0000
  C   C795      1.0  0.54135  0.71905  0.69580  1.0000
  S   S186      1.0  0.56252  0.78233  0.98450  1.0000
  H   H1420     1.0  0.54198  0.78945  0.76838  1.0000
  C   C796      1.0  0.51590  0.67386  0.68568  1.0000
  C   C797      1.0  0.55128  0.67834  0.70070  1.0000
  C   C798      1.0  0.56405  0.70071  0.70551  1.0000
  H   H1421     1.0  0.64343  0.70618  0.75142  1.0000
  S   S187      1.0  0.91062  0.98018  0.72243  1.0000
  H   H1422     1.0  0.56884  0.66454  0.70864  1.0000
  H   H1423     1.0  0.69761  0.94496  0.97557  1.0000
  C   C799      1.0  0.53538  0.88597  0.64542  1.0000
  H   H1424     1.0  0.53612  0.85149  0.58309  1.0000
  H   H1425     1.0  0.91073  0.95520  0.55389  1.0000
  H   H1426     1.0  0.57549  0.77955  0.85793  1.0000
  C   C800      1.0  0.50555  0.71459  0.68109  1.0000
  H   H1427     1.0  0.56379  0.76943  0.75081  1.0000
  C   C801      1.0  0.61174  0.74581  0.97406  1.0000
  H   H1428     1.0  0.53859  0.85884  0.80633  1.0000
  C   C802      1.0  0.58138  0.67100  0.63111  1.0000
  H   H1429     1.0  0.56947  0.97733  0.95765  1.0000
  N   N45       1.0  0.52342  0.93925  0.96972  1.0000
  H   H1430     1.0  0.65656  0.80077  0.97787  1.0000
  C   C803      1.0  0.61775  0.73669  0.76447  1.0000
  C   C804      1.0  0.66240  0.91741  0.95918  1.0000
  H   H1431     1.0  0.67033  0.92136  0.94181  1.0000
  H   H1432     1.0  0.71169  0.66227  0.63751  1.0000
  C   C805      1.0  0.71113  0.91079  0.66605  1.0000
  C   C806      1.0  0.66907  0.91185  0.66933  1.0000
  C   C807      1.0  0.64666  0.89248  0.67469  1.0000
  C   C808      1.0  0.66564  0.87145  0.67647  1.0000
  C   C809      1.0  0.70762  0.87036  0.67309  1.0000
  C   C810      1.0  0.73021  0.88979  0.66807  1.0000
  H   H1433     1.0  0.65376  0.92789  0.66793  1.0000
  H   H1434     1.0  0.61473  0.89387  0.67756  1.0000
  H   H1435     1.0  0.72294  0.85432  0.67440  1.0000
  H   H1436     1.0  0.76235  0.88846  0.66557  1.0000
  C   C811      1.0  0.63648  0.89912  0.96231  1.0000
  H   H1437     1.0  0.65554  0.78361  0.78781  1.0000
  C   C812      1.0  0.49368  0.89038  0.65424  1.0000
  H   H1438     1.0  0.50749  0.86586  0.61650  1.0000
  H   H1439     1.0  0.65049  0.82253  0.75150  1.0000
  H   H1440     1.0  0.56533  0.79475  0.80901  1.0000
  C   C813      1.0  0.61646  0.81247  0.78060  1.0000
  H   H1441     1.0  0.69229  0.91016  0.59300  1.0000
  C   C814      1.0  0.64940  0.82646  0.77036  1.0000
  H   H1442     1.0  0.53072  0.73839  0.77474  1.0000
  C   C815      1.0  0.96522  0.96938  0.54319  1.0000
  H   H1443     1.0  0.69644  0.67547  0.61004  1.0000
  C   C816      1.0  0.67793  0.93081  0.97829  1.0000
  H   H1444     1.0  0.58657  0.81704  0.77124  1.0000
  H   H1445     1.0  0.61622  0.81759  0.79918  1.0000
  H   H1446     1.0  0.53136  0.95460  0.93615  1.0000
  C   C817      1.0  0.58851  0.85385  0.62231  1.0000
  H   H1447     1.0  0.64020  0.74808  0.79904  1.0000
  H   H1448     1.0  0.67994  0.82329  0.77993  1.0000
  H   H1449     1.0  0.69099  0.67644  0.67546  1.0000
  H   H1450     1.0  0.66792  0.71549  0.77925  1.0000
  H   H1451     1.0  0.57645  0.68029  0.61425  1.0000
  C   C818      1.0  0.50593  0.82988  0.79161  1.0000
  C   C819      1.0  0.63797  0.71379  0.76850  1.0000
  H   H1452     1.0  0.94512  0.89192  0.62875  1.0000
  H   H1453     1.0  0.63196  0.65671  0.60482  1.0000
  C   C820      1.0  0.61351  0.83674  0.60905  1.0000
  C   C821      1.0  0.53043  0.87977  0.61899  1.0000
  C   C822      1.0  0.59753  0.89337  0.61009  1.0000
  C   C823      1.0  0.63863  0.89059  0.59939  1.0000
  C   C824      1.0  0.49299  0.69220  0.67610  1.0000
  H   H1454     1.0  0.98346  0.97840  0.89994  1.0000
  H   H1455     1.0  0.68731  0.85013  0.97880  1.0000
  C   C825      1.0  0.52782  0.87563  0.54192  1.0000
  H   H1456     1.0  0.91560  0.97975  0.58561  1.0000
  C   C826      1.0  0.63159  0.72515  0.97956  1.0000
  S   S188      1.0  0.50724  0.83940  0.76217  1.0000
  H   H1457     1.0  0.59219  0.82613  0.59742  1.0000
  H   H1458     1.0  0.58381  0.86066  0.57471  1.0000
  H   H1459     1.0  0.78089  0.97039  0.87150  1.0000
  C   C827      1.0  0.50155  0.81729  0.83921  1.0000
  C   C828      1.0  0.62673  0.89406  0.98489  1.0000
  H   H1460     1.0  0.50508  0.88880  0.57268  1.0000
  H   H1461     1.0  0.58161  0.90848  0.60249  1.0000
  H   H1462     1.0  0.60636  0.89785  0.62872  1.0000
  H   H1463     1.0  0.77937  0.95205  0.56832  1.0000
  H   H1464     1.0  0.65833  0.87847  0.60992  1.0000
  S   S189      1.0  0.49726  0.80858  0.86864  1.0000
  H   H1465     1.0  0.64482  0.92549  0.58887  1.0000
  H   H1466     1.0  0.55368  0.90153  0.64856  1.0000
  H   H1467     1.0  0.70904  0.80829  0.98463  1.0000
  H   H1468     1.0  0.55440  0.89971  0.56676  1.0000
  H   H1469     1.0  0.63499  0.84500  0.59812  1.0000
  H   H1470     1.0  0.51597  0.89465  0.61005  1.0000
  H   H1471     1.0  0.50616  0.76058  0.78933  1.0000
  H   H1472     1.0  0.65366  0.80812  0.61592  1.0000
  H   H1473     1.0  0.59052  0.71293  0.65134  1.0000
  H   H1474     1.0  0.49767  0.98299  0.95468  1.0000
  C   C829      1.0  0.83617  0.96619  0.55851  1.0000
  C   C830      1.0  0.67334  0.65581  0.70300  1.0000
  H   H1475     1.0  0.91806  0.97686  0.82048  1.0000
  H   H1476     1.0  0.78342  0.98197  0.57204  1.0000
  H   H1477     1.0  0.64217  0.84455  0.77195  1.0000
  C   C831      1.0  0.62492  0.78698  0.77831  1.0000
  H   H1478     1.0  0.65683  0.66947  0.71129  1.0000
  N   N46       1.0  0.59284  0.77138  0.78638  1.0000
  C   C832      1.0  0.58096  0.77824  0.81007  1.0000
  H   H1479     1.0  0.64242  0.78948  0.82539  1.0000
  H   H1480     1.0  0.60690  0.88001  0.98755  1.0000
  H   H1481     1.0  0.60866  0.86024  0.63759  1.0000
  C   C833      1.0  0.91796  0.96945  0.54249  1.0000
  C   C834      1.0  0.61636  0.77918  0.83012  1.0000
  C   C835      1.0  0.55536  0.77235  0.76887  1.0000
  C   C836      1.0  0.61023  0.74799  0.78807  1.0000
  H   H1482     1.0  0.67811  0.84646  0.93562  1.0000
  H   H1483     1.0  0.61892  0.81277  0.63787  1.0000
  H   H1484     1.0  0.63714  0.70076  0.62079  1.0000
  C   C837      1.0  0.52345  0.84336  0.81022  1.0000
  H   H1485     1.0  0.63805  0.74712  0.75458  1.0000
  H   H1486     1.0  0.59171  0.70382  0.71692  1.0000
  C   C838      1.0  0.64248  0.69409  0.63896  1.0000
  C   C839      1.0  0.64291  0.73435  0.65379  1.0000
  C   C840      1.0  0.52154  0.83708  0.83382  1.0000
  H   H1487     1.0  0.67611  0.69488  0.64330  1.0000
  H   H1488     1.0  0.62885  0.78377  0.75955  1.0000
  H   H1489     1.0  0.67646  0.73389  0.65889  1.0000
  H   H1490     1.0  0.62773  0.76203  0.83441  1.0000
  H   H1491     1.0  0.55799  0.76639  0.81605  1.0000
  C   C841      1.0  0.67461  0.66034  0.67688  1.0000
  H   H1492     1.0  0.66799  0.91927  0.61806  1.0000
  H   H1493     1.0  0.63760  0.83973  0.96826  1.0000
  H   H1494     1.0  0.65106  0.71793  0.96740  1.0000
  C   C842      1.0  0.50276  0.92665  0.90266  1.0000
  H   H1495     1.0  0.53533  0.84765  0.84783  1.0000
  H   H1496     1.0  0.94232  0.97960  0.84979  1.0000
  H   H1497     1.0  0.62894  0.74607  0.66582  1.0000
  H   H1498     1.0  0.63692  0.74089  0.63569  1.0000
  H   H1499     1.0  0.77309  0.96999  0.54297  1.0000
  H   H1500     1.0  0.61777  0.70237  0.77743  1.0000
  C   C843      1.0  0.52993  0.93777  0.94409  1.0000
  H   H1501     1.0  0.63004  0.70572  0.67413  1.0000
  H   H1502     1.0  0.56473  0.84357  0.62995  1.0000
  H   H1503     1.0  0.58853  0.73395  0.75332  1.0000
  C   C844      1.0  0.67723  0.81403  0.98633  1.0000
  H   H1504     1.0  0.56400  0.68025  0.64375  1.0000
  C   C845      1.0  0.63095  0.66074  0.66391  1.0000
  H   H1505     1.0  0.56030  0.92999  0.94198  1.0000
  H   H1506     1.0  0.63405  0.88486  0.58094  1.0000
  H   H1507     1.0  0.70503  0.65494  0.71177  1.0000
  C   C846      1.0  0.60177  0.78925  0.85234  1.0000
  H   H1508     1.0  0.55728  0.87165  0.53485  1.0000
  C   C847      1.0  0.96701  0.89509  0.61625  1.0000
  H   H1509     1.0  0.62702  0.78893  0.86674  1.0000
  C   C848      1.0  0.63870  0.82118  0.62592  1.0000
  C   C849      1.0  0.66218  0.91277  0.59987  1.0000
  C   C850      1.0  0.67059  0.83537  0.97093  1.0000
  N   N47       1.0  0.56917  0.87333  0.60843  1.0000
  H   H1510     1.0  0.84127  0.98649  0.52786  1.0000
  H   H1511     1.0  0.67038  0.81667  0.93812  1.0000
  C   C851      1.0  0.56112  0.94976  0.98264  1.0000
  H   H1512     1.0  0.59030  0.73670  0.79741  1.0000
  H   H1513     1.0  0.84148  0.95109  0.54785  1.0000
  S   S190      1.0  0.81483  0.98558  0.67238  1.0000
  H   H1514     1.0  0.54505  0.90493  0.97317  1.0000
  C   C852      1.0  0.52002  0.75596  0.77314  1.0000
  H   H1515     1.0  0.71920  0.82916  0.94846  1.0000
  H   H1516     1.0  0.53338  0.92051  0.89886  1.0000
  C   C853      1.0  0.53541  0.88433  0.56707  1.0000
  C   C854      1.0  0.96934  0.91646  0.60646  1.0000
  H   H1517     1.0  0.66302  0.83083  0.63650  1.0000
  C   C855      1.0  0.55696  0.86633  0.58337  1.0000
  H   H1518     1.0  0.58851  0.93953  0.97975  1.0000
  C   C856      1.0  0.57033  0.97443  0.97671  1.0000
  C   C857      1.0  0.49757  0.92397  0.92863  1.0000
  H   H1519     1.0  0.50082  0.90589  0.93276  1.0000
  C   C858      1.0  0.51980  0.91556  0.97866  1.0000
  N   N48       1.0  0.62657  0.67031  0.63954  1.0000
  H   H1520     1.0  0.50824  0.86036  0.54115  1.0000
  S   S191      1.0  0.90537  0.98217  0.65442  1.0000
  H   H1521     1.0  0.85201  0.96372  0.57626  1.0000
  H   H1522     1.0  0.51188  0.88867  0.53066  1.0000
  H   H1523     1.0  0.63671  0.97266  0.97838  1.0000
  S   S192      1.0  0.50921  0.85998  0.91543  1.0000
  C   C859      1.0  0.69338  0.65998  0.62044  1.0000
  H   H1524     1.0  0.49930  0.94448  0.89734  1.0000
  H   H1525     1.0  0.55059  0.87239  0.65616  1.0000
  H   H1526     1.0  0.49795  0.89507  0.67307  1.0000
  H   H1527     1.0  0.86908  0.98396  0.85117  1.0000
  C   C860      1.0  0.61294  0.98143  0.98739  1.0000
  H   H1528     1.0  0.54789  0.98560  0.98416  1.0000
  C   C861      1.0  0.85244  0.98738  0.54684  1.0000
  H   H1529     1.0  0.49767  0.75112  0.73638  1.0000
  H   H1530     1.0  0.49099  0.90759  0.97063  1.0000
  H   H1531     1.0  0.97692  0.98370  0.53357  1.0000
  H   H1532     1.0  0.51371  0.65848  0.59944  1.0000
  H   H1533     1.0  0.49814  0.66188  0.62863  1.0000
  H   H1534     1.0  0.96940  0.94727  0.51313  1.0000
  H   H1535     1.0  0.96897  0.93285  0.54079  1.0000
  C   C862      1.0  0.98020  0.94796  0.53209  1.0000
  C   C863      1.0  0.77155  0.98724  0.87728  1.0000
  H   H1536     1.0  0.97899  0.96981  0.56163  1.0000
  C   C864      1.0  0.64745  0.65540  0.62297  1.0000
