data_image0
_chemical_formula_structural       CH3SHFeS2FeS2FeSFeHS2HCH2C2SCHCH3CHC8H5CH2NC3HCH15SCHCHCNC5HCHC4H3CH4CH2SH2C2H10NHC5HCHCH3FeH6CH2CH6CH3CHSHCH5CHC2HCHFeH2CSH2FeCFeS2FeS2FeS2FeSFeS3HC3H4C2HC3H4C6H4C3HCH2NCSC2HC2H3C2H2CH12C2H3NHC2H4CHCH2CHCH3CH4CH5CHC2H3C2NCH2CH7CH2C2H5CH7C2SCHCH5CH3C2H3CH3FeH4CH2FeCFeHSH2CH2NHC4FeSHFeS2FeSFeS3CSFeS2Fe2SHSH2CHC4H3C2HC2H2CHCH3C4H2FeH2C7HNC4HCH11NC10HCH21NH9CH4C2HCH3CHC2HCHC2H2CHCH2CH2SHCH2CFeCSC2HCHC2HC3H3SH3SHCH4NCH3CHSCSCHSHC3H5C2HSHSHCH2CHCH7CH2CH4C3HCFeCSHCFeSCFeS2FeSFeS3H3CH2C2H6C6H3C4H5CHCH8CH15CH2CH7CNCHNC7HC2HCH4C2NHCHCHC2HSH3C2H6C2H3CHC2HSC2HCSH11CH5CH2CHFeS2FeS2H3CHC2H3CHSFe2S2FeS2C6H4C2H2CH9C2H4CHC2H2CH2C2H3NC7H3CH9CH5CHC2H6CH2CHCHCH2CH5C3H6C3SNCHC2HC2HC2HCH13SC2HNSC2H2SC2H5C3H2SH3C3H6NC2H2C2HC4H6CH2CH4CH2CSH5CH4CHNH3CH4C2HCHFeCHC2HCH2CH2CH16CSHFeS2FeS2FeSFeS3FeS2H2CHC4H4C6H6C7H3C2HC6H13CH6CH6NHCH2CH3CH3CH3NCHC2HCH2CH4CH4C4H9CH4CH2FeSHC2HCHFeS2FeS2FeS2FeSFeS3H5C6H4C6H2CHCH2NC6HSC2FeH14CH3C2H6CH3CH5CHC2HCH4NC9HC2H22C2H4NHSCH2CHC2H3C2H2C2H8CHCH2CSHC3H6C3HCH4CH2CNCH4CHCSCH3CH3CH13NH5FeH5CHC3HCHC3H8CHCH2CHCHNFeS2HSHFeS2FeS2FeSFeS3H2C4H2C7H4C2H2C3H8CH4CHCH2CH2NC5HC4H8CH5CH10CHC3HCHCH3CHCH2CH5CHCHCH5C2H5SHNH2CFeNHCH2CH3C3H2CH4CH3CHCSCHFeS2FeSHFeSFeS3H3C4H3CH4C6H4C4H2C5H5SH5FeHC2H5NH2CH3CH3C2HCHCH11SH7CHCFeH2CHCH5CHCH5NC6HCSNH2CH3CNHC3HFeCHC2HCHFeSCFeSCFeSFeSCSCHSH2SFeS2FeS2FeHFeCS2FeHSHC3SH3C4H2S2HC6HCH2CH2CH2C4H2CH2SHNC8HCH17CH4C2H4CH4CNHC5H13CFeC2FeCH2SHSH2CHC3HCHC3SC2H4CH6CHSC4H3CHCH5CH6CHCHCHCH4CH
_chemical_formula_sum              "C648 H1152 S144 Fe72 N36"
_cell_length_a       35.8521
_cell_length_b       35.9486
_cell_length_c       70.632
_cell_angle_alpha    89.6526
_cell_angle_beta     90.0718
_cell_angle_gamma    119.815

_space_group_name_H-M_alt    "P 1"
_space_group_IT_number       1

loop_
  _space_group_symop_operation_xyz
  'x, y, z'

loop_
  _atom_site_type_symbol
  _atom_site_label
  _atom_site_symmetry_multiplicity
  _atom_site_fract_x
  _atom_site_fract_y
  _atom_site_fract_z
  _atom_site_occupancy
  C   C1        1.0  0.17142  0.35910  0.99686  1.0000
  H   H1        1.0  0.09371  0.36014  0.05352  1.0000
  H   H2        1.0  0.04151  0.03392  0.20312  1.0000
  H   H3        1.0  0.10345  0.34625  0.17111  1.0000
  S   S1        1.0  0.01315  0.11777  0.12136  1.0000
  H   H4        1.0  0.03264  0.39009  0.18385  1.0000
  Fe  Fe1       1.0  0.20722  0.39534  0.05220  1.0000
  S   S2        1.0  0.25174  0.45297  0.06957  1.0000
  S   S3        1.0  0.17227  0.40709  0.02781  1.0000
  Fe  Fe2       1.0  0.21412  0.33378  0.08020  1.0000
  S   S4        1.0  0.26002  0.38754  0.09917  1.0000
  S   S5        1.0  0.19244  0.26361  0.08726  1.0000
  Fe  Fe3       1.0  0.21443  0.41331  0.09471  1.0000
  S   S6        1.0  0.18903  0.43440  0.11976  1.0000
  Fe  Fe4       1.0  0.29431  0.42304  0.07242  1.0000
  H   H5        1.0  0.15733  0.06132  0.11567  1.0000
  S   S7        1.0  0.16744  0.35772  0.07738  1.0000
  S   S8        1.0  0.25101  0.36719  0.05350  1.0000
  H   H6        1.0  0.13576  0.43261  0.08785  1.0000
  C   C2        1.0  0.12523  0.05008  0.12214  1.0000
  H   H7        1.0  0.06393  0.06167  0.22495  1.0000
  H   H8        1.0  0.07806  0.33773  0.10842  1.0000
  C   C3        1.0  0.44605  0.01799  0.22538  1.0000
  C   C4        1.0  0.01349  0.32592  0.10543  1.0000
  S   S9        1.0  0.00673  0.04270  0.16414  1.0000
  C   C5        1.0  0.14443  0.44296  0.11790  1.0000
  H   H9        1.0  0.02157  0.31992  0.17325  1.0000
  C   C6        1.0  0.02989  0.18856  0.16720  1.0000
  H   H10       1.0  0.13729  0.28300  0.15863  1.0000
  H   H11       1.0  0.02268  0.15767  0.16062  1.0000
  H   H12       1.0  0.08894  0.23334  0.00289  1.0000
  C   C7        1.0  0.08407  0.34465  0.15850  1.0000
  H   H13       1.0  0.00012  0.18411  0.17410  1.0000
  C   C8        1.0  0.24256  0.04965  0.19566  1.0000
  C   C9        1.0  0.18786  0.32133  0.13915  1.0000
  C   C10       1.0  0.06378  0.15812  0.11242  1.0000
  C   C11       1.0  0.09891  0.15158  0.11054  1.0000
  C   C12       1.0  0.13808  0.18427  0.10293  1.0000
  C   C13       1.0  0.14277  0.22400  0.09726  1.0000
  C   C14       1.0  0.10773  0.23066  0.09926  1.0000
  C   C15       1.0  0.06849  0.19787  0.10674  1.0000
  H   H14       1.0  0.09566  0.12113  0.11467  1.0000
  H   H15       1.0  0.16488  0.17865  0.10132  1.0000
  H   H16       1.0  0.11071  0.26081  0.09474  1.0000
  H   H17       1.0  0.04139  0.20310  0.10789  1.0000
  H   H18       1.0  0.18806  0.22780  0.02348  1.0000
  C   C16       1.0  0.14844  0.31333  0.15061  1.0000
  H   H19       1.0  0.02138  0.26707  0.04795  1.0000
  H   H20       1.0  0.19178  0.35086  0.00504  1.0000
  N   N1        1.0  0.07262  0.30489  0.14716  1.0000
  C   C17       1.0  0.11270  0.31093  0.13743  1.0000
  C   C18       1.0  0.03939  0.29713  0.13226  1.0000
  C   C19       1.0  0.09213  0.45759  0.13358  1.0000
  H   H21       1.0  0.14127  0.02807  0.15668  1.0000
  C   C20       1.0  0.05174  0.33425  0.11787  1.0000
  H   H22       1.0  0.39985  0.02275  0.28910  1.0000
  H   H23       1.0  0.03555  0.17575  0.03027  1.0000
  H   H24       1.0  0.09886  0.28573  0.00805  1.0000
  H   H25       1.0  0.12769  0.34116  0.12893  1.0000
  H   H26       1.0  0.10472  0.28515  0.12693  1.0000
  H   H27       1.0  0.27346  0.05303  0.19065  1.0000
  H   H28       1.0  0.00815  0.28898  0.13898  1.0000
  H   H29       1.0  0.05512  0.19673  0.17810  1.0000
  H   H30       1.0  0.07465  0.22592  0.14548  1.0000
  H   H31       1.0  0.02001  0.21265  0.14102  1.0000
  H   H32       1.0  0.06265  0.36520  0.12502  1.0000
  H   H33       1.0  0.99235  0.12292  0.05617  1.0000
  H   H34       1.0  0.02346  0.26130  0.16662  1.0000
  H   H35       1.0  0.98710  0.32455  0.11418  1.0000
  H   H36       1.0  0.07601  0.27376  0.17299  1.0000
  S   S10       1.0  0.36728  0.46670  0.06545  1.0000
  C   C21       1.0  0.04543  0.22358  0.15198  1.0000
  H   H37       1.0  0.06487  0.09161  0.20421  1.0000
  C   C22       1.0  0.06780  0.06389  0.20931  1.0000
  H   H38       1.0  0.40824  0.43988  0.09500  1.0000
  C   C23       1.0  0.04569  0.34927  0.16576  1.0000
  N   N2        1.0  0.08029  0.24355  0.03251  1.0000
  C   C24       1.0  0.04029  0.20347  0.03904  1.0000
  C   C25       1.0  0.07725  0.25130  0.01159  1.0000
  C   C26       1.0  0.11794  0.23616  0.03544  1.0000
  C   C27       1.0  0.08869  0.28234  0.04390  1.0000
  C   C28       1.0  0.05294  0.29449  0.04379  1.0000
  H   H39       1.0  0.01294  0.20226  0.00242  1.0000
  C   C29       1.0  0.16157  0.27049  0.02683  1.0000
  H   H40       1.0  0.02357  0.35255  0.09502  1.0000
  C   C30       1.0  0.05447  0.26697  0.16056  1.0000
  C   C31       1.0  0.06323  0.33093  0.05760  1.0000
  C   C32       1.0  0.07173  0.45456  0.11631  1.0000
  C   C33       1.0  0.19658  0.25878  0.03029  1.0000
  H   H41       1.0  0.27493  0.41539  0.99185  1.0000
  H   H42       1.0  0.07253  0.44351  0.08638  1.0000
  H   H43       1.0  0.09329  0.04068  0.17694  1.0000
  C   C34       1.0  0.12861  0.45241  0.13432  1.0000
  H   H44       1.0  0.11050  0.20454  0.02949  1.0000
  H   H45       1.0  0.12419  0.23478  0.05082  1.0000
  H   H46       1.0  0.09622  0.27868  0.05885  1.0000
  H   H47       1.0  0.11795  0.31135  0.03859  1.0000
  C   C35       1.0  0.99672  0.15031  0.06498  1.0000
  H   H48       1.0  0.05065  0.30624  0.02950  1.0000
  H   H49       1.0  0.06524  0.18343  0.06335  1.0000
  S   S11       1.0  0.02626  0.46176  0.11463  1.0000
  H   H50       1.0  0.17249  0.30221  0.03333  1.0000
  H   H51       1.0  0.15933  0.27359  0.01130  1.0000
  C   C36       1.0  0.12390  0.43970  0.10063  1.0000
  C   C37       1.0  0.22544  0.06893  0.18101  1.0000
  H   H52       1.0  0.20164  0.35274  0.13172  1.0000
  H   H53       1.0  0.15901  0.02876  0.18907  1.0000
  H   H54       1.0  0.10904  0.01483  0.12442  1.0000
  H   H55       1.0  0.03709  0.33900  0.05733  1.0000
  H   H56       1.0  0.06627  0.32139  0.07225  1.0000
  H   H57       1.0  0.08468  0.41718  0.17267  1.0000
  H   H58       1.0  0.07971  0.46391  0.14633  1.0000
  H   H59       1.0  0.24993  0.10324  0.17918  1.0000
  H   H60       1.0  0.22748  0.28410  0.02421  1.0000
  H   H61       1.0  0.20126  0.25639  0.04570  1.0000
  N   N3        1.0  0.16214  0.08336  0.17474  1.0000
  H   H62       1.0  0.40088  0.03592  0.25468  1.0000
  C   C38       1.0  0.11824  0.07265  0.18217  1.0000
  C   C39       1.0  0.15643  0.06352  0.15536  1.0000
  C   C40       1.0  0.19088  0.13114  0.17243  1.0000
  C   C41       1.0  0.20318  0.15817  0.19069  1.0000
  C   C42       1.0  0.06059  0.38670  0.17949  1.0000
  H   H63       1.0  0.21279  0.32205  0.14872  1.0000
  C   C43       1.0  0.11160  0.06941  0.20400  1.0000
  H   H64       1.0  0.02954  0.35564  0.15380  1.0000
  C   C44       1.0  0.23701  0.20480  0.18656  1.0000
  H   H65       1.0  0.07489  0.38102  0.19238  1.0000
  H   H66       1.0  0.15894  0.34001  0.16082  1.0000
  H   H67       1.0  0.03262  0.26871  0.12361  1.0000
  Fe  Fe5       1.0  0.99123  0.05086  0.13405  1.0000
  H   H68       1.0  0.10887  0.09584  0.17650  1.0000
  H   H69       1.0  0.10555  0.37407  0.15022  1.0000
  H   H70       1.0  0.10546  0.05685  0.11209  1.0000
  H   H71       1.0  0.09642  0.06193  0.14609  1.0000
  H   H72       1.0  0.22099  0.13839  0.16485  1.0000
  H   H73       1.0  0.17529  0.14452  0.16315  1.0000
  C   C45       1.0  0.08797  0.44581  0.09984  1.0000
  H   H74       1.0  0.17456  0.15849  0.19643  1.0000
  H   H75       1.0  0.37925  0.06402  0.26753  1.0000
  C   C46       1.0  0.43326  0.46313  0.08586  1.0000
  H   H76       1.0  0.14486  0.10782  0.13767  1.0000
  H   H77       1.0  0.17931  0.29559  0.12855  1.0000
  H   H78       1.0  0.43828  0.04312  0.22302  1.0000
  H   H79       1.0  0.13660  0.09786  0.21145  1.0000
  H   H80       1.0  0.34350  0.01579  0.25490  1.0000
  H   H81       1.0  0.14445  0.45531  0.14771  1.0000
  C   C47       1.0  0.15877  0.38693  0.00445  1.0000
  H   H82       1.0  0.22494  0.21911  0.17589  1.0000
  H   H83       1.0  0.24455  0.22382  0.19977  1.0000
  H   H84       1.0  0.26715  0.20688  0.18122  1.0000
  C   C48       1.0  0.12948  0.07304  0.14085  1.0000
  H   H85       1.0  0.12391  0.42043  0.99906  1.0000
  S   S12       1.0  0.00791  0.46532  0.16940  1.0000
  H   H86       1.0  0.04232  0.21659  0.06954  1.0000
  C   C49       1.0  0.37342  0.03179  0.26346  1.0000
  H   H87       1.0  0.18656  0.07662  0.20203  1.0000
  H   H88       1.0  0.11252  0.04094  0.20963  1.0000
  H   H89       1.0  0.21667  0.14597  0.20160  1.0000
  H   H90       1.0  0.18814  0.07439  0.14848  1.0000
  H   H91       1.0  0.24829  0.06638  0.20944  1.0000
  C   C50       1.0  0.18178  0.06377  0.18746  1.0000
  H   H92       1.0  0.00152  0.29544  0.09755  1.0000
  C   C51       1.0  0.03202  0.23779  0.00342  1.0000
  C   C52       1.0  0.03920  0.19064  0.06012  1.0000
  H   H93       1.0  0.22194  0.05189  0.16751  1.0000
  C   C53       1.0  0.13362  0.39866  0.99335  1.0000
  H   H94       1.0  0.21942  0.01496  0.19784  1.0000
  Fe  Fe6       1.0  0.99291  0.47358  0.13946  1.0000
  H   H95       1.0  0.34292  0.00458  0.28982  1.0000
  H   H96       1.0  0.01376  0.24848  0.01228  1.0000
  C   C54       1.0  0.36918  0.00544  0.28120  1.0000
  S   S13       1.0  0.99381  0.99280  0.12393  1.0000
  H   H97       1.0  0.01106  0.20602  0.03678  1.0000
  H   H98       1.0  0.99685  0.14157  0.08008  1.0000
  Fe  Fe7       1.0  0.00460  0.98176  0.15456  1.0000
  C   C55       1.0  0.42202  0.48040  0.07048  1.0000
  Fe  Fe8       1.0  0.01121  0.03383  0.49030  1.0000
  S   S14       1.0  0.99607  0.02539  0.45909  1.0000
  S   S15       1.0  0.08380  0.08008  0.49428  1.0000
  Fe  Fe9       1.0  0.36117  0.25062  0.58831  1.0000
  S   S16       1.0  0.41278  0.29015  0.56665  1.0000
  S   S17       1.0  0.38510  0.24419  0.61759  1.0000
  Fe  Fe10      1.0  0.28802  0.23374  0.56079  1.0000
  S   S18       1.0  0.33471  0.27268  0.53792  1.0000
  S   S19       1.0  0.21452  0.20261  0.55814  1.0000
  Fe  Fe11      1.0  0.37017  0.23800  0.54631  1.0000
  S   S20       1.0  0.38878  0.20936  0.52173  1.0000
  Fe  Fe12      1.0  0.37369  0.32227  0.56017  1.0000
  S   S21       1.0  0.39718  0.39378  0.55231  1.0000
  S   S22       1.0  0.32146  0.19661  0.56826  1.0000
  S   S23       1.0  0.32413  0.28517  0.58278  1.0000
  H   H99       1.0  0.41612  0.47357  0.53419  1.0000
  C   C56       1.0  0.25536  0.00883  0.41382  1.0000
  C   C57       1.0  0.10456  0.19359  0.39862  1.0000
  C   C58       1.0  0.43256  0.44900  0.55881  1.0000
  H   H100      1.0  0.05304  0.22548  0.40528  1.0000
  H   H101      1.0  0.45599  0.43642  0.58473  1.0000
  H   H102      1.0  0.16734  0.22902  0.38531  1.0000
  H   H103      1.0  0.45269  0.11703  0.45873  1.0000
  C   C59       1.0  0.40838  0.17300  0.52377  1.0000
  C   C60       1.0  0.42279  0.16548  0.54100  1.0000
  H   H104      1.0  0.16032  0.18443  0.39970  1.0000
  C   C61       1.0  0.45725  0.46101  0.57542  1.0000
  C   C62       1.0  0.42707  0.12363  0.50834  1.0000
  C   C63       1.0  0.41072  0.15204  0.50745  1.0000
  H   H105      1.0  0.42146  0.18170  0.55363  1.0000
  H   H106      1.0  0.30691  0.36141  0.57942  1.0000
  H   H107      1.0  0.33880  0.42876  0.55747  1.0000
  H   H108      1.0  0.40000  0.15804  0.49404  1.0000
  C   C64       1.0  0.11924  0.11313  0.51256  1.0000
  C   C65       1.0  0.16399  0.13302  0.50955  1.0000
  C   C66       1.0  0.19355  0.15990  0.52338  1.0000
  C   C67       1.0  0.17877  0.16774  0.54040  1.0000
  C   C68       1.0  0.13403  0.14812  0.54336  1.0000
  C   C69       1.0  0.10445  0.12081  0.52962  1.0000
  H   H109      1.0  0.17594  0.12755  0.49642  1.0000
  H   H110      1.0  0.22776  0.17480  0.52080  1.0000
  H   H111      1.0  0.12211  0.15390  0.55643  1.0000
  H   H112      1.0  0.07025  0.10598  0.53219  1.0000
  C   C70       1.0  0.14413  0.19546  0.38952  1.0000
  C   C71       1.0  0.31342  0.17517  0.63423  1.0000
  C   C72       1.0  0.35724  0.20525  0.63554  1.0000
  H   H113      1.0  0.11576  0.21490  0.41110  1.0000
  C   C73       1.0  0.44203  0.11662  0.52551  1.0000
  H   H114      1.0  0.29560  0.17478  0.62179  1.0000
  H   H115      1.0  0.26940  0.00623  0.48873  1.0000
  N   N4        1.0  0.25807  0.35009  0.55869  1.0000
  C   C74       1.0  0.28476  0.34710  0.54290  1.0000
  S   S24       1.0  0.46547  0.08349  0.52706  1.0000
  C   C75       1.0  0.22959  0.30517  0.56625  1.0000
  C   C76       1.0  0.23015  0.36831  0.55223  1.0000
  H   H116      1.0  0.23363  0.44692  0.52148  1.0000
  C   C77       1.0  0.25907  0.31541  0.52676  1.0000
  C   C78       1.0  0.20127  0.30069  0.58369  1.0000
  H   H117      1.0  0.02885  0.42102  0.42147  1.0000
  H   H118      1.0  0.37387  0.01231  0.64459  1.0000
  H   H119      1.0  0.39513  0.09022  0.63136  1.0000
  C   C79       1.0  0.28555  0.32606  0.50855  1.0000
  C   C80       1.0  0.16840  0.25367  0.58768  1.0000
  H   H120      1.0  0.30687  0.33647  0.54867  1.0000
  H   H121      1.0  0.30654  0.37898  0.53655  1.0000
  C   C81       1.0  0.22088  0.42383  0.53350  1.0000
  H   H122      1.0  0.29383  0.11398  0.53606  1.0000
  H   H123      1.0  0.24934  0.29026  0.57016  1.0000
  H   H124      1.0  0.20715  0.28426  0.55508  1.0000
  H   H125      1.0  0.19842  0.34225  0.54715  1.0000
  H   H126      1.0  0.22242  0.38268  0.56449  1.0000
  H   H127      1.0  0.28162  0.42748  0.53834  1.0000
  H   H128      1.0  0.45140  0.13243  0.55517  1.0000
  H   H129      1.0  0.25034  0.28227  0.53113  1.0000
  H   H130      1.0  0.22878  0.31540  0.52355  1.0000
  H   H131      1.0  0.18349  0.31827  0.58148  1.0000
  H   H132      1.0  0.22132  0.31308  0.59661  1.0000
  H   H133      1.0  0.00118  0.24816  0.39502  1.0000
  C   C82       1.0  0.31927  0.42428  0.57029  1.0000
  C   C83       1.0  0.28769  0.37632  0.57453  1.0000
  H   H134      1.0  0.44760  0.09011  0.60902  1.0000
  H   H135      1.0  0.19879  0.98942  0.44264  1.0000
  H   H136      1.0  0.02628  0.43209  0.44616  1.0000
  N   N5        1.0  0.29844  0.00549  0.51552  1.0000
  H   H137      1.0  0.33276  0.44484  0.59976  1.0000
  C   C84       1.0  0.97895  0.06455  0.40412  1.0000
  C   C85       1.0  0.33831  0.04227  0.48429  1.0000
  H   H138      1.0  0.29216  0.35759  0.50280  1.0000
  H   H139      1.0  0.14830  0.25130  0.60008  1.0000
  H   H140      1.0  0.14699  0.23895  0.57529  1.0000
  H   H141      1.0  0.18501  0.23524  0.59091  1.0000
  C   C86       1.0  0.28461  0.04983  0.54117  1.0000
  H   H142      1.0  0.33488  0.11268  0.55049  1.0000
  C   C87       1.0  0.30522  0.04857  0.52203  1.0000
  H   H143      1.0  0.29181  0.06207  0.51151  1.0000
  H   H144      1.0  0.36874  0.42852  0.58966  1.0000
  C   C88       1.0  0.07747  0.15245  0.44718  1.0000
  H   H145      1.0  0.30549  0.04475  0.45873  1.0000
  C   C89       1.0  0.99406  0.21468  0.39281  1.0000
  H   H146      1.0  0.01005  0.20982  0.42167  1.0000
  H   H147      1.0  0.31660  0.32715  0.51126  1.0000
  H   H148      1.0  0.08775  0.13159  0.41076  1.0000
  C   C90       1.0  0.33790  0.99372  0.54381  1.0000
  H   H149      1.0  0.40266  0.00259  0.54321  1.0000
  H   H150      1.0  0.36268  0.06653  0.45615  1.0000
  H   H151      1.0  0.06715  0.19947  0.43296  1.0000
  H   H152      1.0  0.34920  0.02509  0.55081  1.0000
  C   C91       1.0  0.00572  0.15529  0.40602  1.0000
  H   H153      1.0  0.26747  0.30105  0.49780  1.0000
  H   H154      1.0  0.10669  0.21172  0.46352  1.0000
  H   H155      1.0  0.29221  0.03372  0.55270  1.0000
  H   H156      1.0  0.36712  0.03961  0.48749  1.0000
  H   H157      1.0  0.10796  0.16107  0.43972  1.0000
  C   C92       1.0  0.43153  0.06352  0.61947  1.0000
  H   H158      1.0  0.99825  0.07001  0.39111  1.0000
  C   C93       1.0  0.47116  0.15236  0.45687  1.0000
  C   C94       1.0  0.00664  0.09373  0.42063  1.0000
  H   H159      1.0  0.09079  0.20624  0.38800  1.0000
  H   H160      1.0  0.36638  0.02661  0.51797  1.0000
  H   H161      1.0  0.05875  0.12995  0.39035  1.0000
  C   C95       1.0  0.43971  0.13755  0.54183  1.0000
  C   C96       1.0  0.04879  0.16422  0.43492  1.0000
  N   N6        1.0  0.03373  0.14114  0.41626  1.0000
  C   C97       1.0  0.07075  0.14703  0.40399  1.0000
  H   H162      1.0  0.32782  0.00932  0.45729  1.0000
  H   H163      1.0  0.98978  0.43507  0.42933  1.0000
  C   C98       1.0  0.35041  0.44538  0.58676  1.0000
  H   H164      1.0  0.34416  0.07412  0.48892  1.0000
  H   H165      1.0  0.00298  0.14650  0.39078  1.0000
  H   H166      1.0  0.02729  0.08060  0.42555  1.0000
  H   H167      1.0  0.02044  0.15818  0.44363  1.0000
  H   H168      1.0  0.24376  0.02540  0.40416  1.0000
  H   H169      1.0  0.46081  0.16047  0.44339  1.0000
  H   H170      1.0  0.05959  0.16743  0.47441  1.0000
  C   C99       1.0  0.01837  0.20329  0.40740  1.0000
  H   H171      1.0  0.41528  0.48006  0.64215  1.0000
  H   H172      1.0  0.40353  0.03642  0.61245  1.0000
  C   C100      1.0  0.33303  0.04045  0.46279  1.0000
  C   C101      1.0  0.29997  0.09590  0.54730  1.0000
  H   H173      1.0  0.45475  0.05315  0.62386  1.0000
  H   H174      1.0  0.34019  0.07242  0.52276  1.0000
  H   H175      1.0  0.18690  0.39967  0.53044  1.0000
  H   H176      1.0  0.27001  0.02888  0.42655  1.0000
  H   H177      1.0  0.26902  0.37657  0.58700  1.0000
  C   C102      1.0  0.33482  0.99889  0.52217  1.0000
  H   H178      1.0  0.30128  0.44178  0.56845  1.0000
  H   H179      1.0  0.28258  0.09584  0.56031  1.0000
  H   H180      1.0  0.28060  0.00517  0.40635  1.0000
  H   H181      1.0  0.10997  0.16789  0.47434  1.0000
  H   H182      1.0  0.13496  0.17513  0.37666  1.0000
  H   H183      1.0  0.44568  0.10718  0.64238  1.0000
  H   H184      1.0  0.24723  0.38659  0.52233  1.0000
  C   C103      1.0  0.24799  0.40212  0.53596  1.0000
  C   C104      1.0  0.41687  0.07888  0.63655  1.0000
  S   S25       1.0  0.44159  0.03539  0.47418  1.0000
  C   C105      1.0  0.02314  0.44140  0.43147  1.0000
  H   H185      1.0  0.17239  0.98725  0.42123  1.0000
  C   C106      1.0  0.08907  0.17652  0.46596  1.0000
  H   H186      1.0  0.24907  0.03362  0.53968  1.0000
  H   H187      1.0  0.98415  0.00853  0.41233  1.0000
  H   H188      1.0  0.42934  0.10822  0.49566  1.0000
  H   H189      1.0  0.00392  0.21198  0.37822  1.0000
  H   H190      1.0  0.22222  0.44174  0.54649  1.0000
  C   C107      1.0  0.29255  0.14569  0.64914  1.0000
  H   H191      1.0  0.24999  0.99771  0.64068  1.0000
  H   H192      1.0  0.98409  0.08839  0.43251  1.0000
  H   H193      1.0  0.15099  0.99458  0.46032  1.0000
  C   C108      1.0  0.29820  0.00535  0.49412  1.0000
  C   C109      1.0  0.26670  0.03303  0.64252  1.0000
  H   H194      1.0  0.33030  0.08647  0.64551  1.0000
  H   H195      1.0  0.06086  0.11780  0.45069  1.0000
  H   H196      1.0  0.09466  0.99309  0.48022  1.0000
  C   C110      1.0  0.31507  0.05113  0.64493  1.0000
  H   H197      1.0  0.26069  0.04765  0.62981  1.0000
  H   H198      1.0  0.32635  0.04196  0.63210  1.0000
  H   H199      1.0  0.37851  0.30124  0.64832  1.0000
  Fe  Fe13      1.0  0.46379  0.03874  0.50399  1.0000
  H   H200      1.0  0.07875  0.98900  0.45580  1.0000
  H   H201      1.0  0.25865  0.12254  0.64798  1.0000
  H   H202      1.0  0.37380  0.47926  0.58308  1.0000
  H   H203      1.0  0.46324  0.16754  0.46863  1.0000
  C   C111      1.0  0.26234  0.42415  0.96257  1.0000
  H   H204      1.0  0.10725  0.10654  0.82982  1.0000
  H   H205      1.0  0.16343  0.13120  0.80497  1.0000
  Fe  Fe14      1.0  0.03585  0.31715  0.88425  1.0000
  C   C112      1.0  0.32490  0.03245  0.66283  1.0000
  Fe  Fe15      1.0  0.04379  0.39866  0.90308  1.0000
  H   H206      1.0  0.26204  0.27298  0.81917  1.0000
  S   S26       1.0  0.01859  0.33026  0.91333  1.0000
  H   H207      1.0  0.44143  0.25716  0.76340  1.0000
  H   H208      1.0  0.21174  0.30392  0.91973  1.0000
  C   C113      1.0  0.37974  0.33819  0.73842  1.0000
  H   H209      1.0  0.17547  0.08028  0.83733  1.0000
  H   H210      1.0  0.25561  0.39132  0.95912  1.0000
  N   N7        1.0  0.37175  0.05025  0.66777  1.0000
  H   H211      1.0  0.29871  0.44403  0.90870  1.0000
  C   C114      1.0  0.03521  0.25617  0.98354  1.0000
  C   C115      1.0  0.26224  0.39679  0.86472  1.0000
  C   C116      1.0  0.25911  0.46706  0.84975  1.0000
  C   C117      1.0  0.43591  0.02120  0.73613  1.0000
  Fe  Fe16      1.0  0.27454  0.05504  0.75102  1.0000
  S   S27       1.0  0.34022  0.08858  0.76464  1.0000
  H   H212      1.0  0.16611  0.31906  0.97317  1.0000
  Fe  Fe17      1.0  0.31117  0.10271  0.71311  1.0000
  S   S28       1.0  0.37792  0.14090  0.72465  1.0000
  S   S29       1.0  0.28766  0.10773  0.68371  1.0000
  Fe  Fe18      1.0  0.36588  0.07721  0.73727  1.0000
  S   S30       1.0  0.41963  0.06045  0.73134  1.0000
  Fe  Fe19      1.0  0.34705  0.14869  0.75114  1.0000
  S   S31       1.0  0.34773  0.20300  0.76818  1.0000
  S   S32       1.0  0.29945  0.03904  0.72462  1.0000
  S   S33       1.0  0.28105  0.11485  0.73833  1.0000
  C   C118      1.0  0.20669  0.47071  0.94761  1.0000
  S   S34       1.0  0.05675  0.38415  0.87364  1.0000
  Fe  Fe20      1.0  0.08754  0.35062  0.92069  1.0000
  S   S35       1.0  0.11184  0.41928  0.91256  1.0000
  S   S36       1.0  0.11238  0.32792  0.94547  1.0000
  Fe  Fe21      1.0  0.12261  0.40038  0.88370  1.0000
  Fe  Fe22      1.0  0.98741  0.99144  0.79868  1.0000
  S   S37       1.0  0.10276  0.33295  0.89218  1.0000
  H   H213      1.0  0.43498  0.10924  0.69655  1.0000
  S   S38       1.0  0.45635  0.44299  0.83772  1.0000
  H   H214      1.0  0.04367  0.15959  0.87730  1.0000
  H   H215      1.0  0.31142  0.45012  0.94121  1.0000
  C   C119      1.0  0.01096  0.44363  0.85240  1.0000
  H   H216      1.0  0.25929  0.23733  0.83786  1.0000
  C   C120      1.0  0.35808  0.35629  0.75110  1.0000
  C   C121      1.0  0.13150  0.35283  0.96772  1.0000
  C   C122      1.0  0.12025  0.38195  0.97503  1.0000
  C   C123      1.0  0.45907  0.16718  0.68037  1.0000
  H   H217      1.0  0.24327  0.37514  0.90515  1.0000
  H   H218      1.0  0.10032  0.39075  0.96679  1.0000
  H   H219      1.0  0.46176  0.17831  0.66546  1.0000
  C   C124      1.0  0.28429  0.45507  0.94548  1.0000
  C   C125      1.0  0.24208  0.20820  0.80985  1.0000
  H   H220      1.0  0.29697  0.47055  0.98481  1.0000
  C   C126      1.0  0.22464  0.43710  0.86094  1.0000
  C   C127      1.0  0.22628  0.40176  0.86831  1.0000
  H   H221      1.0  0.40159  0.22785  0.70247  1.0000
  H   H222      1.0  0.30829  0.13925  0.80892  1.0000
  C   C128      1.0  0.17672  0.11084  0.80989  1.0000
  H   H223      1.0  0.20016  0.37872  0.87704  1.0000
  C   C129      1.0  0.11845  0.08447  0.83493  1.0000
  H   H224      1.0  0.36745  0.33663  0.66214  1.0000
  H   H225      1.0  0.38272  0.26488  0.67715  1.0000
  H   H226      1.0  0.37002  0.10085  0.68345  1.0000
  C   C130      1.0  0.16742  0.01387  0.77148  1.0000
  C   C131      1.0  0.15405  0.03108  0.75692  1.0000
  C   C132      1.0  0.11443  0.03039  0.75830  1.0000
  C   C133      1.0  0.08779  0.01295  0.77430  1.0000
  H   H227      1.0  0.17386  0.04420  0.74441  1.0000
  H   H228      1.0  0.10420  0.04323  0.74680  1.0000
  Fe  Fe23      1.0  0.45990  0.44120  0.80598  1.0000
  H   H229      1.0  0.21926  0.17643  0.69700  1.0000
  H   H230      1.0  0.33578  0.21593  0.69945  1.0000
  C   C134      1.0  0.38545  0.25599  0.77506  1.0000
  C   C135      1.0  0.37021  0.27986  0.78475  1.0000
  C   C136      1.0  0.39821  0.32279  0.78981  1.0000
  C   C137      1.0  0.44178  0.34240  0.78507  1.0000
  C   C138      1.0  0.45720  0.31840  0.77559  1.0000
  C   C139      1.0  0.42922  0.27529  0.77068  1.0000
  C   C140      1.0  0.20068  0.32625  0.92444  1.0000
  H   H231      1.0  0.25134  0.21980  0.79508  1.0000
  N   N8        1.0  0.22329  0.12943  0.80423  1.0000
  C   C141      1.0  0.22766  0.13370  0.78288  1.0000
  C   C142      1.0  0.28262  0.10769  0.80386  1.0000
  C   C143      1.0  0.19689  0.14523  0.77208  1.0000
  C   C144      1.0  0.20971  0.15547  0.75128  1.0000
  H   H232      1.0  0.15697  0.07957  0.80263  1.0000
  C   C145      1.0  0.41371  0.98661  0.74866  1.0000
  H   H233      1.0  0.26122  0.15756  0.77891  1.0000
  H   H234      1.0  0.22186  0.10304  0.77647  1.0000
  H   H235      1.0  0.21397  0.06515  0.80577  1.0000
  H   H236      1.0  0.28432  0.10749  0.78820  1.0000
  H   H237      1.0  0.16353  0.11761  0.77249  1.0000
  H   H238      1.0  0.19635  0.17310  0.77826  1.0000
  H   H239      1.0  0.18862  0.16572  0.74418  1.0000
  H   H240      1.0  0.24362  0.18164  0.75000  1.0000
  H   H241      1.0  0.20580  0.12653  0.74394  1.0000
  H   H242      1.0  0.29184  0.07292  0.82722  1.0000
  H   H243      1.0  0.32577  0.08196  0.80698  1.0000
  N   N9        1.0  0.12356  0.25873  0.82441  1.0000
  C   C146      1.0  0.11780  0.29738  0.82226  1.0000
  C   C147      1.0  0.16371  0.26758  0.81378  1.0000
  C   C148      1.0  0.08425  0.21997  0.81670  1.0000
  C   C149      1.0  0.12874  0.25022  0.84490  1.0000
  C   C150      1.0  0.16392  0.28878  0.85603  1.0000
  C   C151      1.0  0.08070  0.29655  0.83385  1.0000
  C   C152      1.0  0.08605  0.17767  0.81650  1.0000
  C   C153      1.0  0.16109  0.26890  0.79185  1.0000
  C   C154      1.0  0.20417  0.28057  0.78268  1.0000
  C   C155      1.0  0.16665  0.27588  0.87641  1.0000
  H   H244      1.0  0.40494  0.33242  0.69863  1.0000
  C   C156      1.0  0.04816  0.14262  0.80557  1.0000
  H   H245      1.0  0.11121  0.30149  0.80725  1.0000
  H   H246      1.0  0.14809  0.32738  0.82581  1.0000
  H   H247      1.0  0.19121  0.29909  0.81810  1.0000
  H   H248      1.0  0.17376  0.24382  0.81765  1.0000
  H   H249      1.0  0.07668  0.22657  0.80220  1.0000
  H   H250      1.0  0.05543  0.21277  0.82533  1.0000
  H   H251      1.0  0.09786  0.23808  0.85265  1.0000
  H   H252      1.0  0.13656  0.22397  0.84608  1.0000
  H   H253      1.0  0.15676  0.31541  0.85663  1.0000
  H   H254      1.0  0.19601  0.30094  0.84944  1.0000
  H   H255      1.0  0.04913  0.27035  0.82895  1.0000
  H   H256      1.0  0.08375  0.29204  0.84920  1.0000
  H   H257      1.0  0.08433  0.16575  0.83121  1.0000
  H   H258      1.0  0.11585  0.18188  0.80983  1.0000
  H   H259      1.0  0.13676  0.23728  0.78619  1.0000
  H   H260      1.0  0.15258  0.29322  0.78716  1.0000
  H   H261      1.0  0.22998  0.31218  0.78780  1.0000
  H   H262      1.0  0.21299  0.25573  0.78589  1.0000
  H   H263      1.0  0.19245  0.30385  0.88395  1.0000
  H   H264      1.0  0.13575  0.26529  0.88396  1.0000
  H   H265      1.0  0.17444  0.24960  0.87674  1.0000
  N   N10       1.0  0.36204  0.27595  0.71494  1.0000
  H   H266      1.0  0.05166  0.33603  0.83869  1.0000
  H   H267      1.0  0.07089  0.45406  0.84073  1.0000
  H   H268      1.0  0.04973  0.15168  0.79041  1.0000
  H   H269      1.0  0.04902  0.11217  0.80647  1.0000
  H   H270      1.0  0.01716  0.13679  0.81167  1.0000
  H   H271      1.0  0.01570  0.43535  0.86698  1.0000
  H   H272      1.0  0.33538  0.36244  0.74278  1.0000
  H   H273      1.0  0.35973  0.03474  0.69767  1.0000
  H   H274      1.0  0.23812  0.09655  0.82631  1.0000
  C   C157      1.0  0.25204  0.18082  0.69848  1.0000
  H   H275      1.0  0.20771  0.19772  0.81217  1.0000
  H   H276      1.0  0.25275  0.16725  0.82928  1.0000
  H   H277      1.0  0.30330  0.25850  0.82105  1.0000
  H   H278      1.0  0.37655  0.17604  0.67912  1.0000
  C   C158      1.0  0.23555  0.37246  0.92047  1.0000
  C   C159      1.0  0.16658  0.10340  0.83137  1.0000
  H   H279      1.0  0.28597  0.18482  0.80899  1.0000
  C   C160      1.0  0.99694  0.13732  0.85481  1.0000
  H   H280      1.0  0.11149  0.07889  0.85033  1.0000
  H   H281      1.0  0.39427  0.25586  0.73479  1.0000
  H   H282      1.0  0.39596  0.36127  0.72666  1.0000
  C   C161      1.0  0.26831  0.24647  0.82280  1.0000
  H   H283      1.0  0.40459  0.33643  0.74713  1.0000
  C   C162      1.0  0.29294  0.07393  0.81150  1.0000
  C   C163      1.0  0.23745  0.09814  0.81061  1.0000
  H   H284      1.0  0.41908  0.33901  0.66401  1.0000
  C   C164      1.0  0.22060  0.40495  0.92571  1.0000
  H   H285      1.0  0.34044  0.33369  0.76287  1.0000
  C   C165      1.0  0.10147  0.99635  0.78902  1.0000
  C   C166      1.0  0.25210  0.17175  0.81370  1.0000
  H   H286      1.0  0.38601  0.34097  0.79709  1.0000
  H   H287      1.0  0.18377  0.13400  0.83924  1.0000
  C   C167      1.0  0.99438  0.21394  0.86130  1.0000
  H   H288      1.0  0.17070  0.31859  0.91673  1.0000
  C   C168      1.0  0.31513  0.14602  0.66550  1.0000
  H   H289      1.0  0.24991  0.15413  0.70728  1.0000
  H   H290      1.0  0.10014  0.05331  0.82754  1.0000
  C   C169      1.0  0.36616  0.28371  0.67802  1.0000
  H   H291      1.0  0.20172  0.28256  0.76707  1.0000
  H   H292      1.0  0.17929  0.43749  0.94753  1.0000
  S   S39       1.0  0.00114  0.09059  0.85122  1.0000
  H   H293      1.0  0.33642  0.26525  0.78815  1.0000
  C   C170      1.0  0.14088  0.99654  0.78754  1.0000
  H   H294      1.0  0.19365  0.32121  0.93985  1.0000
  H   H295      1.0  0.43800  0.28308  0.69569  1.0000
  C   C171      1.0  0.29108  0.43865  0.98009  1.0000
  Fe  Fe24      1.0  0.40324  0.45885  0.83268  1.0000
  C   C172      1.0  0.35890  0.17589  0.66674  1.0000
  S   S40       1.0  0.34186  0.41936  0.85025  1.0000
  C   C173      1.0  0.08028  0.33862  0.83142  1.0000
  C   C174      1.0  0.42418  0.26029  0.70775  1.0000
  H   H296      1.0  0.28320  0.24966  0.69836  1.0000
  C   C175      1.0  0.40196  0.27593  0.72177  1.0000
  H   H297      1.0  0.10961  0.36560  0.83775  1.0000
  C   C176      1.0  0.29694  0.42691  0.85368  1.0000
  C   C177      1.0  0.34678  0.29300  0.73092  1.0000
  H   H298      1.0  0.33629  0.27047  0.74326  1.0000
  C   C178      1.0  0.37159  0.30471  0.69777  1.0000
  C   C179      1.0  0.28180  0.22401  0.70764  1.0000
  C   C180      1.0  0.29504  0.46197  0.84608  1.0000
  H   H299      1.0  0.32424  0.20958  0.72382  1.0000
  H   H300      1.0  0.26346  0.36961  0.87065  1.0000
  H   H301      1.0  0.35050  0.31931  0.69753  1.0000
  S   S41       1.0  0.40442  0.45252  0.80091  1.0000
  H   H302      1.0  0.31802  0.29494  0.72646  1.0000
  H   H303      1.0  0.07837  0.34553  0.81621  1.0000
  H   H304      1.0  0.26686  0.22505  0.72124  1.0000
  S   S42       1.0  0.01979  0.44621  0.91070  1.0000
  H   H305      1.0  0.42735  0.30872  0.72575  1.0000
  C   C181      1.0  0.32728  0.23025  0.71140  1.0000
  H   H306      1.0  0.05429  0.24742  0.97403  1.0000
  H   H307      1.0  0.45736  0.10779  0.67412  1.0000
  H   H308      1.0  0.33173  0.26159  0.67486  1.0000
  H   H309      1.0  0.26398  0.17941  0.68415  1.0000
  N   N11       1.0  0.25623  0.45049  0.92861  1.0000
  C   C182      1.0  0.37371  0.02686  0.68529  1.0000
  H   H310      1.0  0.19979  0.39259  0.93839  1.0000
  H   H311      1.0  0.19856  0.40365  0.91423  1.0000
  H   H312      1.0  0.38293  0.38707  0.75733  1.0000
  C   C183      1.0  0.38394  0.31741  0.66224  1.0000
  H   H313      1.0  0.44088  0.17888  0.68876  1.0000
  S   S43       1.0  0.03805  0.01284  0.77513  1.0000
  C   C184      1.0  0.02138  0.20453  0.87209  1.0000
  S   S44       1.0  0.99188  0.26162  0.86482  1.0000
  C   C185      1.0  0.46150  0.25832  0.71729  1.0000
  H   H314      1.0  0.26490  0.37876  0.92831  1.0000
  S   S45       1.0  0.18084  0.44560  0.86586  1.0000
  H   H315      1.0  0.15114  0.98355  0.79895  1.0000
  C   C186      1.0  0.39084  0.09694  0.67286  1.0000
  C   C187      1.0  0.15720  0.34154  0.97871  1.0000
  C   C188      1.0  0.98512  0.40191  0.84144  1.0000
  H   H316      1.0  0.23135  0.42150  0.96657  1.0000
  H   H317      1.0  0.07344  0.98971  0.85510  1.0000
  H   H318      1.0  0.04109  0.22641  0.88305  1.0000
  H   H319      1.0  0.39126  0.11630  0.66051  1.0000
  H   H320      1.0  0.97748  0.40862  0.82701  1.0000
  C   C189      1.0  0.23687  0.47926  0.93049  1.0000
  C   C190      1.0  0.02272  0.16655  0.86880  1.0000
  H   H321      1.0  0.41381  0.22821  0.65293  1.0000
  S   S46       1.0  0.00649  0.99854  0.82910  1.0000
  H   H322      1.0  0.26298  0.45902  0.89817  1.0000
  S   S47       1.0  0.21673  0.01314  0.77026  1.0000
  H   H323      1.0  0.30752  0.03645  0.67506  1.0000
  C   C191      1.0  0.28350  0.46417  0.91085  1.0000
  H   H324      1.0  0.26977  0.04174  0.80591  1.0000
  H   H325      1.0  0.42218  0.03853  0.65760  1.0000
  C   C192      1.0  0.43682  0.11831  0.68138  1.0000
  H   H326      1.0  0.40773  0.03788  0.68920  1.0000
  C   C193      1.0  0.47243  0.02488  0.72681  1.0000
  H   H327      1.0  0.00320  0.38434  0.84030  1.0000
  H   H328      1.0  0.99088  0.45909  0.85322  1.0000
  H   H329      1.0  0.44965  0.23495  0.72923  1.0000
  H   H330      1.0  0.30905  0.99746  0.66017  1.0000
  H   H331      1.0  0.25292  0.04062  0.65500  1.0000
  H   H332      1.0  0.32230  0.44034  0.97709  1.0000
  H   H333      1.0  0.21874  0.47761  0.91735  1.0000
  C   C194      1.0  0.05473  0.47343  0.84263  1.0000
  H   H334      1.0  0.00257  0.24339  0.97744  1.0000
  H   H335      1.0  0.22478  0.47692  0.96105  1.0000
  C   C195      1.0  0.98222  0.46273  0.90316  1.0000
  H   H336      1.0  0.08165  0.98349  0.80150  1.0000
  H   H337      1.0  0.05058  0.29164  0.98410  1.0000
  H   H338      1.0  0.04788  0.48009  0.82801  1.0000
  H   H339      1.0  0.38560  0.98295  0.75598  1.0000
  C   C196      1.0  0.39565  0.04300  0.65188  1.0000
  C   C197      1.0  0.37987  0.20519  0.65182  1.0000
  C   C198      1.0  0.00955  0.68028  0.18611  1.0000
  H   H340      1.0  0.12412  0.68657  0.27659  1.0000
  C   C199      1.0  0.06970  0.95304  0.19629  1.0000
  Fe  Fe25      1.0  0.00473  0.52523  0.17526  1.0000
  C   C200      1.0  0.12680  0.53392  0.19125  1.0000
  S   S48       1.0  0.04869  0.57354  0.19722  1.0000
  H   H341      1.0  0.09801  0.63688  0.22492  1.0000
  C   C201      1.0  0.02072  0.75575  0.18275  1.0000
  Fe  Fe26      1.0  0.28659  0.90844  0.22733  1.0000
  S   S49       1.0  0.24648  0.91671  0.24985  1.0000
  C   C202      1.0  0.09181  0.94605  0.21122  1.0000
  Fe  Fe27      1.0  0.20728  0.82385  0.21401  1.0000
  S   S50       1.0  0.16336  0.82645  0.23593  1.0000
  S   S51       1.0  0.18155  0.77384  0.19049  1.0000
  Fe  Fe28      1.0  0.19393  0.89650  0.22795  1.0000
  S   S52       1.0  0.15145  0.92780  0.22693  1.0000
  Fe  Fe29      1.0  0.21882  0.84644  0.25599  1.0000
  S   S53       1.0  0.21841  0.82063  0.28571  1.0000
  S   S54       1.0  0.23545  0.89325  0.20496  1.0000
  S   S55       1.0  0.26123  0.83872  0.23450  1.0000
  H   H342      1.0  0.10130  0.49997  0.19325  1.0000
  H   H343      1.0  0.09866  0.58856  0.08807  1.0000
  H   H344      1.0  0.15830  0.53691  0.19493  1.0000
  C   C203      1.0  0.18141  0.81064  0.30437  1.0000
  H   H345      1.0  0.15390  0.66249  0.14932  1.0000
  H   H346      1.0  0.25263  0.74443  0.14435  1.0000
  C   C204      1.0  0.12043  0.81368  0.17256  1.0000
  C   C205      1.0  0.14586  0.81644  0.30214  1.0000
  H   H347      1.0  0.25514  0.75454  0.16944  1.0000
  H   H348      1.0  0.14043  0.82755  0.28870  1.0000
  H   H349      1.0  0.99308  0.68032  0.11549  1.0000
  H   H350      1.0  0.13767  0.63655  0.11376  1.0000
  H   H351      1.0  0.30852  0.86712  0.28398  1.0000
  H   H352      1.0  0.06573  0.56853  0.10905  1.0000
  C   C206      1.0  0.14182  0.71903  0.19294  1.0000
  C   C207      1.0  0.12012  0.69576  0.17671  1.0000
  C   C208      1.0  0.09057  0.65139  0.17780  1.0000
  C   C209      1.0  0.08280  0.62982  0.19515  1.0000
  C   C210      1.0  0.10384  0.65329  0.21143  1.0000
  C   C211      1.0  0.13296  0.69772  0.21038  1.0000
  H   H353      1.0  0.12651  0.71210  0.16319  1.0000
  H   H354      1.0  0.07437  0.63376  0.16520  1.0000
  H   H355      1.0  0.14950  0.71519  0.22296  1.0000
  C   C212      1.0  0.06371  0.65091  0.30615  1.0000
  C   C213      1.0  0.08091  0.95137  0.17748  1.0000
  C   C214      1.0  0.13646  0.93564  0.18877  1.0000
  C   C215      1.0  0.12510  0.93700  0.20758  1.0000
  H   H356      1.0  0.19544  0.67312  0.13290  1.0000
  H   H357      1.0  0.34575  0.89177  0.25462  1.0000
  H   H358      1.0  0.16227  0.92918  0.18574  1.0000
  H   H359      1.0  0.02778  0.72552  0.20867  1.0000
  H   H360      1.0  0.06451  0.78068  0.24197  1.0000
  C   C216      1.0  0.43939  0.96060  0.29224  1.0000
  H   H361      1.0  0.39874  0.90979  0.22888  1.0000
  C   C217      1.0  0.35912  0.95944  0.27605  1.0000
  H   H362      1.0  0.08621  0.79836  0.20860  1.0000
  H   H363      1.0  0.14452  0.61226  0.17520  1.0000
  H   H364      1.0  0.26714  0.58147  0.13431  1.0000
  H   H365      1.0  0.19444  0.54439  0.14890  1.0000
  H   H366      1.0  0.20706  0.74194  0.15652  1.0000
  H   H367      1.0  0.11818  0.55341  0.13465  1.0000
  H   H368      1.0  0.08390  0.83780  0.24342  1.0000
  H   H369      1.0  0.01798  0.65960  0.19476  1.0000
  C   C218      1.0  0.10488  0.70251  0.27923  1.0000
  H   H370      1.0  0.10289  0.59094  0.14144  1.0000
  H   H371      1.0  0.16384  0.60653  0.10747  1.0000
  H   H372      1.0  0.24440  0.68193  0.16229  1.0000
  H   H373      1.0  0.07482  0.71671  0.30198  1.0000
  H   H374      1.0  0.13367  0.52660  0.16165  1.0000
  H   H375      1.0  0.17097  0.54441  0.12612  1.0000
  H   H376      1.0  0.23436  0.62220  0.14987  1.0000
  H   H377      1.0  0.20205  0.68066  0.17635  1.0000
  H   H378      1.0  0.39592  0.92805  0.31502  1.0000
  H   H379      1.0  0.02483  0.82917  0.22208  1.0000
  H   H380      1.0  0.22000  0.62745  0.12660  1.0000
  H   H381      1.0  0.09526  0.54321  0.10048  1.0000
  H   H382      1.0  0.42173  0.58911  0.10447  1.0000
  H   H383      1.0  0.06910  0.73754  0.19170  1.0000
  H   H384      1.0  0.09395  0.54105  0.16730  1.0000
  C   C219      1.0  0.23382  0.73489  0.15774  1.0000
  H   H385      1.0  0.18934  0.60397  0.17544  1.0000
  H   H386      1.0  0.39647  0.90416  0.26467  1.0000
  C   C220      1.0  0.15593  0.84049  0.15826  1.0000
  H   H387      1.0  0.42406  0.54933  0.08981  1.0000
  H   H388      1.0  0.02543  0.56305  0.30490  1.0000
  H   H389      1.0  0.46801  0.53955  0.11552  1.0000
  H   H390      1.0  0.04399  0.95963  0.19935  1.0000
  H   H391      1.0  0.39827  0.53433  0.11259  1.0000
  H   H392      1.0  0.12218  0.71419  0.30846  1.0000
  H   H393      1.0  0.12360  0.94159  0.15936  1.0000
  C   C221      1.0  0.42361  0.94308  0.22892  1.0000
  N   N12       1.0  0.04802  0.80359  0.18583  1.0000
  C   C222      1.0  0.09617  0.57431  0.10232  1.0000
  H   H394      1.0  0.44768  0.52466  0.04699  1.0000
  N   N13       1.0  0.16954  0.61165  0.14730  1.0000
  C   C223      1.0  0.12999  0.58838  0.13506  1.0000
  C   C224      1.0  0.15928  0.59569  0.16756  1.0000
  C   C225      1.0  0.18255  0.65866  0.14706  1.0000
  C   C226      1.0  0.20706  0.60800  0.13976  1.0000
  C   C227      1.0  0.19901  0.56239  0.13553  1.0000
  C   C228      1.0  0.13500  0.60443  0.11427  1.0000
  C   C229      1.0  0.21659  0.68735  0.16197  1.0000
  H   H395      1.0  0.97638  0.63800  0.13285  1.0000
  C   C230      1.0  0.34405  0.88659  0.28553  1.0000
  C   C231      1.0  0.23771  0.56425  0.12553  1.0000
  H   H396      1.0  0.17020  0.87523  0.16131  1.0000
  C   C232      1.0  0.03508  0.80462  0.22183  1.0000
  H   H397      1.0  0.09802  0.85909  0.17150  1.0000
  H   H398      1.0  0.24315  0.58043  0.11154  1.0000
  H   H399      1.0  0.98803  0.79030  0.15716  1.0000
  H   H400      1.0  0.08161  0.63453  0.30191  1.0000
  C   C233      1.0  0.08331  0.82368  0.17115  1.0000
  C   C234      1.0  0.12686  0.54739  0.17068  1.0000
  N   N14       1.0  0.35666  0.93109  0.29244  1.0000
  H   H401      1.0  0.36812  0.82721  0.27267  1.0000
  C   C235      1.0  0.06747  0.81456  0.20539  1.0000
  H   H402      1.0  0.14316  0.83402  0.14359  1.0000
  C   C236      1.0  0.02012  0.82397  0.18348  1.0000
  H   H403      1.0  0.03812  0.85827  0.18789  1.0000
  C   C237      1.0  0.46717  0.95412  0.23136  1.0000
  C   C238      1.0  0.39815  0.95019  0.30347  1.0000
  H   H404      1.0  0.18188  0.83220  0.15930  1.0000
  S   S56       1.0  0.99484  0.53664  0.14484  1.0000
  H   H405      1.0  0.13551  0.82132  0.18676  1.0000
  H   H406      1.0  0.29178  0.91877  0.29729  1.0000
  H   H407      1.0  0.02930  0.84560  0.15379  1.0000
  C   C239      1.0  0.41245  0.97496  0.22625  1.0000
  C   C240      1.0  0.09209  0.69857  0.30011  1.0000
  H   H408      1.0  0.35287  0.86933  0.29620  1.0000
  H   H409      1.0  0.07000  0.81398  0.15663  1.0000
  H   H410      1.0  0.23157  0.53116  0.12313  1.0000
  H   H411      1.0  0.10866  0.77956  0.16921  1.0000
  H   H412      1.0  0.09154  0.84930  0.20617  1.0000
  H   H413      1.0  0.00604  0.77266  0.22012  1.0000
  C   C241      1.0  0.36142  0.88292  0.26598  1.0000
  C   C242      1.0  0.11446  0.94273  0.17385  1.0000
  H   H414      1.0  0.29380  0.86047  0.31610  1.0000
  H   H415      1.0  0.36257  0.83507  0.24781  1.0000
  H   H416      1.0  0.31618  0.81449  0.26309  1.0000
  C   C243      1.0  0.32151  0.92714  0.30557  1.0000
  H   H417      1.0  0.38342  0.96290  0.26546  1.0000
  C   C244      1.0  0.03446  0.72637  0.19328  1.0000
  C   C245      1.0  0.45560  0.51085  0.05891  1.0000
  H   H418      1.0  0.01810  0.67868  0.17114  1.0000
  S   S57       1.0  0.05478  0.96015  0.15795  1.0000
  C   C246      1.0  0.05513  0.80581  0.24107  1.0000
  C   C247      1.0  0.42555  0.56029  0.10459  1.0000
  H   H419      1.0  0.03153  0.79988  0.25250  1.0000
  C   C248      1.0  0.35139  0.83703  0.26224  1.0000
  S   S58       1.0  0.35752  0.96331  0.22426  1.0000
  H   H420      1.0  0.12489  0.73695  0.27534  1.0000
  H   H421      1.0  0.32821  0.94391  0.26815  1.0000
  H   H422      1.0  0.03444  0.63652  0.29706  1.0000
  H   H423      1.0  0.07593  0.68804  0.27005  1.0000
  H   H424      1.0  0.12013  0.55406  0.20100  1.0000
  H   H425      1.0  0.01873  0.74837  0.16737  1.0000
  H   H426      1.0  0.98299  0.68912  0.13976  1.0000
  H   H427      1.0  0.08283  0.94733  0.22573  1.0000
  H   H428      1.0  0.43911  0.93042  0.28874  1.0000
  H   H429      1.0  0.46863  0.58296  0.12819  1.0000
  H   H430      1.0  0.97434  0.66744  0.18728  1.0000
  C   C249      1.0  0.00278  0.82299  0.16323  1.0000
  H   H431      1.0  0.99160  0.80824  0.19299  1.0000
  H   H432      1.0  0.44290  0.97886  0.27904  1.0000
  H   H433      1.0  0.33109  0.95828  0.31252  1.0000
  H   H434      1.0  0.98685  0.74408  0.18719  1.0000
  H   H435      1.0  0.08966  0.81217  0.31547  1.0000
  C   C250      1.0  0.11714  0.80770  0.31735  1.0000
  H   H436      1.0  0.98254  0.86978  0.16933  1.0000
  H   H437      1.0  0.40369  0.97976  0.31085  1.0000
  C   C251      1.0  0.46809  0.57035  0.11388  1.0000
  H   H438      1.0  0.09673  0.87027  0.46700  1.0000
  Fe  Fe30      1.0  0.05069  0.66732  0.40332  1.0000
  S   S59       1.0  0.02263  0.70980  0.39622  1.0000
  S   S60       1.0  0.02380  0.59725  0.39314  1.0000
  Fe  Fe31      1.0  0.05308  0.74585  0.42307  1.0000
  S   S61       1.0  0.02281  0.76675  0.44628  1.0000
  S   S62       1.0  0.07670  0.70004  0.43142  1.0000
  H   H439      1.0  0.11981  0.51713  0.45730  1.0000
  H   H440      1.0  0.23753  0.91979  0.50023  1.0000
  H   H441      1.0  0.05277  0.49550  0.41265  1.0000
  C   C252      1.0  0.11027  0.93615  0.44382  1.0000
  H   H442      1.0  0.18925  0.67067  0.34595  1.0000
  C   C253      1.0  0.02318  0.66320  0.33052  1.0000
  C   C254      1.0  0.00942  0.80815  0.44477  1.0000
  H   H443      1.0  0.11495  0.82188  0.48421  1.0000
  H   H444      1.0  0.07173  0.84693  0.39130  1.0000
  H   H445      1.0  0.40394  0.64876  0.61905  1.0000
  C   C255      1.0  0.12608  0.89545  0.42060  1.0000
  H   H446      1.0  0.06985  0.57576  0.32036  1.0000
  S   S63       1.0  0.33594  0.93347  0.47072  1.0000
  Fe  Fe32      1.0  0.40765  0.96355  0.47789  1.0000
  Fe  Fe33      1.0  0.13708  0.74676  0.41595  1.0000
  S   S64       1.0  0.11497  0.79368  0.40897  1.0000
  S   S65       1.0  0.20408  0.76375  0.42615  1.0000
  Fe  Fe34      1.0  0.08671  0.75449  0.38261  1.0000
  S   S66       1.0  0.08611  0.78201  0.35349  1.0000
  S   S67       1.0  0.11343  0.71119  0.38847  1.0000
  C   C256      1.0  0.30050  0.88664  0.45780  1.0000
  C   C257      1.0  0.31241  0.85707  0.45169  1.0000
  C   C258      1.0  0.28260  0.81979  0.44197  1.0000
  C   C259      1.0  0.24072  0.81177  0.43808  1.0000
  C   C260      1.0  0.22895  0.84160  0.44402  1.0000
  C   C261      1.0  0.25861  0.87866  0.45391  1.0000
  H   H447      1.0  0.34441  0.86265  0.45463  1.0000
  H   H448      1.0  0.29205  0.79693  0.43748  1.0000
  H   H449      1.0  0.19685  0.83575  0.44116  1.0000
  H   H450      1.0  0.24911  0.90126  0.45865  1.0000
  C   C262      1.0  0.05564  0.48865  0.42780  1.0000
  C   C263      1.0  0.27413  0.89459  0.33455  1.0000
  H   H451      1.0  0.10417  0.69909  0.33920  1.0000
  H   H452      1.0  0.04255  0.69878  0.32938  1.0000
  C   C264      1.0  0.18278  0.96854  0.43025  1.0000
  H   H453      1.0  0.17523  0.89610  0.52277  1.0000
  H   H454      1.0  0.08469  0.91557  0.40602  1.0000
  H   H455      1.0  0.10986  0.83936  0.45115  1.0000
  H   H456      1.0  0.16505  0.77708  0.35070  1.0000
  H   H457      1.0  0.30684  0.96959  0.55006  1.0000
  H   H458      1.0  0.17931  0.71451  0.34199  1.0000
  H   H459      1.0  0.01272  0.81359  0.41443  1.0000
  H   H460      1.0  0.99130  0.70911  0.35032  1.0000
  H   H461      1.0  0.28752  0.92605  0.34172  1.0000
  C   C265      1.0  0.12370  0.79329  0.33494  1.0000
  C   C266      1.0  0.12327  0.86605  0.46145  1.0000
  H   H462      1.0  0.43291  0.59938  0.62352  1.0000
  H   H463      1.0  0.13907  0.94188  0.39726  1.0000
  H   H464      1.0  0.98377  0.59295  0.47672  1.0000
  H   H465      1.0  0.19323  0.85764  0.52008  1.0000
  C   C267      1.0  0.02379  0.59537  0.33086  1.0000
  H   H466      1.0  0.17691  0.93148  0.46323  1.0000
  C   C268      1.0  0.14105  0.85218  0.47802  1.0000
  C   C269      1.0  0.00765  0.60527  0.46501  1.0000
  H   H467      1.0  0.16719  0.84635  0.47321  1.0000
  H   H468      1.0  0.44245  0.65542  0.60119  1.0000
  C   C270      1.0  0.15943  0.78782  0.33721  1.0000
  H   H469      1.0  0.26354  0.86907  0.34555  1.0000
  H   H470      1.0  0.15349  0.87711  0.48915  1.0000
  C   C271      1.0  0.24329  0.92370  0.51573  1.0000
  C   C272      1.0  0.00092  0.82376  0.46150  1.0000
  H   H471      1.0  0.98517  0.86923  0.47390  1.0000
  H   H472      1.0  0.21532  0.79158  0.32382  1.0000
  H   H473      1.0  0.26905  0.91634  0.51933  1.0000
  N   N15       1.0  0.08049  0.56531  0.44136  1.0000
  C   C273      1.0  0.10286  0.58009  0.42244  1.0000
  C   C274      1.0  0.12413  0.65112  0.33699  1.0000
  C   C275      1.0  0.05844  0.59103  0.44536  1.0000
  C   C276      1.0  0.11185  0.57365  0.45723  1.0000
  C   C277      1.0  0.14005  0.55238  0.45559  1.0000
  C   C278      1.0  0.13625  0.62855  0.42057  1.0000
  C   C279      1.0  0.02597  0.57532  0.46212  1.0000
  H   H474      1.0  0.05531  0.94200  0.47089  1.0000
  H   H475      1.0  0.08837  0.88979  0.37430  1.0000
  H   H476      1.0  0.00673  0.51588  0.37814  1.0000
  C   C280      1.0  0.15737  0.63888  0.40103  1.0000
  H   H477      1.0  0.99749  0.65284  0.31958  1.0000
  H   H478      1.0  0.07846  0.57221  0.41112  1.0000
  H   H479      1.0  0.11966  0.56244  0.41850  1.0000
  H   H480      1.0  0.12585  0.94608  0.47430  1.0000
  H   H481      1.0  0.99836  0.54281  0.45947  1.0000
  H   H482      1.0  0.04074  0.59205  0.43259  1.0000
  H   H483      1.0  0.08257  0.62499  0.44844  1.0000
  H   H484      1.0  0.13345  0.60875  0.45915  1.0000
  H   H485      1.0  0.09449  0.56220  0.47093  1.0000
  C   C281      1.0  0.30800  0.89345  0.32181  1.0000
  H   H486      1.0  0.01832  0.49790  0.31971  1.0000
  H   H487      1.0  0.12072  0.64841  0.42218  1.0000
  H   H488      1.0  0.16210  0.63855  0.43128  1.0000
  H   H489      1.0  0.04147  0.57439  0.47556  1.0000
  H   H490      1.0  0.11262  0.61831  0.34266  1.0000
  C   C282      1.0  0.46158  0.52597  0.55159  1.0000
  H   H491      1.0  0.02124  0.51916  0.34304  1.0000
  C   C283      1.0  0.16523  0.68134  0.34767  1.0000
  C   C284      1.0  0.20220  0.88995  0.52553  1.0000
  H   H492      1.0  0.15839  0.56054  0.48543  1.0000
  H   H493      1.0  0.20730  0.89008  0.54106  1.0000
  H   H494      1.0  0.43550  0.50651  0.61966  1.0000
  H   H495      1.0  0.18013  0.67393  0.39986  1.0000
  H   H496      1.0  0.17555  0.62169  0.39880  1.0000
  H   H497      1.0  0.13259  0.62964  0.38981  1.0000
  C   C285      1.0  0.98850  0.87469  0.44355  1.0000
  H   H498      1.0  0.44098  0.78524  0.51612  1.0000
  H   H499      1.0  0.15741  0.55990  0.44190  1.0000
  C   C286      1.0  0.45198  0.63288  0.62852  1.0000
  H   H500      1.0  0.98402  0.89414  0.52006  1.0000
  C   C287      1.0  0.11251  0.91115  0.40274  1.0000
  H   H501      1.0  0.14895  0.88460  0.41626  1.0000
  C   C288      1.0  0.44438  0.50465  0.63460  1.0000
  H   H502      1.0  0.07835  0.65528  0.35485  1.0000
  H   H503      1.0  0.18242  0.89883  0.44616  1.0000
  C   C289      1.0  0.99078  0.85701  0.46093  1.0000
  H   H504      1.0  0.33398  0.97112  0.51485  1.0000
  H   H505      1.0  0.19316  0.55158  0.47003  1.0000
  H   H506      1.0  0.23213  0.94889  0.42836  1.0000
  H   H507      1.0  0.03854  0.50427  0.45509  1.0000
  H   H508      1.0  0.03362  0.63801  0.46873  1.0000
  C   C290      1.0  0.01106  0.51945  0.32821  1.0000
  C   C291      1.0  0.46948  0.81374  0.52091  1.0000
  C   C292      1.0  0.21842  0.96466  0.41945  1.0000
  H   H509      1.0  0.02412  0.58899  0.34634  1.0000
  H   H510      1.0  0.20587  0.94598  0.40624  1.0000
  H   H511      1.0  0.99131  0.60715  0.45196  1.0000
  H   H512      1.0  0.15859  0.68142  0.36299  1.0000
  H   H513      1.0  0.02532  0.66757  0.36159  1.0000
  H   H514      1.0  0.07951  0.90587  0.44620  1.0000
  C   C293      1.0  0.98640  0.54302  0.40023  1.0000
  C   C294      1.0  0.17391  0.56794  0.47125  1.0000
  C   C295      1.0  0.00097  0.65378  0.35021  1.0000
  S   S68       1.0  0.97663  0.91711  0.44182  1.0000
  N   N16       1.0  0.14449  0.92692  0.43666  1.0000
  C   C296      1.0  0.15904  0.90757  0.45199  1.0000
  H   H515      1.0  0.00267  0.81034  0.47500  1.0000
  C   C297      1.0  0.00701  0.82576  0.42742  1.0000
  C   C298      1.0  0.04650  0.51831  0.44056  1.0000
  H   H516      1.0  0.45466  0.85713  0.50551  1.0000
  C   C299      1.0  0.98538  0.50885  0.39008  1.0000
  C   C300      1.0  0.99656  0.85874  0.42683  1.0000
  H   H517      1.0  0.12620  0.87400  0.38233  1.0000
  C   C301      1.0  0.09893  0.87842  0.38676  1.0000
  C   C302      1.0  0.08894  0.66357  0.33988  1.0000
  H   H518      1.0  0.98056  0.61891  0.35298  1.0000
  C   C303      1.0  0.43840  0.65958  0.61647  1.0000
  H   H519      1.0  0.09678  0.86578  0.42534  1.0000
  H   H520      1.0  0.33571  0.89960  0.33087  1.0000
  H   H521      1.0  0.19609  0.60307  0.46998  1.0000
  H   H522      1.0  0.99467  0.87198  0.41330  1.0000
  H   H523      1.0  0.45754  0.69409  0.62016  1.0000
  H   H524      1.0  0.36011  0.94724  0.54218  1.0000
  H   H525      1.0  0.44323  0.63501  0.64334  1.0000
  H   H526      1.0  0.24554  0.88885  0.32614  1.0000
  H   H527      1.0  0.43569  0.55632  0.64414  1.0000
  H   H528      1.0  0.46296  0.55056  0.54224  1.0000
  H   H529      1.0  0.01594  0.51464  0.43479  1.0000
  H   H530      1.0  0.10258  0.95365  0.43285  1.0000
  H   H531      1.0  0.29566  0.97525  0.48867  1.0000
  S   S69       1.0  0.98104  0.96246  0.49537  1.0000
  C   C304      1.0  0.12130  0.96317  0.46217  1.0000
  C   C305      1.0  0.18793  0.79617  0.32196  1.0000
  H   H532      1.0  0.98938  0.58369  0.32734  1.0000
  N   N17       1.0  0.05073  0.64299  0.32678  1.0000
  S   S70       1.0  0.42735  0.96742  0.50855  1.0000
  C   C306      1.0  0.37020  0.97906  0.54853  1.0000
  C   C307      1.0  0.08528  0.97227  0.46752  1.0000
  H   H533      1.0  0.08818  0.49318  0.42991  1.0000
  H   H534      1.0  0.97576  0.50675  0.32791  1.0000
  S   S71       1.0  0.46453  0.95860  0.46694  1.0000
  C   C308      1.0  0.46153  0.54808  0.64428  1.0000
  C   C309      1.0  0.25509  0.96967  0.52195  1.0000
  H   H535      1.0  0.25191  0.96881  0.53756  1.0000
  H   H536      1.0  0.13323  0.65244  0.32193  1.0000
  H   H537      1.0  0.46896  0.49440  0.63476  1.0000
  H   H538      1.0  0.37221  0.97632  0.56412  1.0000
  H   H539      1.0  0.22927  0.97574  0.51665  1.0000
  C   C310      1.0  0.03511  0.56488  0.31999  1.0000
  C   C311      1.0  0.43492  0.48202  0.54705  1.0000
  C   C312      1.0  0.11971  0.54377  0.83949  1.0000
  H   H540      1.0  0.25826  0.49458  0.84399  1.0000
  H   H541      1.0  0.08967  0.95123  0.83079  1.0000
  S   S72       1.0  0.45746  0.56687  0.77667  1.0000
  H   H542      1.0  0.16614  0.49342  0.95969  1.0000
  H   H543      1.0  0.06116  0.57412  0.83425  1.0000
  H   H544      1.0  0.20498  0.59123  0.82693  1.0000
  C   C313      1.0  0.04336  0.81814  0.83348  1.0000
  C   C314      1.0  0.15093  0.52776  0.83339  1.0000
  C   C315      1.0  0.46468  0.96048  0.74262  1.0000
  H   H545      1.0  0.16554  0.56297  0.87212  1.0000
  H   H546      1.0  0.10589  0.54871  0.82623  1.0000
  H   H547      1.0  0.26251  0.51326  0.93195  1.0000
  H   H548      1.0  0.12452  0.56289  0.88685  1.0000
  H   H549      1.0  0.11917  0.90658  0.77723  1.0000
  H   H550      1.0  0.99521  0.81674  0.80761  1.0000
  N   N18       1.0  0.04733  0.85956  0.82608  1.0000
  C   C316      1.0  0.08864  0.88270  0.81493  1.0000
  C   C317      1.0  0.05028  0.88609  0.84314  1.0000
  H   H551      1.0  0.31549  0.96326  0.68456  1.0000
  H   H552      1.0  0.13898  0.57639  0.84563  1.0000
  C   C318      1.0  0.36299  0.95805  0.70073  1.0000
  C   C319      1.0  0.09415  0.85638  0.79894  1.0000
  H   H553      1.0  0.02845  0.74944  0.85711  1.0000
  C   C320      1.0  0.06033  0.93266  0.83944  1.0000
  C   C321      1.0  0.18552  0.55973  0.81992  1.0000
  C   C322      1.0  0.13725  0.54272  0.88116  1.0000
  C   C323      1.0  0.12887  0.88552  0.78478  1.0000
  H   H554      1.0  0.15996  0.90587  0.79209  1.0000
  H   H555      1.0  0.11682  0.89364  0.82455  1.0000
  H   H556      1.0  0.09229  0.91250  0.80848  1.0000
  H   H557      1.0  0.03672  0.51810  0.87058  1.0000
  H   H558      1.0  0.07522  0.88765  0.85308  1.0000
  H   H559      1.0  0.07331  0.82451  0.84102  1.0000
  C   C324      1.0  0.00791  0.84879  0.81430  1.0000
  H   H560      1.0  0.17075  0.56408  0.80687  1.0000
  H   H561      1.0  0.01952  0.87060  0.85121  1.0000
  C   C325      1.0  0.18815  0.50089  0.94742  1.0000
  H   H562      1.0  0.08274  0.56814  0.86600  1.0000
  H   H563      1.0  0.10400  0.83409  0.80514  1.0000
  H   H564      1.0  0.16960  0.49686  0.93428  1.0000
  H   H565      1.0  0.33183  0.51226  0.87968  1.0000
  C   C326      1.0  0.32061  0.51141  0.91006  1.0000
  H   H566      1.0  0.06369  0.83699  0.79109  1.0000
  H   H567      1.0  0.03263  0.93236  0.83241  1.0000
  C   C327      1.0  0.35093  0.97721  0.68403  1.0000
  S   S73       1.0  0.44879  0.53048  0.83266  1.0000
  H   H568      1.0  0.99061  0.72825  0.83761  1.0000
  H   H569      1.0  0.01688  0.52013  0.83439  1.0000
  H   H570      1.0  0.99292  0.57255  0.84047  1.0000
  H   H571      1.0  0.11515  0.48253  0.86633  1.0000
  H   H572      1.0  0.03800  0.88493  0.78775  1.0000
  C   C328      1.0  0.06036  0.53705  0.85924  1.0000
  H   H573      1.0  0.97339  0.62235  0.94713  1.0000
  H   H574      1.0  0.17855  0.55610  0.90564  1.0000
  H   H575      1.0  0.32148  0.48543  0.83757  1.0000
  H   H576      1.0  0.16713  0.50794  0.89321  1.0000
  C   C329      1.0  0.35013  0.51897  0.89311  1.0000
  H   H577      1.0  0.46826  0.54424  0.65932  1.0000
  N   N19       1.0  0.08420  0.51460  0.85284  1.0000
  H   H578      1.0  0.20737  0.54751  0.81582  1.0000
  H   H579      1.0  0.03968  0.79649  0.82154  1.0000
  H   H580      1.0  0.01149  0.51959  0.92035  1.0000
  C   C330      1.0  0.06789  0.95696  0.85804  1.0000
  H   H581      1.0  0.02683  0.59188  0.86110  1.0000
  H   H582      1.0  0.13366  0.86574  0.77410  1.0000
  H   H583      1.0  0.01044  0.80783  0.86101  1.0000
  H   H584      1.0  0.09650  0.95980  0.86548  1.0000
  C   C331      1.0  0.42808  0.95676  0.75189  1.0000
  C   C332      1.0  0.01253  0.88002  0.79798  1.0000
  H   H585      1.0  0.47008  0.90536  0.67938  1.0000
  C   C333      1.0  0.98598  0.50092  0.91044  1.0000
  H   H586      1.0  0.30768  0.53360  0.90831  1.0000
  Fe  Fe35      1.0  0.45355  0.52335  0.80120  1.0000
  C   C334      1.0  0.99888  0.74707  0.85090  1.0000
  H   H587      1.0  0.12632  0.50902  0.90805  1.0000
  C   C335      1.0  0.03717  0.54804  0.84346  1.0000
  C   C336      1.0  0.15322  0.52784  0.89803  1.0000
  H   H588      1.0  0.21425  0.53481  0.94849  1.0000
  C   C337      1.0  0.00809  0.56349  0.85197  1.0000
  H   H589      1.0  0.07589  0.48489  0.88033  1.0000
  H   H590      1.0  0.01997  0.91168  0.80344  1.0000
  C   C338      1.0  0.00497  0.79165  0.84711  1.0000
  H   H591      1.0  0.98207  0.53756  0.86053  1.0000
  H   H592      1.0  0.34547  0.92254  0.69976  1.0000
  C   C339      1.0  0.10205  0.50388  0.87008  1.0000
  H   H593      1.0  0.47224  0.90480  0.65386  1.0000
  H   H594      1.0  0.16769  0.52354  0.84572  1.0000
  H   H595      1.0  0.39803  0.96945  0.70069  1.0000
  H   H596      1.0  0.35417  0.96710  0.71433  1.0000
  H   H597      1.0  0.41068  0.93050  0.76172  1.0000
  H   H598      1.0  0.36481  0.49811  0.89400  1.0000
  H   H599      1.0  0.98133  0.84552  0.82357  1.0000
  H   H600      1.0  0.13338  0.49662  0.82594  1.0000
  H   H601      1.0  0.29998  0.48858  0.95085  1.0000
  H   H602      1.0  0.03940  0.94034  0.86748  1.0000
  H   H603      1.0  0.34043  0.52009  0.92309  1.0000
  H   H604      1.0  0.37638  0.55293  0.89281  1.0000
  H   H605      1.0  0.46594  0.85918  0.66759  1.0000
  H   H606      1.0  0.35964  0.96689  0.67079  1.0000
  H   H607      1.0  0.97457  0.78742  0.84108  1.0000
  H   H608      1.0  0.97344  0.88645  0.77612  1.0000
  C   C340      1.0  0.47696  0.47596  0.08948  1.0000
  S   S74       1.0  0.91949  0.01208  0.13845  1.0000
  H   H609      1.0  0.77337  0.18523  0.16864  1.0000
  Fe  Fe36      1.0  0.62772  0.06090  0.23224  1.0000
  S   S75       1.0  0.67323  0.03942  0.24347  1.0000
  S   S76       1.0  0.55529  0.00880  0.23413  1.0000
  Fe  Fe37      1.0  0.70587  0.14837  0.22006  1.0000
  S   S77       1.0  0.75517  0.13251  0.23103  1.0000
  S   S78       1.0  0.72443  0.20738  0.20148  1.0000
  Fe  Fe38      1.0  0.71428  0.06823  0.21750  1.0000
  S   S79       1.0  0.73940  0.03905  0.19551  1.0000
  Fe  Fe39      1.0  0.71090  0.10545  0.25628  1.0000
  S   S80       1.0  0.73264  0.10620  0.28686  1.0000
  S   S81       1.0  0.66645  0.08518  0.20533  1.0000
  S   S82       1.0  0.66374  0.12581  0.24639  1.0000
  Fe  Fe40      1.0  0.93618  0.42833  0.17354  1.0000
  S   S83       1.0  0.92069  0.43329  0.14309  1.0000
  S   S84       1.0  0.91277  0.36869  0.19230  1.0000
  H   H610      1.0  0.75408  0.14465  0.18693  1.0000
  H   H611      1.0  0.71727  0.46770  0.16537  1.0000
  C   C341      1.0  0.86575  0.42741  0.22539  1.0000
  H   H612      1.0  0.90588  0.17550  0.17536  1.0000
  C   C342      1.0  0.83929  0.17546  0.19584  1.0000
  C   C343      1.0  0.75894  0.14930  0.30305  1.0000
  C   C344      1.0  0.77011  0.19141  0.29833  1.0000
  C   C345      1.0  0.48971  0.02904  0.22753  1.0000
  H   H613      1.0  0.85998  0.02623  0.10680  1.0000
  H   H614      1.0  0.82417  0.43629  0.16667  1.0000
  H   H615      1.0  0.76440  0.19886  0.28413  1.0000
  H   H616      1.0  0.82332  0.46716  0.00821  1.0000
  C   C346      1.0  0.77789  0.25004  0.19840  1.0000
  C   C347      1.0  0.80939  0.25973  0.21216  1.0000
  C   C348      1.0  0.85066  0.29580  0.20991  1.0000
  C   C349      1.0  0.86080  0.32279  0.19398  1.0000
  C   C350      1.0  0.82976  0.31231  0.17989  1.0000
  C   C351      1.0  0.78850  0.27613  0.18212  1.0000
  H   H617      1.0  0.80154  0.24015  0.22482  1.0000
  H   H618      1.0  0.87455  0.30343  0.22084  1.0000
  H   H619      1.0  0.83760  0.33197  0.16726  1.0000
  H   H620      1.0  0.76450  0.26854  0.17126  1.0000
  H   H621      1.0  0.79593  0.25624  0.30843  1.0000
  H   H622      1.0  0.51483  0.06226  0.22683  1.0000
  C   C352      1.0  0.86006  0.02403  0.19377  1.0000
  C   C353      1.0  0.84639  0.03290  0.21099  1.0000
  C   C354      1.0  0.81050  0.03914  0.21174  1.0000
  C   C355      1.0  0.78736  0.03581  0.19527  1.0000
  C   C356      1.0  0.80166  0.02800  0.17797  1.0000
  C   C357      1.0  0.83806  0.02266  0.17719  1.0000
  C   C358      1.0  0.77195  0.46835  0.17932  1.0000
  H   H623      1.0  0.79991  0.04505  0.22516  1.0000
  H   H624      1.0  0.78435  0.02595  0.16512  1.0000
  H   H625      1.0  0.68237  0.27474  0.20665  1.0000
  C   C359      1.0  0.74809  0.42061  0.18561  1.0000
  C   C360      1.0  0.74780  0.35318  0.19396  1.0000
  H   H626      1.0  0.84897  0.20998  0.23210  1.0000
  C   C361      1.0  0.79931  0.40245  0.16965  1.0000
  C   C362      1.0  0.77188  0.38363  0.15164  1.0000
  C   C363      1.0  0.88111  0.20510  0.20676  1.0000
  C   C364      1.0  0.70043  0.32843  0.18706  1.0000
  C   C365      1.0  0.67985  0.28048  0.19134  1.0000
  C   C366      1.0  0.80045  0.39232  0.13424  1.0000
  H   H627      1.0  0.90740  0.11601  0.13322  1.0000
  H   H628      1.0  0.84884  0.01690  0.16385  1.0000
  H   H629      1.0  0.72195  0.40361  0.17517  1.0000
  H   H630      1.0  0.89248  0.23908  0.20294  1.0000
  H   H631      1.0  0.67826  0.21744  0.27771  1.0000
  H   H632      1.0  0.84204  0.10721  0.14814  1.0000
  H   H633      1.0  0.48483  0.46217  0.10142  1.0000
  H   H634      1.0  0.80029  0.13889  0.15149  1.0000
  H   H635      1.0  0.94081  0.15935  0.14882  1.0000
  H   H636      1.0  0.75117  0.39784  0.14880  1.0000
  H   H637      1.0  0.75183  0.34833  0.15305  1.0000
  H   H638      1.0  0.73159  0.41833  0.19929  1.0000
  H   H639      1.0  0.69709  0.13061  0.16430  1.0000
  C   C367      1.0  0.90825  0.24408  0.16228  1.0000
  H   H640      1.0  0.68131  0.34048  0.19454  1.0000
  H   H641      1.0  0.69743  0.33217  0.17168  1.0000
  H   H642      1.0  0.64531  0.26392  0.18741  1.0000
  H   H643      1.0  0.69582  0.26619  0.18302  1.0000
  H   H644      1.0  0.83108  0.45649  0.19842  1.0000
  H   H645      1.0  0.82162  0.42734  0.13200  1.0000
  C   C368      1.0  0.85904  0.21497  0.16508  1.0000
  H   H646      1.0  0.78011  0.37890  0.12146  1.0000
  H   H647      1.0  0.78880  0.10804  0.17252  1.0000
  H   H648      1.0  0.90842  0.10548  0.15812  1.0000
  H   H649      1.0  0.85765  0.40569  0.19683  1.0000
  H   H650      1.0  0.87463  0.16181  0.14024  1.0000
  H   H651      1.0  0.84488  0.21071  0.15065  1.0000
  N   N20       1.0  0.77527  0.39946  0.18764  1.0000
  H   H652      1.0  0.81782  0.38546  0.17137  1.0000
  C   C369      1.0  0.72258  0.12307  0.16034  1.0000
  H   H653      1.0  0.76346  0.33433  0.18996  1.0000
  H   H654      1.0  0.92064  0.22959  0.15201  1.0000
  C   C370      1.0  0.50074  0.99716  0.23066  1.0000
  H   H655      1.0  0.86323  0.03422  0.22392  1.0000
  H   H656      1.0  0.88660  0.41348  0.22872  1.0000
  H   H657      1.0  0.82063  0.37704  0.13592  1.0000
  C   C371      1.0  0.83657  0.40336  0.20874  1.0000
  H   H658      1.0  0.86210  0.16745  0.23295  1.0000
  H   H659      1.0  0.86224  0.12442  0.18071  1.0000
  H   H660      1.0  0.48275  0.01899  0.30742  1.0000
  C   C372      1.0  0.76315  0.15120  0.17176  1.0000
  H   H661      1.0  0.84702  0.23387  0.17287  1.0000
  H   H662      1.0  0.81745  0.18827  0.19900  1.0000
  H   H663      1.0  0.90206  0.28445  0.14066  1.0000
  N   N21       1.0  0.84353  0.17203  0.17474  1.0000
  C   C373      1.0  0.87216  0.15295  0.17131  1.0000
  H   H664      1.0  0.90369  0.22256  0.23565  1.0000
  C   C374      1.0  0.79939  0.14093  0.16718  1.0000
  C   C375      1.0  0.87230  0.13777  0.15080  1.0000
  H   H665      1.0  0.90685  0.19738  0.20390  1.0000
  C   C376      1.0  0.87333  0.20089  0.22814  1.0000
  H   H666      1.0  0.71064  0.08861  0.16348  1.0000
  H   H667      1.0  0.96919  0.15584  0.06273  1.0000
  C   C377      1.0  0.47977  0.98752  0.30402  1.0000
  H   H668      1.0  0.72898  0.12913  0.14493  1.0000
  H   H669      1.0  0.74532  0.35090  0.20972  1.0000
  H   H670      1.0  0.82416  0.14283  0.20244  1.0000
  H   H671      1.0  0.90858  0.30472  0.16451  1.0000
  C   C378      1.0  0.91866  0.28790  0.15437  1.0000
  H   H672      1.0  0.67615  0.15433  0.29195  1.0000
  H   H673      1.0  0.64003  0.01661  0.30531  1.0000
  H   H674      1.0  0.92621  0.24928  0.17565  1.0000
  H   H675      1.0  0.50861  0.99343  0.29576  1.0000
  C   C379      1.0  0.90955  0.12920  0.14762  1.0000
  C   C380      1.0  0.78795  0.22387  0.31215  1.0000
  C   C381      1.0  0.68123  0.21625  0.29333  1.0000
  C   C382      1.0  0.66056  0.16957  0.29991  1.0000
  H   H676      1.0  0.66498  0.23231  0.30001  1.0000
  H   H677      1.0  0.61940  0.08858  0.30415  1.0000
  H   H678      1.0  0.62637  0.15334  0.29572  1.0000
  H   H679      1.0  0.79067  0.99264  0.12341  1.0000
  H   H680      1.0  0.84633  0.42442  0.23814  1.0000
  H   H681      1.0  0.59012  0.01196  0.29709  1.0000
  H   H682      1.0  0.81807  0.98690  0.09196  1.0000
  H   H683      1.0  0.79191  0.42537  0.21596  1.0000
  H   H684      1.0  0.78820  0.47231  0.16551  1.0000
  C   C383      1.0  0.80814  0.42300  0.20293  1.0000
  H   H685      1.0  0.71592  0.23397  0.29702  1.0000
  H   H686      1.0  0.56111  0.09005  0.31189  1.0000
  H   H687      1.0  0.81715  0.36918  0.21299  1.0000
  H   H688      1.0  0.95371  0.30808  0.15201  1.0000
  C   C384      1.0  0.60744  0.00976  0.30973  1.0000
  H   H689      1.0  0.88678  0.46186  0.22180  1.0000
  H   H690      1.0  0.57799  0.14568  0.31665  1.0000
  Fe  Fe41      1.0  0.93487  0.00173  0.16798  1.0000
  S   S85       1.0  0.90381  0.01371  0.19375  1.0000
  H   H691      1.0  0.66798  0.09405  0.31272  1.0000
  C   C385      1.0  0.83715  0.99143  0.10502  1.0000
  C   C386      1.0  0.63579  0.08801  0.31737  1.0000
  H   H692      1.0  0.65674  0.04781  0.50753  1.0000
  C   C387      1.0  0.60300  0.15855  0.50256  1.0000
  H   H693      1.0  0.72560  0.05273  0.41695  1.0000
  Fe  Fe42      1.0  0.49970  0.03101  0.46569  1.0000
  S   S86       1.0  0.53914  0.07156  0.44052  1.0000
  S   S87       1.0  0.52437  0.03957  0.49533  1.0000
  Fe  Fe43      1.0  0.82944  0.25900  0.37960  1.0000
  S   S88       1.0  0.80052  0.28898  0.39841  1.0000
  S   S89       1.0  0.81372  0.25619  0.34796  1.0000
  Fe  Fe44      1.0  0.88105  0.25040  0.41222  1.0000
  S   S90       1.0  0.85653  0.28132  0.43235  1.0000
  S   S91       1.0  0.92776  0.23200  0.42595  1.0000
  Fe  Fe45      1.0  0.79164  0.23801  0.41960  1.0000
  S   S92       1.0  0.74147  0.20031  0.44255  1.0000
  Fe  Fe46      1.0  0.86809  0.33031  0.40958  1.0000
  S   S93       1.0  0.89397  0.40122  0.41861  1.0000
  S   S94       1.0  0.81589  0.20523  0.40011  1.0000
  S   S95       1.0  0.89741  0.30229  0.39007  1.0000
  H   H694      1.0  0.69467  0.11840  0.34283  1.0000
  H   H695      1.0  0.82723  0.02667  0.47399  1.0000
  H   H696      1.0  0.53955  0.29581  0.52096  1.0000
  H   H697      1.0  0.93876  0.99701  0.39751  1.0000
  H   H698      1.0  0.59028  0.13289  0.49185  1.0000
  C   C388      1.0  0.59571  0.10572  0.44091  1.0000
  C   C389      1.0  0.61650  0.13154  0.42501  1.0000
  C   C390      1.0  0.66125  0.16008  0.42504  1.0000
  C   C391      1.0  0.68560  0.16317  0.44105  1.0000
  C   C392      1.0  0.66477  0.13726  0.45691  1.0000
  C   C393      1.0  0.62018  0.10839  0.45680  1.0000
  H   H699      1.0  0.59778  0.12984  0.41269  1.0000
  H   H700      1.0  0.67665  0.18054  0.41293  1.0000
  H   H701      1.0  0.68313  0.13998  0.46945  1.0000
  H   H702      1.0  0.60468  0.08854  0.46908  1.0000
  C   C394      1.0  0.90557  0.09789  0.44211  1.0000
  C   C395      1.0  0.88133  0.10264  0.42760  1.0000
  C   C396      1.0  0.88681  0.14324  0.42288  1.0000
  C   C397      1.0  0.91688  0.17972  0.43256  1.0000
  C   C398      1.0  0.94097  0.17494  0.44717  1.0000
  C   C399      1.0  0.93512  0.13423  0.45205  1.0000
  H   H703      1.0  0.52658  0.22664  0.48045  1.0000
  H   H704      1.0  0.86859  0.14648  0.41140  1.0000
  C   C400      1.0  0.76710  0.14040  0.32155  1.0000
  H   H705      1.0  0.74040  0.02413  0.47096  1.0000
  C   C401      1.0  0.79474  0.21467  0.33083  1.0000
  H   H706      1.0  0.72641  0.10325  0.41375  1.0000
  H   H707      1.0  0.79058  0.16542  0.34958  1.0000
  N   N22       1.0  0.56333  0.19529  0.48716  1.0000
  C   C402      1.0  0.53690  0.15775  0.47432  1.0000
  C   C403      1.0  0.57414  0.17898  0.50492  1.0000
  C   C404      1.0  0.53508  0.21349  0.49297  1.0000
  C   C405      1.0  0.60355  0.23034  0.47781  1.0000
  C   C406      1.0  0.62525  0.21632  0.46259  1.0000
  C   C407      1.0  0.51941  0.16801  0.45598  1.0000
  H   H708      1.0  0.70800  0.18985  0.35446  1.0000
  S   S96       1.0  0.89785  0.04599  0.44696  1.0000
  C   C408      1.0  0.52618  0.27091  0.50980  1.0000
  C   C409      1.0  0.66932  0.25349  0.45694  1.0000
  Fe  Fe47      1.0  0.93354  0.02224  0.46614  1.0000
  H   H709      1.0  0.55431  0.23638  0.52213  1.0000
  H   H710      1.0  0.72040  0.04818  0.49455  1.0000
  H   H711      1.0  0.55552  0.14247  0.46956  1.0000
  H   H712      1.0  0.59167  0.20540  0.51515  1.0000
  H   H713      1.0  0.62704  0.12388  0.51913  1.0000
  H   H714      1.0  0.68407  0.12515  0.38717  1.0000
  H   H715      1.0  0.50956  0.13158  0.48235  1.0000
  H   H716      1.0  0.59692  0.25414  0.47063  1.0000
  H   H717      1.0  0.62812  0.24913  0.48875  1.0000
  H   H718      1.0  0.60539  0.20542  0.44958  1.0000
  H   H719      1.0  0.62974  0.18968  0.46757  1.0000
  H   H720      1.0  0.50415  0.18767  0.49881  1.0000
  H   H721      1.0  0.52459  0.15139  0.44387  1.0000
  H   H722      1.0  0.58704  0.27487  0.50418  1.0000
  C   C410      1.0  0.70715  0.15270  0.37833  1.0000
  H   H723      1.0  0.95365  0.13101  0.46339  1.0000
  H   H724      1.0  0.63606  0.18347  0.49849  1.0000
  H   H725      1.0  0.70526  0.09052  0.51769  1.0000
  C   C411      1.0  0.68422  0.15961  0.36157  1.0000
  C   C412      1.0  0.79254  0.01309  0.47727  1.0000
  H   H726      1.0  0.90237  0.24264  0.49005  1.0000
  H   H727      1.0  0.68312  0.24328  0.44537  1.0000
  H   H728      1.0  0.66659  0.28129  0.45177  1.0000
  H   H729      1.0  0.52556  0.28647  0.49625  1.0000
  H   H730      1.0  0.68054  0.98601  0.63821  1.0000
  H   H731      1.0  0.76501  0.09369  0.40161  1.0000
  C   C413      1.0  0.67156  0.03897  0.63090  1.0000
  H   H732      1.0  0.58275  0.08646  0.34712  1.0000
  H   H733      1.0  0.60390  0.14237  0.34782  1.0000
  H   H734      1.0  0.64676  0.09175  0.35642  1.0000
  C   C414      1.0  0.60638  0.13849  0.52117  1.0000
  H   H735      1.0  0.85847  0.07474  0.41977  1.0000
  H   H736      1.0  0.72208  0.18190  0.38725  1.0000
  H   H737      1.0  0.69177  0.26348  0.46914  1.0000
  H   H738      1.0  0.57407  0.11287  0.52589  1.0000
  H   H739      1.0  0.70187  0.17819  0.32299  1.0000
  C   C415      1.0  0.59878  0.11593  0.33817  1.0000
  H   H740      1.0  0.87296  0.24741  0.47035  1.0000
  C   C416      1.0  0.92936  0.45540  0.41076  1.0000
  C   C417      1.0  0.55388  0.24970  0.50795  1.0000
  H   H741      1.0  0.62727  0.03681  0.33729  1.0000
  C   C418      1.0  0.78484  0.17283  0.33539  1.0000
  H   H742      1.0  0.67641  0.10212  0.49968  1.0000
  H   H743      1.0  0.49273  0.24684  0.51386  1.0000
  H   H744      1.0  0.95703  0.43985  0.38726  1.0000
  H   H745      1.0  0.54393  0.15522  0.51221  1.0000
  N   N23       1.0  0.78117  0.11465  0.46804  1.0000
  C   C419      1.0  0.75368  0.10094  0.45044  1.0000
  C   C420      1.0  0.75437  0.11484  0.48451  1.0000
  C   C421      1.0  0.81695  0.16039  0.46501  1.0000
  C   C422      1.0  0.80119  0.08711  0.47234  1.0000
  C   C423      1.0  0.77475  0.03878  0.46724  1.0000
  C   C424      1.0  0.77787  0.10702  0.43154  1.0000
  C   C425      1.0  0.84508  0.18313  0.48255  1.0000
  C   C426      1.0  0.71251  0.07237  0.48904  1.0000
  C   C427      1.0  0.68632  0.07880  0.50444  1.0000
  H   H746      1.0  0.62075  0.16317  0.53240  1.0000
  C   C428      1.0  0.74661  0.08785  0.41499  1.0000
  C   C429      1.0  0.88371  0.22641  0.47717  1.0000
  H   H747      1.0  0.73619  0.11917  0.44914  1.0000
  H   H748      1.0  0.72815  0.06688  0.45123  1.0000
  H   H749      1.0  0.77331  0.12343  0.49785  1.0000
  H   H750      1.0  0.74552  0.14021  0.48216  1.0000
  H   H751      1.0  0.80370  0.18077  0.45970  1.0000
  H   H752      1.0  0.83955  0.16188  0.45384  1.0000
  H   H753      1.0  0.83241  0.09940  0.46469  1.0000
  H   H754      1.0  0.80989  0.08965  0.48761  1.0000
  H   H755      1.0  0.77655  0.03459  0.45177  1.0000
  H   H756      1.0  0.90524  0.22206  0.46729  1.0000
  H   H757      1.0  0.79880  0.14156  0.42837  1.0000
  H   H758      1.0  0.79812  0.09180  0.43219  1.0000
  H   H759      1.0  0.85731  0.16326  0.48923  1.0000
  H   H760      1.0  0.82630  0.18969  0.49317  1.0000
  H   H761      1.0  0.69136  0.05964  0.47651  1.0000
  H   H762      1.0  0.50875  0.06766  0.33853  1.0000
  H   H763      1.0  0.68019  0.05376  0.64516  1.0000
  H   H764      1.0  0.73312  0.14680  0.37336  1.0000
  H   H765      1.0  0.75906  0.10802  0.32529  1.0000
  H   H766      1.0  0.53701  0.20264  0.45235  1.0000
  H   H767      1.0  0.70083  0.05418  0.62187  1.0000
  H   H768      1.0  0.65808  0.16420  0.36735  1.0000
  C   C430      1.0  0.66656  0.12101  0.34773  1.0000
  C   C431      1.0  0.65465  0.99074  0.63228  1.0000
  H   H769      1.0  0.93800  0.00943  0.42208  1.0000
  H   H770      1.0  0.64702  0.04542  0.62447  1.0000
  H   H771      1.0  0.96448  0.20299  0.45471  1.0000
  H   H772      1.0  0.52577  0.12338  0.34316  1.0000
  N   N24       1.0  0.64127  0.12277  0.33089  1.0000
  H   H773      1.0  0.78845  0.01341  0.49285  1.0000
  S   S97       1.0  0.95008  0.03534  0.49707  1.0000
  C   C432      1.0  0.95715  0.46550  0.39524  1.0000
  H   H774      1.0  0.62364  0.99108  0.47212  1.0000
  H   H775      1.0  0.57755  0.03269  0.32913  1.0000
  C   C433      1.0  0.52262  0.10015  0.33209  1.0000
  H   H776      1.0  0.95880  0.19316  0.39433  1.0000
  C   C434      1.0  0.95887  0.01708  0.40939  1.0000
  C   C435      1.0  0.61073  0.04134  0.32496  1.0000
  H   H777      1.0  0.66127  0.19046  0.32895  1.0000
  H   H778      1.0  0.95217  0.07062  0.40073  1.0000
  H   H779      1.0  0.50013  0.09938  0.32106  1.0000
  C   C436      1.0  0.66686  0.16638  0.32153  1.0000
  C   C437      1.0  0.56634  0.11356  0.32311  1.0000
  H   H780      1.0  0.97228  0.13771  0.41176  1.0000
  H   H781      1.0  0.74842  0.38020  0.92626  1.0000
  C   C438      1.0  0.54777  0.38015  0.82315  1.0000
  C   C439      1.0  0.81787  0.44917  0.94455  1.0000
  H   H782      1.0  0.79682  0.09372  0.82099  1.0000
  H   H783      1.0  0.95444  0.38097  0.84900  1.0000
  H   H784      1.0  0.66074  0.46073  0.77658  1.0000
  H   H785      1.0  0.62849  0.40006  0.81044  1.0000
  H   H786      1.0  0.70900  0.47221  0.92906  1.0000
  H   H787      1.0  0.53602  0.36750  0.80876  1.0000
  H   H788      1.0  0.74936  0.42966  0.92008  1.0000
  H   H789      1.0  0.85262  0.01103  0.84084  1.0000
  C   C440      1.0  0.50854  0.36299  0.83616  1.0000
  H   H790      1.0  0.60356  0.41761  0.75308  1.0000
  C   C441      1.0  0.71994  0.00449  0.81129  1.0000
  H   H791      1.0  0.51102  0.45161  0.91200  1.0000
  H   H792      1.0  0.78044  0.06113  0.84150  1.0000
  C   C442      1.0  0.90204  0.09591  0.78590  1.0000
  S   S98       1.0  0.47774  0.39702  0.79011  1.0000
  H   H793      1.0  0.58695  0.47169  0.91322  1.0000
  C   C443      1.0  0.78801  0.99703  0.83127  1.0000
  C   C444      1.0  0.89128  0.45775  0.94575  1.0000
  C   C445      1.0  0.80490  0.07309  0.82995  1.0000
  H   H794      1.0  0.58142  0.44065  0.83787  1.0000
  H   H795      1.0  0.80024  0.41941  0.95322  1.0000
  H   H796      1.0  0.82238  0.02292  0.85790  1.0000
  H   H797      1.0  0.57041  0.44566  0.78742  1.0000
  H   H798      1.0  0.76280  0.40200  0.90260  1.0000
  H   H799      1.0  0.94486  0.40946  0.88477  1.0000
  C   C446      1.0  0.84941  0.10407  0.83886  1.0000
  C   C447      1.0  0.81274  0.43577  0.92345  1.0000
  C   C448      1.0  0.87578  0.41105  0.95228  1.0000
  H   H800      1.0  0.47767  0.24799  0.70688  1.0000
  C   C449      1.0  0.59823  0.44077  0.79027  1.0000
  H   H801      1.0  0.61742  0.98752  0.65715  1.0000
  H   H802      1.0  0.51848  0.37399  0.85092  1.0000
  H   H803      1.0  0.55437  0.47320  0.86193  1.0000
  H   H804      1.0  0.94807  0.19208  0.83864  1.0000
  C   C450      1.0  0.48659  0.99483  0.72993  1.0000
  H   H805      1.0  0.77326  0.05174  0.79492  1.0000
  H   H806      1.0  0.89483  0.43514  0.87492  1.0000
  C   C451      1.0  0.90314  0.39411  0.94325  1.0000
  N   N25       1.0  0.80130  0.03578  0.81869  1.0000
  C   C452      1.0  0.84244  0.04628  0.80850  1.0000
  H   H807      1.0  0.65589  0.98577  0.80095  1.0000
  H   H808      1.0  0.69620  0.42127  0.85383  1.0000
  H   H809      1.0  0.49092  0.33332  0.77194  1.0000
  H   H810      1.0  0.87844  0.15665  0.85884  1.0000
  C   C453      1.0  0.85566  0.07961  0.79218  1.0000
  H   H811      1.0  0.51476  0.99849  0.72267  1.0000
  C   C454      1.0  0.94891  0.43920  0.89034  1.0000
  S   S99       1.0  0.94980  0.02650  0.80174  1.0000
  C   C455      1.0  0.76535  0.41034  0.91785  1.0000
  H   H812      1.0  0.89556  0.45956  0.93011  1.0000
  H   H813      1.0  0.82442  0.11629  0.86482  1.0000
  H   H814      1.0  0.83979  0.01673  0.80223  1.0000
  C   C456      1.0  0.65693  0.43722  0.83595  1.0000
  H   H815      1.0  0.86992  0.05769  0.81840  1.0000
  H   H816      1.0  0.54979  0.44044  0.81874  1.0000
  H   H817      1.0  0.68274  0.45861  0.95200  1.0000
  C   C457      1.0  0.76665  0.02349  0.80385  1.0000
  H   H818      1.0  0.56937  0.47934  0.93590  1.0000
  H   H819      1.0  0.82846  0.46429  0.91416  1.0000
  H   H820      1.0  0.60759  0.45334  0.87379  1.0000
  H   H821      1.0  0.66878  0.38328  0.83515  1.0000
  H   H822      1.0  0.83481  0.06455  0.77965  1.0000
  H   H823      1.0  0.90580  0.06888  0.78065  1.0000
  H   H824      1.0  0.71544  0.43498  0.82986  1.0000
  H   H825      1.0  0.83404  0.15407  0.84576  1.0000
  H   H826      1.0  0.85230  0.10745  0.79643  1.0000
  H   H827      1.0  0.91042  0.11956  0.77421  1.0000
  H   H828      1.0  0.92466  0.11178  0.79781  1.0000
  H   H829      1.0  0.49008  0.05131  0.71711  1.0000
  H   H830      1.0  0.56801  0.36688  0.82830  1.0000
  N   N26       1.0  0.61246  0.45085  0.81062  1.0000
  H   H831      1.0  0.67549  0.47115  0.84045  1.0000
  H   H832      1.0  0.84184  0.38902  0.94838  1.0000
  H   H833      1.0  0.86353  0.08701  0.84640  1.0000
  H   H834      1.0  0.87263  0.12403  0.82768  1.0000
  H   H835      1.0  0.64004  0.47095  0.74446  1.0000
  Fe  Fe48      1.0  0.96682  0.03071  0.83264  1.0000
  H   H836      1.0  0.82711  0.41531  0.92047  1.0000
  H   H837      1.0  0.58577  0.40617  0.78741  1.0000
  H   H838      1.0  0.71807  0.02480  0.82260  1.0000
  H   H839      1.0  0.84558  0.44497  0.97885  1.0000
  H   H840      1.0  0.93765  0.41484  0.94688  1.0000
  C   C458      1.0  0.57302  0.42990  0.82305  1.0000
  H   H841      1.0  0.79967  0.46654  0.94645  1.0000
  C   C459      1.0  0.96992  0.14669  0.84396  1.0000
  C   C460      1.0  0.63303  0.46616  0.77505  1.0000
  C   C461      1.0  0.84617  0.13455  0.85290  1.0000
  H   H842      1.0  0.89249  0.36112  0.94849  1.0000
  C   C462      1.0  0.68608  0.41789  0.83876  1.0000
  H   H843      1.0  0.76669  0.99952  0.79395  1.0000
  C   C463      1.0  0.64265  0.43404  0.81497  1.0000
  C   C464      1.0  0.82023  0.00044  0.84671  1.0000
  C   C465      1.0  0.92032  0.45380  0.88485  1.0000
  H   H844      1.0  0.62905  0.41995  0.84560  1.0000
  H   H845      1.0  0.95004  0.12461  0.83312  1.0000
  H   H846      1.0  0.89973  0.39304  0.92759  1.0000
  H   H847      1.0  0.87880  0.40972  0.96789  1.0000
  H   H848      1.0  0.48620  0.37400  0.83118  1.0000
  H   H849      1.0  0.67273  0.45189  0.80655  1.0000
  H   H850      1.0  0.49191  0.18114  0.68641  1.0000
  H   H851      1.0  0.58737  0.45798  0.75278  1.0000
  C   C466      1.0  0.61475  0.45220  0.75514  1.0000
  H   H852      1.0  0.49102  0.32739  0.83603  1.0000
  C   C467      1.0  0.68927  0.00071  0.79539  1.0000
  H   H853      1.0  0.69818  0.03281  0.78951  1.0000
  H   H854      1.0  0.48556  0.29034  0.72275  1.0000
  C   C468      1.0  0.96884  0.18491  0.84715  1.0000
  H   H855      1.0  0.75799  0.98883  0.83910  1.0000
  C   C469      1.0  0.86254  0.47802  0.97283  1.0000
  H   H856      1.0  0.92429  0.47718  0.95152  1.0000
  N   N27       1.0  0.86344  0.47633  0.95151  1.0000
  Fe  Fe49      1.0  0.92319  0.95300  0.13095  1.0000
  S   S100      1.0  0.87670  0.90453  0.10923  1.0000
  S   S101      1.0  0.93407  0.93976  0.16102  1.0000
  H   H857      1.0  0.93658  0.76745  0.10713  1.0000
  S   S102      1.0  0.87484  0.51901  0.14816  1.0000
  H   H858      1.0  0.47501  0.92899  0.23353  1.0000
  Fe  Fe50      1.0  0.70773  0.61436  0.04491  1.0000
  S   S103      1.0  0.67367  0.54562  0.05470  1.0000
  S   S104      1.0  0.71791  0.63353  0.01356  1.0000
  Fe  Fe51      1.0  0.72056  0.64941  0.08545  1.0000
  S   S105      1.0  0.68753  0.58219  0.09770  1.0000
  S   S106      1.0  0.74443  0.70208  0.10818  1.0000
  Fe  Fe52      1.0  0.72615  0.56835  0.07680  1.0000
  S   S107      1.0  0.76347  0.53213  0.08031  1.0000
  Fe  Fe53      1.0  0.63709  0.56479  0.07479  1.0000
  S   S108      1.0  0.56536  0.52187  0.08365  1.0000
  S   S109      1.0  0.76206  0.63633  0.06579  1.0000
  S   S110      1.0  0.66827  0.63279  0.06380  1.0000
  H   H859      1.0  0.82628  0.50476  0.08153  1.0000
  H   H860      1.0  0.74376  0.96020  0.14586  1.0000
  C   C470      1.0  0.84373  0.52128  0.12900  1.0000
  C   C471      1.0  0.81395  0.53509  0.13262  1.0000
  C   C472      1.0  0.78867  0.53795  0.11798  1.0000
  C   C473      1.0  0.79319  0.52741  0.09944  1.0000
  H   H861      1.0  0.81053  0.54380  0.14686  1.0000
  H   H862      1.0  0.76555  0.54809  0.12097  1.0000
  C   C474      1.0  0.97239  0.66538  0.12813  1.0000
  C   C475      1.0  0.84297  0.84758  0.10915  1.0000
  C   C476      1.0  0.82402  0.82706  0.09199  1.0000
  C   C477      1.0  0.79535  0.78237  0.09127  1.0000
  C   C478      1.0  0.78435  0.75760  0.10783  1.0000
  C   C479      1.0  0.80332  0.77807  0.12501  1.0000
  C   C480      1.0  0.83289  0.82260  0.12566  1.0000
  H   H863      1.0  0.83146  0.84593  0.07912  1.0000
  H   H864      1.0  0.78086  0.76737  0.07796  1.0000
  H   H865      1.0  0.79483  0.75939  0.13796  1.0000
  H   H866      1.0  0.84704  0.83775  0.13898  1.0000
  C   C481      1.0  0.74840  0.62155  0.99730  1.0000
  C   C482      1.0  0.76715  0.59693  0.00252  1.0000
  H   H867      1.0  0.76346  0.58486  0.01688  1.0000
  H   H868      1.0  0.87309  0.77332  0.07956  1.0000
  C   C483      1.0  0.92521  0.64911  0.12329  1.0000
  C   C484      1.0  0.58345  0.67958  0.08415  1.0000
  C   C485      1.0  0.61844  0.69767  0.06893  1.0000
  H   H869      1.0  0.95866  0.83813  0.14852  1.0000
  H   H870      1.0  0.92111  0.74185  0.08454  1.0000
  H   H871      1.0  0.57016  0.70613  0.15671  1.0000
  H   H872      1.0  0.61469  0.59303  0.10932  1.0000
  H   H873      1.0  0.58938  0.70643  0.09364  1.0000
  H   H874      1.0  0.92914  0.71031  0.12873  1.0000
  H   H875      1.0  0.65073  0.70953  0.07533  1.0000
  H   H876      1.0  0.61250  0.67267  0.05830  1.0000
  C   C486      1.0  0.60066  0.55837  0.13548  1.0000
  H   H877      1.0  0.84103  0.70549  0.09761  1.0000
  H   H878      1.0  0.86888  0.59420  0.06833  1.0000
  H   H879      1.0  0.89000  0.79960  0.10227  1.0000
  H   H880      1.0  0.88336  0.63215  0.04908  1.0000
  C   C487      1.0  0.90963  0.75215  0.09687  1.0000
  H   H881      1.0  0.53783  0.55675  0.11263  1.0000
  C   C488      1.0  0.88084  0.65775  0.07654  1.0000
  H   H882      1.0  0.63384  0.56368  0.13676  1.0000
  H   H883      1.0  0.60013  0.66048  0.14615  1.0000
  C   C489      1.0  0.84790  0.51022  0.11049  1.0000
  H   H884      1.0  0.52429  0.54665  0.05328  1.0000
  H   H885      1.0  0.49999  0.62755  0.09655  1.0000
  N   N28       1.0  0.74627  0.90371  0.13712  1.0000
  C   C490      1.0  0.77569  0.92542  0.12043  1.0000
  C   C491      1.0  0.71421  0.85747  0.13239  1.0000
  C   C492      1.0  0.72168  0.92703  0.14089  1.0000
  C   C493      1.0  0.77095  0.90631  0.15486  1.0000
  C   C494      1.0  0.80071  0.88676  0.15396  1.0000
  H   H886      1.0  0.91632  0.62508  0.11188  1.0000
  C   C495      1.0  0.68560  0.90689  0.15612  1.0000
  C   C496      1.0  0.72929  0.83394  0.11857  1.0000
  C   C497      1.0  0.69746  0.78581  0.11804  1.0000
  C   C498      1.0  0.82412  0.89278  0.17277  1.0000
  H   H887      1.0  0.73901  0.61765  0.14414  1.0000
  H   H888      1.0  0.79721  0.67562  0.12580  1.0000
  H   H889      1.0  0.75611  0.92124  0.10751  1.0000
  H   H890      1.0  0.79529  0.91020  0.11709  1.0000
  H   H891      1.0  0.70218  0.83793  0.14561  1.0000
  H   H892      1.0  0.68524  0.85525  0.12544  1.0000
  H   H893      1.0  0.94032  0.81441  0.17163  1.0000
  H   H894      1.0  0.61817  0.72485  0.06150  1.0000
  C   C499      1.0  0.66306  0.93327  0.15826  1.0000
  H   H895      1.0  0.74845  0.88937  0.16674  1.0000
  H   H896      1.0  0.82542  0.90217  0.14275  1.0000
  H   H897      1.0  0.78160  0.85177  0.15155  1.0000
  H   H898      1.0  0.85482  0.61251  0.09988  1.0000
  H   H899      1.0  0.83035  0.60827  0.05917  1.0000
  C   C500      1.0  0.82269  0.51321  0.09582  1.0000
  H   H900      1.0  0.66085  0.87370  0.15239  1.0000
  H   H901      1.0  0.73185  0.84665  0.10395  1.0000
  H   H902      1.0  0.76108  0.83824  0.12235  1.0000
  H   H903      1.0  0.69633  0.77092  0.13201  1.0000
  H   H904      1.0  0.66485  0.77960  0.11415  1.0000
  H   H905      1.0  0.70803  0.77052  0.10729  1.0000
  H   H906      1.0  0.84382  0.87684  0.17216  1.0000
  H   H907      1.0  0.84564  0.92742  0.17565  1.0000
  H   H908      1.0  0.80087  0.87827  0.18464  1.0000
  H   H909      1.0  0.62363  0.62501  0.12983  1.0000
  C   C501      1.0  0.86483  0.62075  0.06249  1.0000
  H   H910      1.0  0.94080  0.70315  0.10517  1.0000
  C   C502      1.0  0.58416  0.64277  0.09545  1.0000
  C   C503      1.0  0.59711  0.71830  0.14638  1.0000
  C   C504      1.0  0.55512  0.58709  0.12076  1.0000
  H   H911      1.0  0.58823  0.55822  0.14989  1.0000
  C   C505      1.0  0.55309  0.65482  0.12499  1.0000
  H   H912      1.0  0.87526  0.68265  0.06993  1.0000
  C   C506      1.0  0.91803  0.68662  0.11698  1.0000
  H   H913      1.0  0.54455  0.67746  0.11806  1.0000
  H   H914      1.0  0.91575  0.67042  0.07843  1.0000
  H   H915      1.0  0.85615  0.97491  0.10333  1.0000
  C   C507      1.0  0.80771  0.97408  0.12233  1.0000
  H   H916      1.0  0.53910  0.57974  0.13488  1.0000
  C   C508      1.0  0.60118  0.59394  0.12332  1.0000
  H   H917      1.0  0.59471  0.74110  0.13644  1.0000
  H   H918      1.0  0.87058  0.49948  0.10745  1.0000
  C   C509      1.0  0.85617  0.64284  0.09554  1.0000
  H   H919      1.0  0.79041  0.94008  0.15963  1.0000
  H   H920      1.0  0.65342  0.55538  0.99089  1.0000
  H   H921      1.0  0.80569  0.56948  0.99347  1.0000
  H   H922      1.0  0.52839  0.63890  0.13622  1.0000
  H   H923      1.0  0.82238  0.63326  0.09216  1.0000
  C   C510      1.0  0.49929  0.52346  0.06245  1.0000
  H   H924      1.0  0.77133  0.59280  0.14819  1.0000
  C   C511      1.0  0.51047  0.50613  0.07782  1.0000
  H   H925      1.0  0.86498  0.72876  0.11962  1.0000
  C   C512      1.0  0.89952  0.78663  0.09012  1.0000
  H   H926      1.0  0.79616  0.48894  0.18993  1.0000
  H   H927      1.0  0.63744  0.91837  0.16919  1.0000
  H   H928      1.0  0.92842  0.81349  0.08338  1.0000
  H   H929      1.0  0.77985  0.62401  0.11551  1.0000
  H   H930      1.0  0.58029  0.52664  0.12877  1.0000
  C   C513      1.0  0.86990  0.71431  0.10659  1.0000
  C   C514      1.0  0.59622  0.68117  0.13554  1.0000
  H   H931      1.0  0.62408  0.69499  0.12575  1.0000
  H   H932      1.0  0.78749  0.64514  0.15795  1.0000
  H   H933      1.0  0.84170  0.62200  0.13158  1.0000
  H   H934      1.0  0.75844  0.51972  0.17311  1.0000
  H   H935      1.0  0.61729  0.65626  0.10104  1.0000
  S   S111      1.0  0.93425  0.48754  0.18193  1.0000
  H   H936      1.0  0.85922  0.67341  0.14151  1.0000
  N   N29       1.0  0.55081  0.62231  0.11093  1.0000
  H   H937      1.0  0.55226  0.66819  0.07685  1.0000
  H   H938      1.0  0.62782  0.73584  0.15428  1.0000
  C   C515      1.0  0.84441  0.65360  0.12866  1.0000
  Fe  Fe54      1.0  0.92379  0.49574  0.15101  1.0000
  N   N30       1.0  0.87264  0.67465  0.11155  1.0000
  H   H939      1.0  0.90626  0.63272  0.13614  1.0000
  C   C516      1.0  0.77249  0.62385  0.14560  1.0000
  H   H940      1.0  0.58060  0.61773  0.08515  1.0000
  H   H941      1.0  0.70691  0.93026  0.12751  1.0000
  C   C517      1.0  0.79757  0.64521  0.12750  1.0000
  H   H942      1.0  0.69892  0.90625  0.17022  1.0000
  H   H943      1.0  0.50659  0.58444  0.08866  1.0000
  H   H944      1.0  0.64810  0.93469  0.14469  1.0000
  C   C518      1.0  0.79099  0.58813  0.98919  1.0000
  C   C519      1.0  0.96898  0.83712  0.16326  1.0000
  C   C520      1.0  0.50707  0.60232  0.10158  1.0000
  H   H945      1.0  0.59617  0.52427  0.99425  1.0000
  H   H946      1.0  0.61993  0.57852  0.98541  1.0000
  C   C521      1.0  0.84045  0.50071  0.00284  1.0000
  H   H947      1.0  0.87401  0.51723  0.00818  1.0000
  H   H948      1.0  0.82394  0.51753  0.00849  1.0000
  H   H949      1.0  0.72266  0.48139  0.19029  1.0000
  H   H950      1.0  0.68627  0.96642  0.16290  1.0000
  C   C522      1.0  0.74050  0.48513  0.17691  1.0000
  H   H951      1.0  0.47887  0.97050  0.31734  1.0000
  H   H952      1.0  0.58961  0.97649  0.31538  1.0000
  H   H953      1.0  0.82814  0.98034  0.13497  1.0000
  C   C523      1.0  0.62190  0.54864  0.98503  1.0000
  H   H954      1.0  0.64658  0.66008  0.62845  1.0000
  C   C524      1.0  0.65202  0.89978  0.51859  1.0000
  S   S112      1.0  0.87185  0.92664  0.52410  1.0000
  C   C525      1.0  0.60315  0.87610  0.60046  1.0000
  H   H955      1.0  0.49926  0.57829  0.61894  1.0000
  Fe  Fe55      1.0  0.54808  0.66446  0.56525  1.0000
  S   S113      1.0  0.61747  0.71081  0.57299  1.0000
  S   S114      1.0  0.52086  0.59323  0.57486  1.0000
  Fe  Fe56      1.0  0.53583  0.74159  0.55357  1.0000
  S   S115      1.0  0.60262  0.79145  0.56184  1.0000
  H   H956      1.0  0.88098  0.85507  0.43579  1.0000
  Fe  Fe57      1.0  0.62301  0.74938  0.54683  1.0000
  S   S116      1.0  0.67469  0.77736  0.52341  1.0000
  Fe  Fe58      1.0  0.59183  0.74937  0.58742  1.0000
  S   S117      1.0  0.61704  0.77322  0.61717  1.0000
  S   S118      1.0  0.55578  0.70003  0.53764  1.0000
  S   S119      1.0  0.52311  0.70285  0.58048  1.0000
  H   H957      1.0  0.50257  0.51345  0.59286  1.0000
  H   H958      1.0  0.92721  0.85323  0.49508  1.0000
  H   H959      1.0  0.65411  0.89406  0.55820  1.0000
  C   C526      1.0  0.47706  0.85447  0.51493  1.0000
  C   C527      1.0  0.51375  0.89154  0.52105  1.0000
  C   C528      1.0  0.54248  0.88739  0.53329  1.0000
  C   C529      1.0  0.53512  0.84669  0.53913  1.0000
  H   H960      1.0  0.57066  0.91592  0.53827  1.0000
  H   H961      1.0  0.55739  0.84402  0.54860  1.0000
  H   H962      1.0  0.57972  0.80845  0.47556  1.0000
  C   C530      1.0  0.78135  0.75173  0.50744  1.0000
  H   H963      1.0  0.66565  0.95459  0.47982  1.0000
  H   H964      1.0  0.88260  0.68311  0.51298  1.0000
  H   H965      1.0  0.62646  0.81289  0.50554  1.0000
  H   H966      1.0  0.97212  0.87557  0.54422  1.0000
  C   C531      1.0  0.81592  0.88790  0.52355  1.0000
  C   C532      1.0  0.79338  0.87230  0.50657  1.0000
  C   C533      1.0  0.75019  0.83873  0.50683  1.0000
  C   C534      1.0  0.72842  0.82125  0.52403  1.0000
  C   C535      1.0  0.75041  0.83801  0.54101  1.0000
  C   C536      1.0  0.79396  0.87078  0.54073  1.0000
  H   H967      1.0  0.80950  0.88555  0.49324  1.0000
  H   H968      1.0  0.73358  0.82593  0.49361  1.0000
  H   H969      1.0  0.73426  0.82491  0.55435  1.0000
  H   H970      1.0  0.81094  0.88259  0.55397  1.0000
  C   C537      1.0  0.48642  0.53800  0.56814  1.0000
  C   C538      1.0  0.58862  0.78028  0.63603  1.0000
  C   C539      1.0  0.54705  0.77371  0.63372  1.0000
  C   C540      1.0  0.93047  0.48963  0.42094  1.0000
  H   H971      1.0  0.82414  0.81405  0.51904  1.0000
  H   H972      1.0  0.83200  0.80693  0.44201  1.0000
  C   C541      1.0  0.67416  0.88376  0.48849  1.0000
  C   C542      1.0  0.66495  0.86479  0.46833  1.0000
  C   C543      1.0  0.67782  0.88494  0.53118  1.0000
  C   C544      1.0  0.70679  0.87839  0.45754  1.0000
  C   C545      1.0  0.68528  0.90443  0.55094  1.0000
  H   H973      1.0  0.67387  0.93465  0.51619  1.0000
  H   H974      1.0  0.69823  0.91850  0.48756  1.0000
  H   H975      1.0  0.69129  0.86907  0.49577  1.0000
  H   H976      1.0  0.64599  0.87558  0.45988  1.0000
  H   H977      1.0  0.64753  0.82926  0.46919  1.0000
  S   S120      1.0  0.89940  0.95020  0.46922  1.0000
  H   H978      1.0  0.70989  0.89530  0.52485  1.0000
  H   H979      1.0  0.66091  0.84969  0.53287  1.0000
  H   H980      1.0  0.57500  0.94402  0.47947  1.0000
  H   H981      1.0  0.89375  0.81548  0.46139  1.0000
  H   H982      1.0  0.69939  0.86260  0.44349  1.0000
  Fe  Fe59      1.0  0.48637  0.96740  0.49755  1.0000
  H   H983      1.0  0.60473  0.94175  0.45928  1.0000
  C   C546      1.0  0.75187  0.73012  0.52443  1.0000
  C   C547      1.0  0.60699  0.82914  0.50439  1.0000
  H   H984      1.0  0.76342  0.71171  0.53288  1.0000
  H   H985      1.0  0.60356  0.84656  0.60479  1.0000
  H   H986      1.0  0.49402  0.77601  0.64699  1.0000
  H   H987      1.0  0.95555  0.66557  0.36562  1.0000
  H   H988      1.0  0.58426  0.86924  0.58718  1.0000
  N   N31       1.0  0.63572  0.87650  0.50004  1.0000
  H   H989      1.0  0.71875  0.70770  0.51944  1.0000
  H   H990      1.0  0.88360  0.74963  0.52200  1.0000
  C   C548      1.0  0.92191  0.83625  0.52425  1.0000
  H   H991      1.0  0.58199  0.91873  0.61098  1.0000
  H   H992      1.0  0.89358  0.86722  0.50797  1.0000
  H   H993      1.0  0.76645  0.76681  0.49878  1.0000
  C   C549      1.0  0.61017  0.89433  0.49043  1.0000
  H   H994      1.0  0.85154  0.74767  0.48122  1.0000
  H   H995      1.0  0.57250  0.74386  0.49281  1.0000
  H   H996      1.0  0.52799  0.57357  0.63837  1.0000
  C   C550      1.0  0.63399  0.94340  0.48663  1.0000
  C   C551      1.0  0.87847  0.83484  0.46499  1.0000
  H   H997      1.0  0.57379  0.61504  0.61411  1.0000
  C   C552      1.0  0.85661  0.83903  0.44715  1.0000
  H   H998      1.0  0.81716  0.78605  0.47545  1.0000
  C   C553      1.0  0.50342  0.58277  0.63458  1.0000
  H   H999      1.0  0.64542  0.66851  0.60336  1.0000
  H   H1000     1.0  0.70393  0.89332  0.55952  1.0000
  H   H1001     1.0  0.64694  0.70768  0.61960  1.0000
  H   H1002     1.0  0.90402  0.86760  0.46882  1.0000
  H   H1003     1.0  0.59871  0.86556  0.64074  1.0000
  H   H1004     1.0  0.62459  0.89692  0.52708  1.0000
  H   H1005     1.0  0.59702  0.87843  0.47671  1.0000
  H   H1006     1.0  0.75050  0.75439  0.53362  1.0000
  H   H1007     1.0  0.57379  0.66265  0.60628  1.0000
  H   H1008     1.0  0.53508  0.74721  0.50893  1.0000
  H   H1009     1.0  0.83552  0.77413  0.52651  1.0000
  S   S121      1.0  0.48760  0.75758  0.54003  1.0000
  H   H1010     1.0  0.58132  0.88678  0.49914  1.0000
  H   H1011     1.0  0.94699  0.66091  0.34045  1.0000
  H   H1012     1.0  0.72754  0.86879  0.46543  1.0000
  H   H1013     1.0  0.89842  0.82263  0.53601  1.0000
  H   H1014     1.0  0.63658  0.90198  0.59756  1.0000
  H   H1015     1.0  0.50506  0.64211  0.61135  1.0000
  H   H1016     1.0  0.64155  0.91350  0.63203  1.0000
  C   C554      1.0  0.49857  0.80958  0.53292  1.0000
  H   H1017     1.0  0.70375  0.93998  0.55008  1.0000
  C   C555      1.0  0.88713  0.70706  0.50189  1.0000
  Fe  Fe60      1.0  0.91850  0.96299  0.49974  1.0000
  H   H1018     1.0  0.58316  0.64363  0.64820  1.0000
  H   H1019     1.0  0.53131  0.76372  0.62013  1.0000
  C   C556      1.0  0.56928  0.80282  0.49053  1.0000
  H   H1020     1.0  0.84121  0.85867  0.45000  1.0000
  C   C557      1.0  0.58481  0.64898  0.61761  1.0000
  H   H1021     1.0  0.87112  0.68965  0.48872  1.0000
  H   H1022     1.0  0.83330  0.71200  0.51178  1.0000
  H   H1023     1.0  0.59136  0.82435  0.51853  1.0000
  H   H1024     1.0  0.90575  0.78242  0.48739  1.0000
  H   H1025     1.0  0.78246  0.72668  0.49875  1.0000
  C   C558      1.0  0.63396  0.67283  0.61733  1.0000
  H   H1026     1.0  0.54390  0.81173  0.49233  1.0000
  C   C559      1.0  0.60661  0.89753  0.63505  1.0000
  H   H1027     1.0  0.72462  0.91364  0.45524  1.0000
  H   H1028     1.0  0.58070  0.68862  0.63902  1.0000
  H   H1029     1.0  0.83510  0.83745  0.48547  1.0000
  H   H1030     1.0  0.64849  0.97801  0.61764  1.0000
  H   H1031     1.0  0.58819  0.97135  0.63580  1.0000
  N   N32       1.0  0.86167  0.80135  0.49880  1.0000
  C   C560      1.0  0.82700  0.78641  0.51377  1.0000
  C   C561      1.0  0.90115  0.84099  0.50583  1.0000
  C   C562      1.0  0.84583  0.81432  0.48151  1.0000
  C   C563      1.0  0.87237  0.76719  0.49314  1.0000
  C   C564      1.0  0.86776  0.73420  0.50858  1.0000
  C   C565      1.0  0.54860  0.75476  0.49440  1.0000
  H   H1032     1.0  0.54874  0.86333  0.61758  1.0000
  C   C566      1.0  0.58255  0.88964  0.61590  1.0000
  S   S122      1.0  0.52677  0.94365  0.51315  1.0000
  N   N33       1.0  0.59635  0.92167  0.64965  1.0000
  H   H1033     1.0  0.51853  0.68425  0.62738  1.0000
  H   H1034     1.0  0.92215  0.72760  0.49916  1.0000
  C   C567      1.0  0.50057  0.64866  0.62630  1.0000
  H   H1035     1.0  0.53309  0.90331  0.63846  1.0000
  H   H1036     1.0  0.52191  0.73683  0.48427  1.0000
  H   H1037     1.0  0.63874  0.96097  0.50011  1.0000
  C   C568      1.0  0.60771  0.95569  0.47357  1.0000
  N   N34       1.0  0.51934  0.62922  0.63958  1.0000
  H   H1038     1.0  0.93649  0.81582  0.52164  1.0000
  C   C569      1.0  0.48369  0.50497  0.58003  1.0000
  C   C570      1.0  0.56765  0.65358  0.63711  1.0000
  C   C571      1.0  0.52605  0.78079  0.64896  1.0000
  H   H1039     1.0  0.95824  0.55850  0.42359  1.0000
  Fe  Fe61      1.0  0.96368  0.95456  0.46454  1.0000
  C   C572      1.0  0.95846  0.53297  0.41569  1.0000
  H   H1040     1.0  0.94563  0.90197  0.53368  1.0000
  C   C573      1.0  0.61271  0.96804  0.64422  1.0000
  C   C574      1.0  0.95811  0.87972  0.53088  1.0000
  H   H1041     1.0  0.77521  0.97933  0.47243  1.0000
  C   C575      1.0  0.97198  0.67363  0.35165  1.0000
  H   H1042     1.0  0.90924  0.48251  0.43295  1.0000
  Fe  Fe62      1.0  0.53402  0.81399  0.75621  1.0000
  S   S123      1.0  0.58434  0.82399  0.73460  1.0000
  C   C576      1.0  0.58789  0.80102  0.66897  1.0000
  Fe  Fe63      1.0  0.52527  0.89179  0.74195  1.0000
  S   S124      1.0  0.57603  0.90723  0.71956  1.0000
  C   C577      1.0  0.53048  0.91469  0.66819  1.0000
  Fe  Fe64      1.0  0.54340  0.83608  0.71402  1.0000
  S   S125      1.0  0.51972  0.80658  0.68474  1.0000
  Fe  Fe65      1.0  0.61368  0.89395  0.74194  1.0000
  S   S126      1.0  0.68709  0.93722  0.74415  1.0000
  C   C578      1.0  0.92686  0.55473  0.95041  1.0000
  S   S127      1.0  0.56550  0.88363  0.76471  1.0000
  C   C579      1.0  0.88203  0.52057  0.94287  1.0000
  H   H1043     1.0  0.64101  0.79893  0.65566  1.0000
  S   S128      1.0  0.51295  0.76531  0.78044  1.0000
  H   H1044     1.0  0.65538  0.58061  0.82391  1.0000
  H   H1045     1.0  0.95161  0.54582  0.94710  1.0000
  S   S129      1.0  0.92896  0.92583  0.80305  1.0000
  Fe  Fe66      1.0  0.85021  0.63363  0.88225  1.0000
  S   S130      1.0  0.82349  0.56839  0.86875  1.0000
  S   S131      1.0  0.87045  0.68575  0.85929  1.0000
  Fe  Fe67      1.0  0.82793  0.59379  0.92199  1.0000
  S   S132      1.0  0.79950  0.52712  0.91048  1.0000
  S   S133      1.0  0.82744  0.59207  0.95440  1.0000
  Fe  Fe68      1.0  0.85768  0.55237  0.89158  1.0000
  H   H1046     1.0  0.91834  0.60964  0.94450  1.0000
  Fe  Fe69      1.0  0.76810  0.54834  0.88873  1.0000
  C   C580      1.0  0.66284  0.93369  0.66963  1.0000
  S   S134      1.0  0.88818  0.61903  0.90386  1.0000
  S   S135      1.0  0.79266  0.61349  0.90140  1.0000
  Fe  Fe70      1.0  0.89278  0.96127  0.80867  1.0000
  H   H1047     1.0  0.92639  0.55883  0.96593  1.0000
  S   S136      1.0  0.56300  0.55610  0.85208  1.0000
  H   H1048     1.0  0.64405  0.50526  0.82941  1.0000
  C   C581      1.0  0.79605  0.60334  0.97043  1.0000
  C   C582      1.0  0.77720  0.62784  0.96517  1.0000
  C   C583      1.0  0.92400  0.49193  0.89215  1.0000
  S   S137      1.0  0.69786  0.50201  0.88146  1.0000
  H   H1049     1.0  0.78176  0.64071  0.95096  1.0000
  H   H1050     1.0  0.49540  0.70229  0.80932  1.0000
  H   H1051     1.0  0.86801  0.74127  0.83059  1.0000
  C   C584      1.0  0.66098  0.51800  0.87346  1.0000
  C   C585      1.0  0.60010  0.54057  0.86025  1.0000
  C   C586      1.0  0.64307  0.57218  0.86351  1.0000
  C   C587      1.0  0.67355  0.56092  0.86977  1.0000
  H   H1052     1.0  0.65304  0.60551  0.86083  1.0000
  H   H1053     1.0  0.70676  0.58546  0.87169  1.0000
  S   S138      1.0  0.88653  0.50849  0.88452  1.0000
  S   S139      1.0  0.94863  0.88896  0.85562  1.0000
  H   H1054     1.0  0.63904  0.67914  0.80072  1.0000
  C   C588      1.0  0.92277  0.83196  0.85690  1.0000
  C   C589      1.0  0.90069  0.80580  0.84154  1.0000
  C   C590      1.0  0.88403  0.76105  0.84273  1.0000
  C   C591      1.0  0.88823  0.74168  0.85939  1.0000
  C   C592      1.0  0.90933  0.76774  0.87491  1.0000
  C   C593      1.0  0.92683  0.81260  0.87358  1.0000
  H   H1055     1.0  0.49681  0.70722  0.74857  1.0000
  C   C594      1.0  0.60880  0.79372  0.65375  1.0000
  H   H1056     1.0  0.91323  0.75348  0.88775  1.0000
  H   H1057     1.0  0.52548  0.61943  0.66938  1.0000
  C   C595      1.0  0.97086  0.86211  0.78662  1.0000
  H   H1058     1.0  0.89567  0.49281  0.97871  1.0000
  H   H1059     1.0  0.60392  0.81174  0.68247  1.0000
  C   C596      1.0  0.72367  0.93355  0.76021  1.0000
  H   H1060     1.0  0.66737  0.51454  0.80667  1.0000
  H   H1061     1.0  0.63674  0.48619  0.93878  1.0000
  C   C597      1.0  0.78426  0.93150  0.78573  1.0000
  C   C598      1.0  0.73972  0.90641  0.78899  1.0000
  C   C599      1.0  0.70960  0.90709  0.77628  1.0000
  C   C600      1.0  0.49765  0.71019  0.77898  1.0000
  H   H1062     1.0  0.67552  0.88760  0.77900  1.0000
  H   H1063     1.0  0.62121  0.54569  0.90501  1.0000
  C   C601      1.0  0.79842  0.95801  0.76968  1.0000
  H   H1064     1.0  0.72850  0.88645  0.80153  1.0000
  H   H1065     1.0  0.52286  0.71307  0.69209  1.0000
  S   S140      1.0  0.49075  0.82103  0.73527  1.0000
  H   H1066     1.0  0.68986  0.98021  0.78381  1.0000
  N   N35       1.0  0.63401  0.75566  0.79557  1.0000
  C   C602      1.0  0.61305  0.72608  0.77901  1.0000
  C   C603      1.0  0.62730  0.72896  0.81318  1.0000
  C   C604      1.0  0.61056  0.78034  0.79865  1.0000
  C   C605      1.0  0.68108  0.78731  0.79226  1.0000
  C   C606      1.0  0.70718  0.77218  0.78020  1.0000
  C   C607      1.0  0.61017  0.74801  0.76048  1.0000
  C   C608      1.0  0.62494  0.81105  0.81586  1.0000
  C   C609      1.0  0.75512  0.80543  0.78049  1.0000
  H   H1067     1.0  0.57056  0.68784  0.74569  1.0000
  C   C610      1.0  0.60446  0.83958  0.81525  1.0000
  H   H1068     1.0  0.62959  0.70786  0.77562  1.0000
  H   H1069     1.0  0.64095  0.74979  0.82577  1.0000
  H   H1070     1.0  0.57561  0.75767  0.80046  1.0000
  H   H1071     1.0  0.61375  0.80040  0.78602  1.0000
  H   H1072     1.0  0.68483  0.81640  0.78483  1.0000
  H   H1073     1.0  0.69790  0.79897  0.80606  1.0000
  H   H1074     1.0  0.69668  0.76798  0.76521  1.0000
  H   H1075     1.0  0.70334  0.74130  0.78521  1.0000
  H   H1076     1.0  0.58361  0.75530  0.76163  1.0000
  H   H1077     1.0  0.64021  0.77865  0.75769  1.0000
  H   H1078     1.0  0.66031  0.83219  0.81616  1.0000
  H   H1079     1.0  0.61448  0.79253  0.82932  1.0000
  H   H1080     1.0  0.68310  0.71963  0.81446  1.0000
  H   H1081     1.0  0.76795  0.81022  0.79515  1.0000
  H   H1082     1.0  0.77318  0.79435  0.77159  1.0000
  H   H1083     1.0  0.76073  0.83669  0.77477  1.0000
  H   H1084     1.0  0.59630  0.73457  0.73061  1.0000
  C   C611      1.0  0.61422  0.91846  0.66861  1.0000
  H   H1085     1.0  0.61450  0.86072  0.82784  1.0000
  H   H1086     1.0  0.61464  0.86007  0.80233  1.0000
  H   H1087     1.0  0.56881  0.81965  0.81530  1.0000
  H   H1088     1.0  0.56076  0.69957  0.66662  1.0000
  C   C612      1.0  0.49149  0.68670  0.79583  1.0000
  C   C613      1.0  0.60061  0.71886  0.74336  1.0000
  H   H1089     1.0  0.58447  0.51299  0.81960  1.0000
  H   H1090     1.0  0.70973  0.93535  0.68970  1.0000
  H   H1091     1.0  0.94390  0.83249  0.88554  1.0000
  H   H1092     1.0  0.68189  0.96883  0.66743  1.0000
  C   C614      1.0  0.58755  0.49770  0.86400  1.0000
  H   H1093     1.0  0.53741  0.90441  0.68196  1.0000
  H   H1094     1.0  0.73973  0.65647  0.97442  1.0000
  H   H1095     1.0  0.47531  0.62991  0.74772  1.0000
  H   H1096     1.0  0.59713  0.64735  0.82997  1.0000
  C   C615      1.0  0.52523  0.67954  0.66708  1.0000
  N   N36       1.0  0.65366  0.55182  0.93178  1.0000
  H   H1097     1.0  0.66486  0.58158  0.79871  1.0000
  C   C616      1.0  0.61334  0.53943  0.92039  1.0000
  C   C617      1.0  0.69080  0.58921  0.92182  1.0000
  C   C618      1.0  0.65014  0.56620  0.95139  1.0000
  C   C619      1.0  0.68512  0.62849  0.91731  1.0000
  C   C620      1.0  0.72423  0.66322  0.90670  1.0000
  H   H1098     1.0  0.59640  0.51393  0.79482  1.0000
  H   H1099     1.0  0.59940  0.55998  0.92433  1.0000
  H   H1100     1.0  0.66783  0.94193  0.70035  1.0000
  H   H1101     1.0  0.69785  0.57835  0.90823  1.0000
  H   H1102     1.0  0.72059  0.60180  0.93040  1.0000
  H   H1103     1.0  0.68187  0.58119  0.95857  1.0000
  H   H1104     1.0  0.64173  0.59204  0.95065  1.0000
  H   H1105     1.0  0.73395  0.54942  0.93527  1.0000
  H   H1106     1.0  0.68169  0.64308  0.93051  1.0000
  H   H1107     1.0  0.65657  0.61954  0.90828  1.0000
  H   H1108     1.0  0.75385  0.67439  0.91530  1.0000
  H   H1109     1.0  0.72845  0.65086  0.89295  1.0000
  H   H1110     1.0  0.71966  0.69109  0.90378  1.0000
  C   C621      1.0  0.70507  0.52436  0.94274  1.0000
  Fe  Fe71      1.0  0.94591  0.93539  0.83398  1.0000
  C   C622      1.0  0.48167  0.89475  0.66708  1.0000
  C   C623      1.0  0.51017  0.63328  0.66012  1.0000
  Fe  Fe72      1.0  0.50183  0.51388  0.83517  1.0000
  C   C624      1.0  0.66335  0.51545  0.93226  1.0000
  H   H1111     1.0  0.70529  0.53470  0.95752  1.0000
  H   H1112     1.0  0.59212  0.70839  0.81601  1.0000
  S   S141      1.0  0.82011  0.92929  0.80267  1.0000
  H   H1113     1.0  0.83251  0.97765  0.76697  1.0000
  S   S142      1.0  0.50889  0.51126  0.80375  1.0000
  H   H1114     1.0  0.85957  0.53325  0.94467  1.0000
  H   H1115     1.0  0.96141  0.54525  0.91048  1.0000
  C   C625      1.0  0.63237  0.66982  0.83068  1.0000
  H   H1116     1.0  0.65673  0.88962  0.69249  1.0000
  C   C626      1.0  0.75368  0.63700  0.97856  1.0000
  C   C627      1.0  0.61654  0.53168  0.96482  1.0000
  C   C628      1.0  0.64761  0.69970  0.81341  1.0000
  H   H1117     1.0  0.94476  0.59696  0.92579  1.0000
  C   C629      1.0  0.95738  0.51553  0.90494  1.0000
  H   H1118     1.0  0.57950  0.70110  0.78275  1.0000
  C   C630      1.0  0.94157  0.59853  0.94135  1.0000
  C   C631      1.0  0.80513  0.95702  0.85633  1.0000
  C   C632      1.0  0.83997  0.50164  0.98120  1.0000
  S   S143      1.0  0.48148  0.92163  0.74750  1.0000
  C   C633      1.0  0.49221  0.68957  0.76163  1.0000
  C   C634      1.0  0.63585  0.49851  0.81416  1.0000
  H   H1119     1.0  0.66564  0.50592  0.91753  1.0000
  H   H1120     1.0  0.51118  0.69511  0.65829  1.0000
  H   H1121     1.0  0.54514  0.95010  0.66811  1.0000
  H   H1122     1.0  0.60868  0.93752  0.67944  1.0000
  C   C635      1.0  0.61069  0.52196  0.80915  1.0000
  H   H1123     1.0  0.63998  0.68845  0.84400  1.0000
  H   H1124     1.0  0.89728  0.82012  0.82861  1.0000
  H   H1125     1.0  0.59671  0.88470  0.67378  1.0000
  H   H1126     1.0  0.80340  0.93318  0.84589  1.0000
  H   H1127     1.0  0.64877  0.65052  0.83106  1.0000
  H   H1128     1.0  0.62762  0.71275  0.74073  1.0000
  C   C636      1.0  0.61775  0.48657  0.87075  1.0000
  H   H1129     1.0  0.64491  0.50107  0.77604  1.0000
  S   S144      1.0  0.90773  0.96813  0.84004  1.0000
  C   C637      1.0  0.63972  0.57059  0.80986  1.0000
  C   C638      1.0  0.48012  0.64576  0.76120  1.0000
  C   C639      1.0  0.54648  0.79490  0.66660  1.0000
  C   C640      1.0  0.67483  0.92451  0.68923  1.0000
  H   H1130     1.0  0.61958  0.50252  0.96551  1.0000
  H   H1131     1.0  0.70806  0.97160  0.81698  1.0000
  H   H1132     1.0  0.62008  0.58625  0.80745  1.0000
  C   C641      1.0  0.76828  0.95917  0.75709  1.0000
  H   H1133     1.0  0.54171  0.49844  0.89741  1.0000
  C   C642      1.0  0.48003  0.64308  0.79539  1.0000
  H   H1134     1.0  0.52285  0.50358  0.92045  1.0000
  H   H1135     1.0  0.53436  0.86428  0.65344  1.0000
  H   H1136     1.0  0.74035  0.49207  0.95042  1.0000
  H   H1137     1.0  0.58367  0.52298  0.96012  1.0000
  H   H1138     1.0  0.78024  0.96857  0.82241  1.0000
  C   C643      1.0  0.51143  0.67954  0.68755  1.0000
  H   H1139     1.0  0.52552  0.66523  0.69717  1.0000
  H   H1140     1.0  0.67240  0.91709  0.65918  1.0000
  H   H1141     1.0  0.94307  0.85384  0.79609  1.0000
  H   H1142     1.0  0.80590  0.48630  0.97665  1.0000
  H   H1143     1.0  0.77303  0.94496  0.86295  1.0000
  H   H1144     1.0  0.85619  0.53577  0.97672  1.0000
  C   C644      1.0  0.53569  0.48616  0.91222  1.0000
  H   H1145     1.0  0.82836  0.96038  0.86754  1.0000
  C   C645      1.0  0.57699  0.49186  0.92125  1.0000
  H   H1146     1.0  0.88541  0.51919  0.92728  1.0000
  C   C646      1.0  0.47386  0.62225  0.77805  1.0000
  H   H1147     1.0  0.47511  0.62535  0.80846  1.0000
  C   C647      1.0  0.70937  0.48418  0.94357  1.0000
  H   H1148     1.0  0.77960  0.97991  0.74477  1.0000
  H   H1149     1.0  0.47537  0.61415  0.66335  1.0000
  H   H1150     1.0  0.47584  0.66138  0.68884  1.0000
  H   H1151     1.0  0.96490  0.83286  0.77887  1.0000
  C   C648      1.0  0.54794  0.89946  0.65163  1.0000
  H   H1152     1.0  0.97196  0.72961  0.86107  1.0000
