data_image0
_chemical_formula_structural       C3H2SHCHS2FeSFeS2C2HC3H3C6H4C5H3C6H2CH3FeS2H3CH2FeC2HCHCH6C2SH3CHCH2C3HC2H2CH5CH2SHCH6SH5CH6FeHC3HCHCHSHC2H2SHC3HC3SFeH2CH2C2H3CSCHCH6SH2CH3C3H2CH3CH2CH2NCN2H3C3H4FeH4CH4CH3CH6CH2CH5CH7CHCHC3FeH2NCH2SH6CH2CHCHCHCHCHCH5C2HCH5CHCNH3C3H2CH2C2H2CHSCH2CSH12CH5S2FeSFeSH3FeHSFeSCSHSHSCFeHC2H4FeS2HC7H3CHSH8C6H4CHC2H2CH3NSCHC2NC11H32CH2CH4C3HC2SCH8FeCH6CHC2HSC2H3C2H2CNHNC2H3CH3CH2CHSH5C2H6CNH4CHCHC2H3S2FeSFeS2FeSFeS3FeS2FeS2Fe2S5HC6H2SC6H4C3HSH4C6H4C6H5C4H5C5H5FeH3C3H3SHCH2CH3CHC2HCH5C2HNC3HC5HC2H6FeH2CH2CH2NH13C2HC2HNC5SC3H2CH8CH2CH7NC2H2SH3C2HCH13CH2CH2FeH2FeH2CH4CHCHC2H4CHCH8C2HCHNH3CH2SC2HCH3CHCH2CH2SCHCH2CHC2H4CH2CHFeH6CH4CH5CH6C2SHSFeS2FeS2FeSFeS3FeHCSFeS2FeS2FeSFeS3FeS3HC6H4CHC4FeH2C6H4C6H4C6H4C6H6C3HCH3NC11H32SHCH2CFeH2CHCHC2H6NH2C3H6C2H8CH10C3HCH4C2H2C2HCHCH2CNH2CH5CH4CHCHCH6CHC2HCNHCH3C2H2CHCHFeCHCHCNH2CH2CH3C3H3CH4CH3CH2CH5C2H2NHSH2NSH4CH5CHCHSH2C2HS2CHSHNH2FeSFeS3H2C4H2FeHSCHCH3CHSH4CH6CH3CHC2HSFeCH2FeC2HCHCH5SH3C2HFeC2H2C2H2CH2C2H3CHCHC2HC2H2C3HCH3CH4C2H2C2NHCHNH2SCFeSFeHSFeH2CHSHC2H3CHCH3C2HC2HC2H2C4NC4H7CH7CH3CH4FeH3C2HC2H2CHSCSHCH3CH5CHCHC2H3CSHCH2CH7C3H5C2H3CHCH4SHC2H3CH2NCH5CH3CFeS2FeS2FeSFeS3CSFeS2H2FeS2FeSHFeSFeS3CH3SC6HFeH2C6H10C6H4C6H5CHCHSHC6H7C2H8CH5CH5C2H9SHC2H2CH3CHC3H4CH2SH8CH5CH5CHFeCH2C2HCHNC12H22C2NH2SH4C2H3NHCH4CH3C2HC2H2CFeH2NCHCH2CH2CHC2H2C2H4C2H4CH2CHFeS2FeSCFe2S3FeS2Fe2S2H2Fe2S2FeS2C2FeSCFeS2Fe2S3C6H4C6H10C3H2C6H2CHC6H4C6H7CHCH4C2H2SCH3CHCH3CH3NCH2CH2CSHCH6CH3NC11H23S2HCH3SCH2CH3C2H5C2H3C4NH5CHC2HCHNH2CH3CSH4NH2C2HCH7SH8CH3CH4CH2C3SFeHC4H4C2SH2CH3CHC2H2CH2CH13CH7CSCH3CHSCHS2FeSFeSH3SHCH2C6H5CHCH2CHC4SH3C2H5NHCH7C2HNHCHC3SC3FeH4CHC2H3CHCHCHCHCHC2HCNCHC2H3CNH3FeH8CH4CHCH3CHCHNC3H2CHC3HCH8C3HCH6CHCH2C3HCHCH2CH4CHC2H7CH9C2H2CFeHCH4C2H5CH2NCSHCH3CHCH2C3H3FeHCH2SH2CH3C2H2CH3SHCSC4HCH4CHCH4C2HC2HSH4CNHC2HCH2CS2FeSFeSFe2S2HSCSHCSH3SFe2S2C6H4C6SHCHC6H4C6H7C3HC2H2C2HFeCH2SH4CH6CH2FeCH2CH3NH2FeCH2FeCH4S2HSH6CHCH3CHCHFeHSHCH2CHCHC2H6C2H4CHNCH4SCHC5H7NHNH4CH5CHC3H2FeH5C4H7CH2CSCH2CH4CH3CSCHCH2NC
_chemical_formula_sum              "C864 H1536 S192 Fe96 N48"
_cell_length_a       63.8298
_cell_length_b       51.178
_cell_length_c       33.4963
_cell_angle_alpha    90.0001
_cell_angle_beta     90.2744
_cell_angle_gamma    89.6782

_space_group_name_H-M_alt    "P 1"
_space_group_IT_number       1

loop_
  _space_group_symop_operation_xyz
  'x, y, z'

loop_
  _atom_site_type_symbol
  _atom_site_label
  _atom_site_symmetry_multiplicity
  _atom_site_fract_x
  _atom_site_fract_y
  _atom_site_fract_z
  _atom_site_occupancy
  C   C1        1.0  0.07373  0.02481  0.99733  1.0000
  C   C2        1.0  0.23492  0.04833  0.07219  1.0000
  C   C3        1.0  0.27690  0.07605  0.19586  1.0000
  H   H1        1.0  0.17880  0.49271  0.29137  1.0000
  H   H2        1.0  0.03231  0.19382  0.04739  1.0000
  S   S1        1.0  0.09686  0.45430  0.11104  1.0000
  H   H3        1.0  0.15293  0.03774  0.00157  1.0000
  C   C4        1.0  0.07138  0.00598  0.03328  1.0000
  H   H4        1.0  0.31820  0.06568  0.19764  1.0000
  S   S2        1.0  0.14178  0.02504  0.19474  1.0000
  S   S3        1.0  0.12801  0.03545  0.10198  1.0000
  Fe  Fe1       1.0  0.15829  0.03475  0.13684  1.0000
  S   S4        1.0  0.18073  0.06924  0.12911  1.0000
  Fe  Fe2       1.0  0.11213  0.02200  0.15764  1.0000
  S   S5        1.0  0.07946  0.03320  0.18044  1.0000
  S   S6        1.0  0.30032  0.14061  0.04651  1.0000
  C   C5        1.0  0.20492  0.06986  0.10286  1.0000
  C   C6        1.0  0.21583  0.04699  0.09318  1.0000
  H   H5        1.0  0.14650  0.07669  0.04343  1.0000
  C   C7        1.0  0.24334  0.07248  0.06036  1.0000
  C   C8        1.0  0.23254  0.09539  0.07043  1.0000
  C   C9        1.0  0.21356  0.09407  0.09183  1.0000
  H   H6        1.0  0.20961  0.02828  0.10215  1.0000
  H   H7        1.0  0.23860  0.11412  0.06113  1.0000
  H   H8        1.0  0.20529  0.11191  0.09928  1.0000
  C   C10       1.0  0.02860  0.08551  0.12194  1.0000
  C   C11       1.0  0.04804  0.08162  0.10302  1.0000
  C   C12       1.0  0.06380  0.06586  0.12056  1.0000
  C   C13       1.0  0.06029  0.05368  0.15729  1.0000
  C   C14       1.0  0.04088  0.05763  0.17626  1.0000
  C   C15       1.0  0.02513  0.07347  0.15878  1.0000
  H   H9        1.0  0.05090  0.09078  0.07448  1.0000
  H   H10       1.0  0.07868  0.06317  0.10579  1.0000
  H   H11       1.0  0.03798  0.04833  0.20470  1.0000
  H   H12       1.0  0.01026  0.07616  0.17364  1.0000
  C   C16       1.0  0.00645  0.03014  0.06237  1.0000
  C   C17       1.0  0.22728  0.47195  0.06668  1.0000
  C   C18       1.0  0.22202  0.45773  0.10086  1.0000
  C   C19       1.0  0.23517  0.43683  0.11253  1.0000
  C   C20       1.0  0.25324  0.43011  0.09041  1.0000
  H   H13       1.0  0.01870  0.49697  0.09613  1.0000
  H   H14       1.0  0.19933  0.05352  0.00993  1.0000
  H   H15       1.0  0.06865  0.46077  0.23214  1.0000
  C   C21       1.0  0.02844  0.44589  0.15277  1.0000
  C   C22       1.0  0.03755  0.42731  0.12751  1.0000
  C   C23       1.0  0.05841  0.43036  0.11461  1.0000
  C   C24       1.0  0.07028  0.45216  0.12625  1.0000
  C   C25       1.0  0.06084  0.47138  0.14980  1.0000
  C   C26       1.0  0.04016  0.46806  0.16354  1.0000
  H   H16       1.0  0.02875  0.41017  0.11895  1.0000
  H   H17       1.0  0.06549  0.41547  0.09602  1.0000
  C   C27       1.0  0.10552  0.43159  0.21306  1.0000
  H   H18       1.0  0.17346  0.08624  0.03909  1.0000
  H   H19       1.0  0.23413  0.07544  0.21760  1.0000
  H   H20       1.0  0.03316  0.48269  0.18268  1.0000
  Fe  Fe3       1.0  0.17017  0.49111  0.12474  1.0000
  S   S7        1.0  0.14528  0.49355  0.07662  1.0000
  S   S8        1.0  0.31866  0.37449  0.06768  1.0000
  H   H21       1.0  0.01996  0.46955  0.30642  1.0000
  H   H22       1.0  0.00371  0.23573  0.16734  1.0000
  H   H23       1.0  0.31829  0.48239  0.48281  1.0000
  C   C28       1.0  0.20340  0.47819  0.24979  1.0000
  H   H24       1.0  0.15191  0.46062  0.27284  1.0000
  H   H25       1.0  0.03120  0.27030  0.11373  1.0000
  Fe  Fe4       1.0  0.32048  0.34781  0.01374  1.0000
  C   C29       1.0  0.19674  0.00139  0.01169  1.0000
  C   C30       1.0  0.01977  0.21631  0.11780  1.0000
  H   H26       1.0  0.03726  0.13425  0.04166  1.0000
  C   C31       1.0  0.26831  0.12352  0.13944  1.0000
  H   H27       1.0  0.24601  0.04388  0.22833  1.0000
  C   C32       1.0  0.31716  0.10252  0.22861  1.0000
  H   H28       1.0  0.05457  0.17447  0.06413  1.0000
  H   H29       1.0  0.02586  0.45795  0.35599  1.0000
  H   H30       1.0  0.01609  0.13173  0.23878  1.0000
  H   H31       1.0  0.05341  0.19959  0.17727  1.0000
  H   H32       1.0  0.21013  0.46261  0.26937  1.0000
  H   H33       1.0  0.20264  0.46970  0.21924  1.0000
  C   C33       1.0  0.01311  0.49389  0.06501  1.0000
  C   C34       1.0  0.05206  0.19388  0.14524  1.0000
  S   S9        1.0  0.00313  0.44155  0.17363  1.0000
  H   H34       1.0  0.31196  0.18575  0.11174  1.0000
  H   H35       1.0  0.23407  0.46151  0.19756  1.0000
  H   H36       1.0  0.09141  0.42404  0.19735  1.0000
  C   C35       1.0  0.31127  0.27453  0.00755  1.0000
  H   H37       1.0  0.30374  0.03983  0.06706  1.0000
  C   C36       1.0  0.29792  0.03030  0.09458  1.0000
  H   H38       1.0  0.03352  0.15132  0.11246  1.0000
  H   H39       1.0  0.00203  0.45445  0.07756  1.0000
  C   C37       1.0  0.29533  0.07461  0.12956  1.0000
  C   C38       1.0  0.31239  0.01005  0.46445  1.0000
  C   C39       1.0  0.25781  0.06301  0.17475  1.0000
  H   H40       1.0  0.20825  0.01084  0.03191  1.0000
  C   C40       1.0  0.03159  0.48453  0.03847  1.0000
  C   C41       1.0  0.09795  0.49237  0.30530  1.0000
  H   H41       1.0  0.23132  0.42563  0.13886  1.0000
  H   H42       1.0  0.03730  0.04023  0.04299  1.0000
  C   C42       1.0  0.30394  0.04615  0.13149  1.0000
  H   H43       1.0  0.10887  0.41931  0.23968  1.0000
  H   H44       1.0  0.31850  0.12362  0.22129  1.0000
  H   H45       1.0  0.08098  0.05985  0.03168  1.0000
  H   H46       1.0  0.09311  0.45579  0.33973  1.0000
  H   H47       1.0  0.24320  0.03046  0.06504  1.0000
  C   C43       1.0  0.25859  0.44447  0.05644  1.0000
  H   H48       1.0  0.10377  0.04778  0.31327  1.0000
  H   H49       1.0  0.09153  0.21341  0.16408  1.0000
  S   S10       1.0  0.28171  0.43789  0.02812  1.0000
  H   H50       1.0  0.06822  0.00136  0.34421  1.0000
  C   C44       1.0  0.16047  0.07581  0.02384  1.0000
  H   H51       1.0  0.29810  0.03566  0.15814  1.0000
  H   H52       1.0  0.00339  0.26566  0.10672  1.0000
  H   H53       1.0  0.28064  0.02834  0.09243  1.0000
  H   H54       1.0  0.01861  0.19717  0.19377  1.0000
  H   H55       1.0  0.30055  0.02601  0.46521  1.0000
  H   H56       1.0  0.30038  0.21092  0.03201  1.0000
  S   S11       1.0  0.00909  0.10469  0.09725  1.0000
  H   H57       1.0  0.10024  0.47161  0.19724  1.0000
  H   H58       1.0  0.28021  0.07445  0.11331  1.0000
  H   H59       1.0  0.11344  0.48640  0.38338  1.0000
  H   H60       1.0  0.03657  0.02130  0.08770  1.0000
  H   H61       1.0  0.00361  0.21273  0.10616  1.0000
  C   C45       1.0  0.31451  0.08633  0.18978  1.0000
  H   H62       1.0  0.06979  0.01801  0.06065  1.0000
  H   H63       1.0  0.05555  0.45027  0.31114  1.0000
  H   H64       1.0  0.18228  0.99934  0.02986  1.0000
  H   H65       1.0  0.24451  0.47856  0.26475  1.0000
  H   H66       1.0  0.11453  0.45446  0.30571  1.0000
  H   H67       1.0  0.01534  0.13998  0.16735  1.0000
  Fe  Fe5       1.0  0.30683  0.40529  0.02460  1.0000
  H   H68       1.0  0.06343  0.21226  0.08918  1.0000
  C   C46       1.0  0.01633  0.26540  0.12899  1.0000
  C   C47       1.0  0.31763  0.20385  0.12645  1.0000
  C   C48       1.0  0.16857  0.45672  0.26540  1.0000
  H   H69       1.0  0.06075  0.23426  0.13012  1.0000
  C   C49       1.0  0.02682  0.17018  0.10173  1.0000
  H   H70       1.0  0.09443  0.19137  0.12209  1.0000
  C   C50       1.0  0.01319  0.15205  0.22837  1.0000
  H   H71       1.0  0.26848  0.11479  0.10920  1.0000
  S   S12       1.0  0.14661  0.47963  0.17136  1.0000
  H   H72       1.0  0.30495  0.01045  0.09654  1.0000
  C   C51       1.0  0.16648  0.04730  0.01622  1.0000
  C   C52       1.0  0.09925  0.01414  0.27413  1.0000
  H   H73       1.0  0.10365  0.04056  0.01744  1.0000
  H   H74       1.0  0.11658  0.46715  0.24034  1.0000
  S   S13       1.0  0.20003  0.46595  0.13137  1.0000
  H   H75       1.0  0.26309  0.41397  0.09984  1.0000
  C   C53       1.0  0.26592  0.47363  0.19349  1.0000
  C   C54       1.0  0.02964  0.02332  0.05755  1.0000
  C   C55       1.0  0.24549  0.46544  0.04483  1.0000
  H   H76       1.0  0.21746  0.48813  0.05734  1.0000
  C   C56       1.0  0.30510  0.22739  0.01399  1.0000
  C   C57       1.0  0.02219  0.15547  0.18651  1.0000
  C   C58       1.0  0.05313  0.47035  0.32257  1.0000
  S   S14       1.0  0.26670  0.07253  0.03136  1.0000
  Fe  Fe6       1.0  0.12161  0.48521  0.12480  1.0000
  H   H77       1.0  0.03841  0.46759  0.05517  1.0000
  H   H78       1.0  0.06015  0.17456  0.14336  1.0000
  C   C59       1.0  0.08262  0.46349  0.25179  1.0000
  H   H79       1.0  0.25100  0.07523  0.15076  1.0000
  H   H80       1.0  0.09775  0.22603  0.11533  1.0000
  C   C60       1.0  0.28870  0.11685  0.16243  1.0000
  C   C61       1.0  0.24279  0.48011  0.20016  1.0000
  H   H81       1.0  0.27170  0.45970  0.21652  1.0000
  H   H82       1.0  0.30367  0.09972  0.24892  1.0000
  H   H83       1.0  0.31057  0.22111  0.11134  1.0000
  C   C62       1.0  0.08798  0.04776  0.00761  1.0000
  S   S15       1.0  0.31108  0.30592  0.03056  1.0000
  C   C63       1.0  0.08868  0.21094  0.13155  1.0000
  H   H84       1.0  0.06960  0.48861  0.15763  1.0000
  C   C64       1.0  0.10951  0.04025  0.28419  1.0000
  H   H85       1.0  0.25114  0.15718  0.11696  1.0000
  H   H86       1.0  0.25444  0.11674  0.15617  1.0000
  H   H87       1.0  0.00473  0.04813  0.08051  1.0000
  H   H88       1.0  0.28740  0.12739  0.19132  1.0000
  H   H89       1.0  0.31243  0.20371  0.15804  1.0000
  H   H90       1.0  0.10188  0.00155  0.33510  1.0000
  S   S16       1.0  0.32526  0.08481  0.03079  1.0000
  H   H91       1.0  0.30596  0.08583  0.10971  1.0000
  H   H92       1.0  0.10552  0.05476  0.26063  1.0000
  C   C65       1.0  0.03728  0.17500  0.06081  1.0000
  H   H93       1.0  0.28392  0.06050  0.21507  1.0000
  H   H94       1.0  0.02849  0.22391  0.09179  1.0000
  H   H95       1.0  0.01424  0.15265  0.02676  1.0000
  C   C66       1.0  0.18025  0.48262  0.26222  1.0000
  C   C67       1.0  0.01799  0.23863  0.14904  1.0000
  C   C68       1.0  0.06537  0.21405  0.12186  1.0000
  H   H96       1.0  0.26419  0.16272  0.16404  1.0000
  H   H97       1.0  0.30073  0.25562  0.06120  1.0000
  C   C69       1.0  0.01675  0.18282  0.16905  1.0000
  H   H98       1.0  0.24942  0.47673  0.01867  1.0000
  H   H99       1.0  0.08221  0.44668  0.27260  1.0000
  H   H100      1.0  0.32134  0.04656  0.13341  1.0000
  C   C70       1.0  0.26561  0.15305  0.13447  1.0000
  H   H101      1.0  0.26786  0.46440  0.16368  1.0000
  H   H102      1.0  0.03881  0.15768  0.00166  1.0000
  C   C71       1.0  0.24028  0.05708  0.20426  1.0000
  H   H103      1.0  0.27078  0.09085  0.21730  1.0000
  H   H104      1.0  0.23779  0.49333  0.17563  1.0000
  N   N1        1.0  0.08105  0.48914  0.27390  1.0000
  C   C72       1.0  0.30535  0.25275  0.03049  1.0000
  N   N2        1.0  0.29335  0.08821  0.16933  1.0000
  N   N3        1.0  0.02931  0.19115  0.13307  1.0000
  H   H105      1.0  0.30192  0.12606  0.14609  1.0000
  H   H106      1.0  0.11901  0.43006  0.19233  1.0000
  H   H107      1.0  0.17214  0.49457  0.23934  1.0000
  C   C73       1.0  0.06883  0.48940  0.02296  1.0000
  C   C74       1.0  0.03150  0.15356  0.03099  1.0000
  C   C75       1.0  0.23931  0.49293  0.24167  1.0000
  H   H108      1.0  0.01308  0.28064  0.15179  1.0000
  H   H109      1.0  0.05620  0.45222  0.99901  1.0000
  H   H110      1.0  0.27909  0.16151  0.11831  1.0000
  H   H111      1.0  0.07417  0.48104  0.05193  1.0000
  Fe  Fe7       1.0  0.29311  0.10171  0.01830  1.0000
  H   H112      1.0  0.12684  0.03808  0.28542  1.0000
  H   H113      1.0  0.16915  0.44599  0.23657  1.0000
  H   H114      1.0  0.12717  0.45605  0.37480  1.0000
  H   H115      1.0  0.26257  0.04424  0.16086  1.0000
  C   C76       1.0  0.02993  0.47286  0.33324  1.0000
  H   H116      1.0  0.03159  0.23888  0.16975  1.0000
  H   H117      1.0  0.99908  0.03371  0.03281  1.0000
  H   H118      1.0  0.17554  0.44433  0.28928  1.0000
  H   H119      1.0  0.22716  0.04731  0.18833  1.0000
  C   C77       1.0  0.10223  0.46011  0.22510  1.0000
  H   H120      1.0  0.03936  0.15223  0.18836  1.0000
  H   H121      1.0  0.16903  0.03797  0.04580  1.0000
  H   H122      1.0  0.10485  0.00841  0.24412  1.0000
  C   C78       1.0  0.10598  0.46733  0.32679  1.0000
  H   H123      1.0  0.09272  0.44324  0.02095  1.0000
  H   H124      1.0  0.99966  0.18283  0.16177  1.0000
  H   H125      1.0  0.06219  0.47301  0.35061  1.0000
  H   H126      1.0  0.02077  0.16573  0.24965  1.0000
  H   H127      1.0  0.00988  0.16651  0.09634  1.0000
  H   H128      1.0  0.31286  0.48940  0.04984  1.0000
  C   C79       1.0  0.12130  0.47423  0.36036  1.0000
  H   H129      1.0  0.02489  0.47612  0.01053  1.0000
  H   H130      1.0  0.32385  0.05313  0.42672  1.0000
  C   C80       1.0  0.05945  0.49146  0.29184  1.0000
  H   H131      1.0  0.08208  0.01747  0.27279  1.0000
  H   H132      1.0  0.02678  0.00393  0.00130  1.0000
  H   H133      1.0  0.30352  0.00521  0.40149  1.0000
  H   H134      1.0  0.13493  0.48506  0.34830  1.0000
  H   H135      1.0  0.02646  0.49252  0.34571  1.0000
  C   C81       1.0  0.03237  0.99833  0.03173  1.0000
  H   H136      1.0  0.32718  0.09252  0.16902  1.0000
  H   H137      1.0  0.04741  0.49160  0.26751  1.0000
  H   H138      1.0  0.27552  0.49165  0.19432  1.0000
  H   H139      1.0  0.99807  0.01416  0.07794  1.0000
  H   H140      1.0  0.30965  0.99888  0.49246  1.0000
  H   H141      1.0  0.03477  0.99968  0.30639  1.0000
  H   H142      1.0  0.24620  0.04527  0.91438  1.0000
  C   C82       1.0  0.06845  0.46680  0.99200  1.0000
  H   H143      1.0  0.31249  0.46693  0.98542  1.0000
  C   C83       1.0  0.18671  0.04538  0.99067  1.0000
  H   H144      1.0  0.26049  0.42937  0.77128  1.0000
  C   C84       1.0  0.29930  0.43722  0.91420  1.0000
  C   C85       1.0  0.21158  0.02122  0.94953  1.0000
  C   C86       1.0  0.31452  0.15376  0.83965  1.0000
  Fe  Fe8       1.0  0.31224  0.15316  0.98630  1.0000
  H   H145      1.0  0.27480  0.11149  0.87031  1.0000
  H   H146      1.0  0.29976  0.48173  0.75463  1.0000
  N   N4        1.0  0.19252  0.01841  0.97578  1.0000
  C   C87       1.0  0.00568  0.00341  0.90329  1.0000
  H   H147      1.0  0.21625  0.00225  0.93626  1.0000
  H   H148      1.0  0.25964  0.45925  0.79975  1.0000
  S   S17       1.0  0.30211  0.11554  0.95660  1.0000
  H   H149      1.0  0.20774  0.03418  0.92373  1.0000
  H   H150      1.0  0.30913  0.48287  0.68796  1.0000
  H   H151      1.0  0.26703  0.43411  0.89293  1.0000
  H   H152      1.0  0.27191  0.13967  0.83836  1.0000
  H   H153      1.0  0.28716  0.47443  0.89612  1.0000
  H   H154      1.0  0.31944  0.42671  0.78057  1.0000
  C   C88       1.0  0.32547  0.06249  0.50566  1.0000
  H   H155      1.0  0.32799  0.47165  0.53070  1.0000
  H   H156      1.0  0.09006  0.06027  0.98086  1.0000
  C   C89       1.0  0.32817  0.07446  0.54711  1.0000
  H   H157      1.0  0.33069  0.13975  0.77062  1.0000
  C   C90       1.0  0.28227  0.42378  0.88953  1.0000
  H   H158      1.0  0.30622  0.45076  0.63452  1.0000
  C   C91       1.0  0.31646  0.24522  0.95100  1.0000
  H   H159      1.0  0.19775  0.00410  0.56426  1.0000
  C   C92       1.0  0.26883  0.44795  0.77750  1.0000
  H   H160      1.0  0.08101  0.01427  0.97185  1.0000
  C   C93       1.0  0.23165  0.03210  0.96966  1.0000
  H   H161      1.0  0.32081  0.20735  0.84399  1.0000
  C   C94       1.0  0.24994  0.03253  0.94033  1.0000
  H   H162      1.0  0.28034  0.40338  0.90017  1.0000
  H   H163      1.0  0.02188  0.01121  0.90315  1.0000
  H   H164      1.0  0.22926  0.05247  0.98002  1.0000
  H   H165      1.0  0.31309  0.11657  0.87224  1.0000
  H   H166      1.0  0.27178  0.46817  0.65919  1.0000
  C   C95       1.0  0.29685  0.46538  0.61744  1.0000
  C   C96       1.0  0.08947  0.45234  0.99141  1.0000
  H   H167      1.0  0.26408  0.04044  0.95545  1.0000
  C   C97       1.0  0.28317  0.48159  0.64549  1.0000
  H   H168      1.0  0.32150  0.28712  0.94962  1.0000
  H   H169      1.0  0.32023  0.09379  0.54828  1.0000
  H   H170      1.0  0.31145  0.16630  0.86622  1.0000
  H   H171      1.0  0.31417  0.05122  0.80992  1.0000
  H   H172      1.0  0.28444  0.44312  0.79035  1.0000
  C   C98       1.0  0.30700  0.48390  0.96726  1.0000
  H   H173      1.0  0.31868  0.06908  0.87847  1.0000
  C   C99       1.0  0.31698  0.27059  0.96769  1.0000
  N   N5        1.0  0.31657  0.48256  0.92608  1.0000
  H   H174      1.0  0.18616  0.00012  0.89163  1.0000
  H   H175      1.0  0.32103  0.06162  0.57001  1.0000
  H   H176      1.0  0.28666  0.42319  0.85754  1.0000
  C   C100      1.0  0.27120  0.46349  0.73880  1.0000
  C   C101      1.0  0.28156  0.13077  0.86251  1.0000
  C   C102      1.0  0.30300  0.46564  0.89958  1.0000
  H   H177      1.0  0.27976  0.45075  0.71747  1.0000
  H   H178      1.0  0.30846  0.05984  0.50064  1.0000
  C   C103      1.0  0.32977  0.05454  0.82153  1.0000
  H   H179      1.0  0.28085  0.14355  0.88931  1.0000
  H   H180      1.0  0.27418  0.49573  0.62692  1.0000
  C   C104      1.0  0.30419  0.12709  0.84869  1.0000
  C   C105      1.0  0.17418  0.00795  0.95177  1.0000
  H   H181      1.0  0.30758  0.47819  0.60055  1.0000
  H   H182      1.0  0.30354  0.11464  0.82158  1.0000
  C   C106      1.0  0.28380  0.48879  0.74621  1.0000
  H   H183      1.0  0.30558  0.16278  0.81443  1.0000
  S   S18       1.0  0.30661  0.37802  0.97134  1.0000
  C   C107      1.0  0.31059  0.22347  0.97406  1.0000
  H   H184      1.0  0.06554  0.47447  0.96149  1.0000
  H   H185      1.0  0.18502  0.05910  0.96497  1.0000
  C   C108      1.0  0.32165  0.48870  0.51390  1.0000
  S   S19       1.0  0.31064  0.19180  0.95203  1.0000
  H   H186      1.0  0.25367  0.01250  0.92967  1.0000
  H   H187      1.0  0.29434  0.43673  0.94578  1.0000
  H   H188      1.0  0.31372  0.42527  0.91142  1.0000
  H   H189      1.0  0.32324  0.40641  0.84769  1.0000
  H   H190      1.0  0.16507  0.02425  0.93783  1.0000
  H   H191      1.0  0.30975  0.46440  0.86895  1.0000
  H   H192      1.0  0.28680  0.45484  0.59568  1.0000
  H   H193      1.0  0.10239  0.46594  0.98401  1.0000
  H   H194      1.0  0.25522  0.46751  0.72728  1.0000
  H   H195      1.0  0.08904  0.43661  0.96858  1.0000
  H   H196      1.0  0.05829  0.03258  0.98745  1.0000
  H   H197      1.0  0.32066  0.24246  0.92006  1.0000
  C   C109      1.0  0.29655  0.49635  0.67710  1.0000
  H   H198      1.0  0.28964  0.48166  0.96570  1.0000
  H   H199      1.0  0.30684  0.49514  0.52819  1.0000
  H   H200      1.0  0.23650  0.01974  0.99528  1.0000
  H   H201      1.0  0.15665  0.08588  0.99534  1.0000
  H   H202      1.0  0.16290  0.99799  0.97178  1.0000
  S   S20       1.0  0.16779  0.53387  0.14085  1.0000
  S   S21       1.0  0.11625  0.52715  0.14182  1.0000
  Fe  Fe9       1.0  0.14107  0.53540  0.09588  1.0000
  S   S22       1.0  0.13724  0.57033  0.05398  1.0000
  Fe  Fe10      1.0  0.14328  0.52248  0.18541  1.0000
  S   S23       1.0  0.14093  0.53314  0.25227  1.0000
  H   H203      1.0  0.09709  0.89825  0.20428  1.0000
  H   H204      1.0  0.02563  0.55166  0.01510  1.0000
  H   H205      1.0  0.12242  0.99047  0.30450  1.0000
  Fe  Fe11      1.0  0.14754  0.98301  0.17818  1.0000
  H   H206      1.0  0.06402  0.94911  0.29904  1.0000
  S   S24       1.0  0.18021  0.80470  0.45725  1.0000
  Fe  Fe12      1.0  0.19477  0.61164  0.44296  1.0000
  S   S25       1.0  0.19274  0.60548  0.37452  1.0000
  C   C110      1.0  0.22218  0.54619  0.21387  1.0000
  S   S26       1.0  0.22683  0.62385  0.46449  1.0000
  H   H207      1.0  0.12467  0.61326  0.00392  1.0000
  S   S27       1.0  0.15764  0.94998  0.22156  1.0000
  H   H208      1.0  0.07655  0.92691  0.24746  1.0000
  S   S28       1.0  0.11696  0.97935  0.14389  1.0000
  C   C111      1.0  0.09385  0.92771  0.25056  1.0000
  Fe  Fe13      1.0  0.18851  0.84651  0.47621  1.0000
  H   H209      1.0  0.21889  0.55852  0.34146  1.0000
  C   C112      1.0  0.11191  0.93715  0.40402  1.0000
  C   C113      1.0  0.21373  0.77393  0.48370  1.0000
  H   H210      1.0  0.29153  0.62060  0.45727  1.0000
  H   H211      1.0  0.02975  0.96737  0.32624  1.0000
  H   H212      1.0  0.24523  0.55246  0.35841  1.0000
  H   H213      1.0  0.16683  0.63220  0.24726  1.0000
  Fe  Fe14      1.0  0.18053  0.90431  0.45618  1.0000
  S   S29       1.0  0.16937  0.93661  0.41218  1.0000
  S   S30       1.0  0.20797  0.87723  0.44516  1.0000
  H   H214      1.0  0.06243  0.96138  0.16582  1.0000
  C   C114      1.0  0.16714  0.93978  0.35883  1.0000
  C   C115      1.0  0.16404  0.96482  0.34208  1.0000
  C   C116      1.0  0.16144  0.96838  0.30039  1.0000
  C   C117      1.0  0.16157  0.94686  0.27456  1.0000
  C   C118      1.0  0.16470  0.92183  0.29126  1.0000
  C   C119      1.0  0.16752  0.91828  0.33293  1.0000
  C   C120      1.0  0.11306  0.93598  0.01447  1.0000
  H   H215      1.0  0.24837  0.51415  0.31463  1.0000
  H   H216      1.0  0.16496  0.90497  0.27178  1.0000
  H   H217      1.0  0.16983  0.89888  0.34502  1.0000
  C   C121      1.0  0.24084  0.67086  0.39254  1.0000
  H   H218      1.0  0.06539  0.97929  0.27375  1.0000
  S   S31       1.0  0.17871  0.64483  0.47559  1.0000
  H   H219      1.0  0.19801  0.56855  0.18255  1.0000
  H   H220      1.0  0.12420  0.92349  0.39305  1.0000
  H   H221      1.0  0.09902  0.93137  0.18644  1.0000
  H   H222      1.0  0.24170  0.54283  0.28640  1.0000
  H   H223      1.0  0.09729  0.92609  0.40951  1.0000
  H   H224      1.0  0.04460  0.95073  0.06026  1.0000
  H   H225      1.0  0.11508  0.53039  0.00775  1.0000
  H   H226      1.0  0.04681  0.93169  0.00011  1.0000
  C   C122      1.0  0.15597  0.55295  0.28571  1.0000
  C   C123      1.0  0.17156  0.56998  0.27251  1.0000
  C   C124      1.0  0.18270  0.58560  0.30014  1.0000
  C   C125      1.0  0.17843  0.58459  0.34140  1.0000
  C   C126      1.0  0.16297  0.56738  0.35463  1.0000
  C   C127      1.0  0.15182  0.55176  0.32697  1.0000
  H   H227      1.0  0.17476  0.57148  0.24095  1.0000
  H   H228      1.0  0.19464  0.59872  0.28941  1.0000
  H   H229      1.0  0.15945  0.56629  0.38615  1.0000
  H   H230      1.0  0.13978  0.53877  0.33770  1.0000
  C   C128      1.0  0.05661  0.97571  0.10581  1.0000
  H   H231      1.0  0.07218  0.95534  0.05743  1.0000
  C   C129      1.0  0.08030  0.53919  0.25957  1.0000
  C   C130      1.0  0.10100  0.95606  0.26003  1.0000
  H   H232      1.0  0.16380  0.98168  0.36156  1.0000
  H   H233      1.0  0.11832  0.95672  0.25694  1.0000
  C   C131      1.0  0.10801  0.95906  0.37381  1.0000
  H   H234      1.0  0.12257  0.97081  0.37214  1.0000
  H   H235      1.0  0.07111  0.55210  0.12237  1.0000
  H   H236      1.0  0.18301  0.70913  0.47027  1.0000
  N   N6        1.0  0.09473  0.96673  0.30037  1.0000
  S   S32       1.0  0.16034  0.87293  0.48404  1.0000
  C   C132      1.0  0.06967  0.56238  0.09328  1.0000
  H   H237      1.0  0.10224  0.55774  0.21870  1.0000
  C   C133      1.0  0.06207  0.95363  0.13484  1.0000
  C   C134      1.0  0.08552  0.55933  0.22745  1.0000
  N   N7        1.0  0.18589  0.69156  0.34945  1.0000
  C   C135      1.0  0.17803  0.68653  0.30758  1.0000
  C   C136      1.0  0.18749  0.72070  0.35600  1.0000
  C   C137      1.0  0.20786  0.68041  0.35238  1.0000
  C   C138      1.0  0.17246  0.67891  0.38099  1.0000
  C   C139      1.0  0.14856  0.67707  0.37243  1.0000
  C   C140      1.0  0.17897  0.65756  0.29372  1.0000
  C   C141      1.0  0.21973  0.68510  0.39232  1.0000
  C   C142      1.0  0.16692  0.73681  0.35360  1.0000
  C   C143      1.0  0.17147  0.76612  0.35374  1.0000
  C   C144      1.0  0.13670  0.66761  0.40918  1.0000
  C   C145      1.0  0.16524  0.65288  0.25694  1.0000
  H   H238      1.0  0.18726  0.69810  0.28568  1.0000
  H   H239      1.0  0.16168  0.69348  0.30372  1.0000
  H   H240      1.0  0.19379  0.72502  0.38623  1.0000
  H   H241      1.0  0.19887  0.72921  0.33449  1.0000
  H   H242      1.0  0.21778  0.68816  0.32781  1.0000
  H   H243      1.0  0.20758  0.65881  0.34848  1.0000
  H   H244      1.0  0.17775  0.65846  0.38666  1.0000
  H   H245      1.0  0.17461  0.68909  0.41000  1.0000
  H   H246      1.0  0.14543  0.66286  0.34814  1.0000
  H   H247      1.0  0.14167  0.69598  0.36321  1.0000
  H   H248      1.0  0.19531  0.65218  0.28566  1.0000
  H   H249      1.0  0.17383  0.64411  0.31763  1.0000
  H   H250      1.0  0.21047  0.67792  0.41801  1.0000
  H   H251      1.0  0.22321  0.70609  0.39697  1.0000
  H   H252      1.0  0.15779  0.73265  0.32618  1.0000
  H   H253      1.0  0.15718  0.73271  0.38023  1.0000
  H   H254      1.0  0.30110  0.59962  0.41816  1.0000
  H   H255      1.0  0.18007  0.77181  0.32636  1.0000
  H   H256      1.0  0.15653  0.77733  0.35473  1.0000
  H   H257      1.0  0.13919  0.68106  0.43481  1.0000
  H   H258      1.0  0.11966  0.66687  0.40248  1.0000
  H   H259      1.0  0.14200  0.64763  0.41763  1.0000
  H   H260      1.0  0.14850  0.65665  0.26399  1.0000
  H   H261      1.0  0.17011  0.66572  0.23194  1.0000
  H   H262      1.0  0.18097  0.77161  0.38029  1.0000
  H   H263      1.0  0.20235  0.52749  0.29415  1.0000
  H   H264      1.0  0.23869  0.64957  0.38774  1.0000
  H   H265      1.0  0.08512  0.53274  0.05961  1.0000
  H   H266      1.0  0.11695  0.93277  0.04556  1.0000
  H   H267      1.0  0.06820  0.55402  0.03071  1.0000
  H   H268      1.0  0.22240  0.79187  0.48743  1.0000
  H   H269      1.0  0.05495  0.51129  0.09100  1.0000
  C   C146      1.0  0.06128  0.98199  0.33794  1.0000
  H   H270      1.0  0.09880  0.91372  0.27410  1.0000
  H   H271      1.0  0.05506  0.57428  0.09289  1.0000
  C   C147      1.0  0.19170  0.72704  0.47354  1.0000
  H   H272      1.0  0.09126  0.93162  0.33606  1.0000
  H   H273      1.0  0.25116  0.67872  0.36883  1.0000
  H   H274      1.0  0.24867  0.67379  0.42191  1.0000
  H   H275      1.0  0.07774  0.94529  0.12791  1.0000
  C   C148      1.0  0.10263  0.94782  0.33194  1.0000
  C   C149      1.0  0.08310  0.51089  0.24358  1.0000
  C   C150      1.0  0.03775  0.98625  0.33191  1.0000
  H   H276      1.0  0.02088  0.98362  0.04239  1.0000
  C   C151      1.0  0.05700  0.96586  0.06208  1.0000
  C   C152      1.0  0.18252  0.75119  0.46287  1.0000
  S   S33       1.0  0.13009  0.98566  0.02299  1.0000
  C   C153      1.0  0.21443  0.56199  0.17799  1.0000
  H   H277      1.0  0.23894  0.54174  0.20862  1.0000
  H   H278      1.0  0.11752  0.93828  0.32200  1.0000
  H   H279      1.0  0.11742  0.94559  0.43275  1.0000
  H   H280      1.0  0.06324  0.96914  0.36437  1.0000
  H   H281      1.0  0.09550  0.97183  0.38568  1.0000
  H   H282      1.0  0.08325  0.57573  0.09009  1.0000
  H   H283      1.0  0.25064  0.50919  0.24378  1.0000
  H   H284      1.0  0.15948  0.98781  0.28821  1.0000
  Fe  Fe15      1.0  0.13456  0.99297  0.08978  1.0000
  C   C154      1.0  0.21603  0.51389  0.29209  1.0000
  H   H285      1.0  0.03721  0.53397  0.06978  1.0000
  H   H286      1.0  0.12053  0.91664  0.21375  1.0000
  H   H287      1.0  0.09885  0.51032  0.22949  1.0000
  H   H288      1.0  0.06382  0.54288  0.26838  1.0000
  H   H289      1.0  0.09069  0.54282  0.28564  1.0000
  H   H290      1.0  0.08278  0.57934  0.23923  1.0000
  C   C155      1.0  0.10320  0.91801  0.21132  1.0000
  H   H291      1.0  0.09461  0.96840  0.23542  1.0000
  C   C156      1.0  0.06967  0.54278  0.05889  1.0000
  C   C157      1.0  0.19326  0.77482  0.46878  1.0000
  H   H292      1.0  0.07550  0.55651  0.20061  1.0000
  S   S34       1.0  0.19078  0.58357  0.49408  1.0000
  C   C158      1.0  0.23564  0.52846  0.30805  1.0000
  C   C159      1.0  0.31475  0.59227  0.47698  1.0000
  H   H293      1.0  0.22431  0.57959  0.17421  1.0000
  H   H294      1.0  0.09273  0.50654  0.32852  1.0000
  H   H295      1.0  0.19309  0.52780  0.22742  1.0000
  C   C160      1.0  0.20915  0.52107  0.21968  1.0000
  C   C161      1.0  0.05168  0.52271  0.06331  1.0000
  H   H296      1.0  0.22060  0.55894  0.24049  1.0000
  H   H297      1.0  0.05019  0.93788  0.13310  1.0000
  C   C162      1.0  0.30634  0.99274  0.42814  1.0000
  N   N8        1.0  0.04851  0.50419  0.02871  1.0000
  H   H298      1.0  0.21538  0.55014  0.15022  1.0000
  N   N9        1.0  0.05401  0.98618  0.02982  1.0000
  C   C163      1.0  0.12119  0.57161  0.01046  1.0000
  C   C164      1.0  0.21002  0.95918  0.04215  1.0000
  H   H299      1.0  0.16684  0.75166  0.45065  1.0000
  H   H300      1.0  0.19627  0.95838  0.06236  1.0000
  H   H301      1.0  0.08673  0.99581  0.03705  1.0000
  C   C165      1.0  0.07115  0.96885  0.30089  1.0000
  H   H302      1.0  0.31732  0.62587  0.43721  1.0000
  H   H303      1.0  0.22307  0.96937  0.05762  1.0000
  H   H304      1.0  0.28894  0.96311  0.46057  1.0000
  C   C166      1.0  0.28627  0.97752  0.43623  1.0000
  H   H305      1.0  0.10143  0.89687  0.00517  1.0000
  H   H306      1.0  0.31872  0.97834  0.42063  1.0000
  C   C167      1.0  0.23080  0.54302  0.34682  1.0000
  H   H307      1.0  0.22489  0.52938  0.36994  1.0000
  S   S35       1.0  0.16575  0.99296  0.12198  1.0000
  H   H308      1.0  0.03093  0.99518  0.35918  1.0000
  H   H309      1.0  0.30636  0.52371  0.05237  1.0000
  H   H310      1.0  0.21509  0.93885  0.03555  1.0000
  H   H311      1.0  0.05766  0.51030  0.30799  1.0000
  H   H312      1.0  0.20722  0.51121  0.19027  1.0000
  C   C168      1.0  0.10512  0.99298  0.30538  1.0000
  C   C169      1.0  0.30572  0.61069  0.44531  1.0000
  H   H313      1.0  0.07154  0.50824  0.21896  1.0000
  H   H314      1.0  0.13263  0.74704  0.48190  1.0000
  H   H315      1.0  0.11215  0.50131  0.29203  1.0000
  H   H316      1.0  0.08150  0.50273  0.01313  1.0000
  H   H317      1.0  0.04067  0.98267  0.11363  1.0000
  H   H318      1.0  0.06806  0.99156  0.11108  1.0000
  C   C170      1.0  0.21209  0.72614  0.48885  1.0000
  N   N10       1.0  0.21725  0.50205  0.25062  1.0000
  H   H319      1.0  0.32382  0.52922  0.46221  1.0000
  H   H320      1.0  0.27330  0.99093  0.44479  1.0000
  H   H321      1.0  0.28150  0.96665  0.40899  1.0000
  H   H322      1.0  0.00610  0.51243  0.05434  1.0000
  C   C171      1.0  0.32932  0.53529  0.49238  1.0000
  H   H323      1.0  0.33046  0.56874  0.43273  1.0000
  C   C172      1.0  0.30380  0.50541  0.03527  1.0000
  H   H324      1.0  0.21305  0.49843  0.31482  1.0000
  C   C173      1.0  0.20426  0.97320  0.00327  1.0000
  C   C174      1.0  0.22313  0.74969  0.49345  1.0000
  H   H325      1.0  0.28686  0.50054  0.03636  1.0000
  H   H326      1.0  0.30231  0.57815  0.48483  1.0000
  H   H327      1.0  0.12034  0.85133  0.53471  1.0000
  S   S36       1.0  0.14562  0.61313  0.56112  1.0000
  S   S37       1.0  0.20787  0.62974  0.55520  1.0000
  Fe  Fe16      1.0  0.04161  0.62381  0.78765  1.0000
  S   S38       1.0  0.04289  0.63355  0.85292  1.0000
  Fe  Fe17      1.0  0.08874  0.63444  0.77533  1.0000
  S   S39       1.0  0.09290  0.64453  0.84042  1.0000
  S   S40       1.0  0.11985  0.63814  0.74185  1.0000
  Fe  Fe18      1.0  0.07281  0.60995  0.85415  1.0000
  S   S41       1.0  0.07891  0.57662  0.89855  1.0000
  Fe  Fe19      1.0  0.06295  0.66756  0.83380  1.0000
  S   S42       1.0  0.06169  0.70771  0.86345  1.0000
  S   S43       1.0  0.07038  0.59815  0.78932  1.0000
  S   S44       1.0  0.05984  0.65959  0.76821  1.0000
  Fe  Fe20      1.0  0.04686  0.85758  0.80873  1.0000
  S   S45       1.0  0.03649  0.89090  0.76925  1.0000
  S   S46       1.0  0.03410  0.81771  0.78998  1.0000
  Fe  Fe21      1.0  0.07224  0.89449  0.86295  1.0000
  S   S47       1.0  0.06397  0.93007  0.82660  1.0000
  S   S48       1.0  0.08969  0.89254  0.92262  1.0000
  Fe  Fe22      1.0  0.03104  0.91406  0.82541  1.0000
  Fe  Fe23      1.0  0.07021  0.90398  0.77290  1.0000
  S   S49       1.0  0.08553  0.91794  0.71475  1.0000
  S   S50       1.0  0.03917  0.87964  0.86459  1.0000
  S   S51       1.0  0.08077  0.86950  0.80954  1.0000
  S   S52       1.0  0.16235  0.87758  0.60769  1.0000
  S   S53       1.0  0.20157  0.85628  0.53623  1.0000
  H   H328      1.0  0.00462  0.98809  0.92667  1.0000
  C   C175      1.0  0.26881  0.92126  0.54287  1.0000
  C   C176      1.0  0.28729  0.91676  0.56507  1.0000
  C   C177      1.0  0.30048  0.93758  0.57661  1.0000
  C   C178      1.0  0.29528  0.96330  0.56624  1.0000
  C   C179      1.0  0.27680  0.96781  0.54404  1.0000
  C   C180      1.0  0.26378  0.94696  0.53209  1.0000
  H   H329      1.0  0.31464  0.93371  0.59352  1.0000
  H   H330      1.0  0.16203  0.63069  0.87222  1.0000
  S   S54       1.0  0.22436  0.69618  0.50254  1.0000
  C   C181      1.0  0.10668  0.90576  0.68519  1.0000
  C   C182      1.0  0.12043  0.88622  0.69873  1.0000
  C   C183      1.0  0.13726  0.87782  0.67450  1.0000
  C   C184      1.0  0.14055  0.88870  0.63638  1.0000
  C   C185      1.0  0.12674  0.90807  0.62274  1.0000
  C   C186      1.0  0.11001  0.91659  0.64707  1.0000
  H   H331      1.0  0.11831  0.87799  0.72814  1.0000
  H   H332      1.0  0.14793  0.86299  0.68552  1.0000
  H   H333      1.0  0.12902  0.91668  0.59360  1.0000
  H   H334      1.0  0.09956  0.93177  0.63630  1.0000
  C   C187      1.0  0.09956  0.91926  0.95074  1.0000
  C   C188      1.0  0.10342  0.94359  0.93331  1.0000
  C   C189      1.0  0.11245  0.96379  0.95616  1.0000
  H   H335      1.0  0.14419  0.82694  0.78588  1.0000
  S   S55       1.0  0.25300  0.89406  0.52871  1.0000
  H   H336      1.0  0.18561  0.91904  0.74262  1.0000
  H   H337      1.0  0.09988  0.94664  0.90203  1.0000
  H   H338      1.0  0.23770  0.85301  0.64556  1.0000
  H   H339      1.0  0.00939  0.56576  0.95177  1.0000
  C   C190      1.0  0.05447  0.73806  0.84167  1.0000
  C   C191      1.0  0.05783  0.76114  0.86349  1.0000
  C   C192      1.0  0.05201  0.78568  0.84779  1.0000
  C   C193      1.0  0.04256  0.78738  0.81016  1.0000
  C   C194      1.0  0.03917  0.76430  0.78827  1.0000
  C   C195      1.0  0.04525  0.73977  0.80378  1.0000
  H   H340      1.0  0.06487  0.75999  0.89291  1.0000
  H   H341      1.0  0.05451  0.80325  0.86512  1.0000
  H   H342      1.0  0.03177  0.76542  0.75919  1.0000
  H   H343      1.0  0.04258  0.72217  0.78672  1.0000
  C   C196      1.0  0.13874  0.62081  0.61131  1.0000
  C   C197      1.0  0.11816  0.61593  0.62429  1.0000
  C   C198      1.0  0.11198  0.62144  0.66387  1.0000
  C   C199      1.0  0.12636  0.63191  0.69105  1.0000
  C   C200      1.0  0.14690  0.63697  0.67804  1.0000
  C   C201      1.0  0.15307  0.63146  0.63846  1.0000
  H   H344      1.0  0.10693  0.60770  0.60359  1.0000
  H   H345      1.0  0.09616  0.61735  0.67336  1.0000
  H   H346      1.0  0.15818  0.64499  0.69880  1.0000
  H   H347      1.0  0.16894  0.63532  0.62900  1.0000
  H   H348      1.0  0.05359  0.98631  0.96503  1.0000
  C   C202      1.0  0.11764  0.59583  0.99161  1.0000
  C   C203      1.0  0.09940  0.55110  0.95960  1.0000
  C   C204      1.0  0.09554  0.57540  0.94121  1.0000
  C   C205      1.0  0.10485  0.59776  0.95724  1.0000
  H   H349      1.0  0.03103  0.92355  0.93446  1.0000
  H   H350      1.0  0.29931  0.54447  0.90885  1.0000
  H   H351      1.0  0.09254  0.53364  0.94707  1.0000
  H   H352      1.0  0.10208  0.61657  0.94337  1.0000
  H   H353      1.0  0.15610  0.54893  0.69684  1.0000
  C   C206      1.0  0.30743  0.56418  0.60749  1.0000
  C   C207      1.0  0.29528  0.58717  0.60545  1.0000
  C   C208      1.0  0.27659  0.58816  0.58271  1.0000
  C   C209      1.0  0.26976  0.56603  0.56200  1.0000
  C   C210      1.0  0.30072  0.54216  0.58646  1.0000
  H   H354      1.0  0.30036  0.60439  0.62146  1.0000
  H   H355      1.0  0.26740  0.60598  0.58144  1.0000
  H   H356      1.0  0.11567  0.98239  0.94223  1.0000
  H   H357      1.0  0.07494  0.81830  0.76168  1.0000
  H   H358      1.0  0.23899  0.74922  0.50499  1.0000
  Fe  Fe24      1.0  0.22208  0.59767  0.51746  1.0000
  H   H359      1.0  0.30302  0.53552  0.83726  1.0000
  H   H360      1.0  0.10768  0.82488  0.80766  1.0000
  H   H361      1.0  0.25067  0.94961  0.61877  1.0000
  C   C211      1.0  0.25303  0.94930  0.68360  1.0000
  C   C212      1.0  0.31842  0.50888  0.90618  1.0000
  C   C213      1.0  0.05627  0.97239  0.99009  1.0000
  H   H362      1.0  0.15887  0.58308  0.88469  1.0000
  H   H363      1.0  0.10453  0.75806  0.73301  1.0000
  H   H364      1.0  0.14720  0.71897  0.50059  1.0000
  S   S56       1.0  0.31116  0.99055  0.57960  1.0000
  H   H365      1.0  0.02506  0.95366  0.99121  1.0000
  C   C214      1.0  0.15136  0.52960  0.86398  1.0000
  H   H366      1.0  0.23658  0.52662  0.63449  1.0000
  H   H367      1.0  0.08091  0.50436  0.81800  1.0000
  C   C215      1.0  0.12005  0.79575  0.84680  1.0000
  H   H368      1.0  0.29152  0.89696  0.57326  1.0000
  H   H369      1.0  0.00684  0.68825  0.69091  1.0000
  H   H370      1.0  0.20139  0.97842  0.62876  1.0000
  C   C216      1.0  0.11012  0.80655  0.88489  1.0000
  H   H371      1.0  0.15304  0.96245  0.92428  1.0000
  C   C217      1.0  0.15943  0.97570  0.90113  1.0000
  C   C218      1.0  0.27570  0.95854  0.68015  1.0000
  H   H372      1.0  0.02082  0.66612  0.72313  1.0000
  C   C219      1.0  0.24017  0.54379  0.65358  1.0000
  H   H373      1.0  0.12180  0.77439  0.85039  1.0000
  H   H374      1.0  0.18454  0.52783  0.87964  1.0000
  H   H375      1.0  0.21830  0.97284  0.98393  1.0000
  H   H376      1.0  0.08456  0.76761  0.76691  1.0000
  H   H377      1.0  0.07410  0.79564  0.72051  1.0000
  C   C220      1.0  0.17121  0.51431  0.87486  1.0000
  C   C221      1.0  0.13612  0.78697  0.76599  1.0000
  H   H378      1.0  0.16863  0.50329  0.90298  1.0000
  N   N11       1.0  0.13713  0.56432  0.81297  1.0000
  C   C222      1.0  0.11582  0.55672  0.82830  1.0000
  C   C223      1.0  0.14237  0.59124  0.82851  1.0000
  C   C224      1.0  0.13564  0.56620  0.76796  1.0000
  H   H379      1.0  0.15548  0.52939  0.80051  1.0000
  C   C225      1.0  0.22909  0.86776  0.62742  1.0000
  C   C226      1.0  0.10591  0.53225  0.80853  1.0000
  C   C227      1.0  0.15532  0.57675  0.74626  1.0000
  C   C228      1.0  0.14479  0.59397  0.87431  1.0000
  C   C229      1.0  0.14786  0.62247  0.88654  1.0000
  H   H380      1.0  0.25338  0.92832  0.69131  1.0000
  C   C230      1.0  0.08737  0.52208  0.83257  1.0000
  C   C231      1.0  0.15471  0.57033  0.70167  1.0000
  H   H381      1.0  0.10458  0.57312  0.82403  1.0000
  H   H382      1.0  0.11602  0.55366  0.86103  1.0000
  H   H383      1.0  0.11263  0.82884  0.74079  1.0000
  H   H384      1.0  0.13026  0.60560  0.81822  1.0000
  H   H385      1.0  0.12213  0.57894  0.75901  1.0000
  H   H386      1.0  0.13239  0.54666  0.75485  1.0000
  Fe  Fe25      1.0  0.21891  0.88932  0.50694  1.0000
  H   H387      1.0  0.07255  0.96496  0.98653  1.0000
  H   H388      1.0  0.09011  0.79900  0.81630  1.0000
  C   C232      1.0  0.21660  0.96886  0.57322  1.0000
  H   H389      1.0  0.09988  0.53733  0.77830  1.0000
  H   H390      1.0  0.11756  0.51624  0.80531  1.0000
  C   C233      1.0  0.10182  0.76517  0.76401  1.0000
  H   H391      1.0  0.15598  0.59836  0.74916  1.0000
  H   H392      1.0  0.13082  0.58675  0.89019  1.0000
  N   N12       1.0  0.11279  0.79099  0.77006  1.0000
  H   H393      1.0  0.14980  0.62368  0.91948  1.0000
  H   H394      1.0  0.14254  0.77514  0.79096  1.0000
  H   H395      1.0  0.13399  0.63441  0.87800  1.0000
  H   H396      1.0  0.12454  0.74032  0.79779  1.0000
  H   H397      1.0  0.02528  0.68189  0.93539  1.0000
  H   H398      1.0  0.08369  0.83230  0.67398  1.0000
  H   H399      1.0  0.13599  0.80418  0.84464  1.0000
  H   H400      1.0  0.09230  0.51694  0.86346  1.0000
  H   H401      1.0  0.13957  0.77534  0.73868  1.0000
  H   H402      1.0  0.99793  0.95837  0.76822  1.0000
  H   H403      1.0  0.10765  0.71042  0.75054  1.0000
  H   H404      1.0  0.16792  0.58008  0.68630  1.0000
  H   H405      1.0  0.17833  0.79235  0.74729  1.0000
  C   C234      1.0  0.02340  0.55279  0.95147  1.0000
  C   C235      1.0  0.13363  0.73215  0.50598  1.0000
  H   H406      1.0  0.05724  0.93561  0.92858  1.0000
  C   C236      1.0  0.18597  0.92893  0.67924  1.0000
  C   C237      1.0  0.29690  0.53163  0.72708  1.0000
  H   H407      1.0  0.23510  0.86672  0.59644  1.0000
  N   N13       1.0  0.15830  0.77851  0.58653  1.0000
  C   C238      1.0  0.14116  0.79889  0.58943  1.0000
  C   C239      1.0  0.15897  0.76196  0.62398  1.0000
  C   C240      1.0  0.17891  0.79285  0.58320  1.0000
  C   C241      1.0  0.15591  0.76160  0.54989  1.0000
  C   C242      1.0  0.13561  0.74534  0.54675  1.0000
  S   S57       1.0  0.00170  0.93548  0.84839  1.0000
  C   C243      1.0  0.19914  0.77600  0.58809  1.0000
  C   C244      1.0  0.13777  0.75552  0.64433  1.0000
  C   C245      1.0  0.14021  0.73290  0.67386  1.0000
  H   H408      1.0  0.22795  0.54594  0.67686  1.0000
  H   H409      1.0  0.23928  0.97678  0.64390  1.0000
  C   C246      1.0  0.21874  0.79296  0.58608  1.0000
  H   H410      1.0  0.14340  0.81070  0.61712  1.0000
  H   H411      1.0  0.12553  0.78984  0.59249  1.0000
  H   H412      1.0  0.16740  0.74322  0.61789  1.0000
  H   H413      1.0  0.16824  0.77195  0.64775  1.0000
  H   H414      1.0  0.17970  0.80888  0.60574  1.0000
  H   H415      1.0  0.18018  0.80252  0.55349  1.0000
  H   H416      1.0  0.32859  0.51459  0.72402  1.0000
  H   H417      1.0  0.16900  0.74723  0.54806  1.0000
  C   C247      1.0  0.13945  0.81846  0.55411  1.0000
  H   H418      1.0  0.13595  0.72946  0.56931  1.0000
  H   H419      1.0  0.12020  0.80178  0.91103  1.0000
  C   C248      1.0  0.17591  0.92993  0.72053  1.0000
  H   H420      1.0  0.20025  0.76111  0.56419  1.0000
  H   H421      1.0  0.19969  0.76572  0.61720  1.0000
  H   H422      1.0  0.13211  0.77294  0.66100  1.0000
  H   H423      1.0  0.12532  0.75015  0.62289  1.0000
  H   H424      1.0  0.12501  0.72907  0.68865  1.0000
  H   H425      1.0  0.14500  0.71475  0.65799  1.0000
  H   H426      1.0  0.15211  0.73750  0.69706  1.0000
  N   N14       1.0  0.28495  0.50808  0.71217  1.0000
  C   C249      1.0  0.15403  0.54471  0.82400  1.0000
  C   C250      1.0  0.04123  0.94087  0.93863  1.0000
  H   H427      1.0  0.04044  0.50418  0.96590  1.0000
  H   H428      1.0  0.10576  0.82555  0.55827  1.0000
  S   S58       1.0  0.01202  0.61049  0.75484  1.0000
  H   H429      1.0  0.23294  0.78042  0.58853  1.0000
  H   H430      1.0  0.21941  0.80359  0.55727  1.0000
  H   H431      1.0  0.21891  0.80737  0.61088  1.0000
  C   C251      1.0  0.22071  0.91622  0.62073  1.0000
  C   C252      1.0  0.23262  0.89497  0.64483  1.0000
  H   H432      1.0  0.15363  0.83084  0.55243  1.0000
  C   C253      1.0  0.10747  0.74272  0.79330  1.0000
  H   H433      1.0  0.29935  0.54584  0.70232  1.0000
  H   H434      1.0  0.11915  0.72022  0.50504  1.0000
  H   H435      1.0  0.01163  0.69024  0.80054  1.0000
  H   H436      1.0  0.20487  0.90874  0.61284  1.0000
  H   H437      1.0  0.22754  0.89423  0.67634  1.0000
  H   H438      1.0  0.10198  0.70120  0.80116  1.0000
  H   H439      1.0  0.18710  0.90806  0.67049  1.0000
  H   H440      1.0  0.22103  0.95168  0.55517  1.0000
  H   H441      1.0  0.09993  0.74644  0.82259  1.0000
  H   H442      1.0  0.14761  0.54262  0.88934  1.0000
  H   H443      1.0  0.10835  0.82816  0.88312  1.0000
  H   H444      1.0  0.08268  0.85465  0.71589  1.0000
  H   H445      1.0  0.19038  0.97342  0.92553  1.0000
  C   C254      1.0  0.01165  0.68461  0.72233  1.0000
  H   H446      1.0  0.11161  0.80184  0.70734  1.0000
  H   H447      1.0  0.16958  0.55448  0.82478  1.0000
  C   C255      1.0  0.31087  0.50905  0.99208  1.0000
  H   H448      1.0  0.19146  0.96189  0.98904  1.0000
  H   H449      1.0  0.32698  0.50688  0.87733  1.0000
  Fe  Fe26      1.0  0.17695  0.61754  0.52861  1.0000
  H   H450      1.0  0.15744  0.59818  0.81603  1.0000
  H   H451      1.0  0.30992  0.52444  0.58773  1.0000
  Fe  Fe27      1.0  0.17442  0.88400  0.54360  1.0000
  H   H452      1.0  0.27583  0.53477  0.85133  1.0000
  H   H453      1.0  0.00991  0.52603  0.99293  1.0000
  C   C256      1.0  0.02465  0.53727  0.99047  1.0000
  H   H454      1.0  0.26533  0.55929  0.68891  1.0000
  H   H455      1.0  0.21729  0.93084  0.70230  1.0000
  H   H456      1.0  0.12143  0.75760  0.55084  1.0000
  H   H457      1.0  0.28765  0.54225  0.75017  1.0000
  C   C257      1.0  0.14929  0.81234  0.76336  1.0000
  H   H458      1.0  0.20943  0.99097  0.51956  1.0000
  C   C258      1.0  0.20800  0.94171  0.67969  1.0000
  H   H459      1.0  0.17511  0.93901  0.65832  1.0000
  C   C259      1.0  0.26186  0.54088  0.67259  1.0000
  C   C260      1.0  0.28192  0.54304  0.56414  1.0000
  H   H460      1.0  0.21216  0.86281  0.62756  1.0000
  H   H461      1.0  0.05946  0.83775  0.70044  1.0000
  H   H462      1.0  0.03508  0.95688  0.91946  1.0000
  H   H463      1.0  0.23092  0.98054  0.57866  1.0000
  C   C261      1.0  0.33030  0.55167  0.75448  1.0000
  H   H464      1.0  0.32096  0.56392  0.77528  1.0000
  C   C262      1.0  0.00542  0.68569  0.88296  1.0000
  H   H465      1.0  0.32851  0.52213  0.92388  1.0000
  H   H466      1.0  0.22890  0.91756  0.59167  1.0000
  H   H467      1.0  0.01480  0.65136  0.91783  1.0000
  H   H468      1.0  0.16017  0.92079  0.71917  1.0000
  H   H469      1.0  0.13743  0.80823  0.52518  1.0000
  H   H470      1.0  0.18162  0.82509  0.76613  1.0000
  H   H471      1.0  0.13841  0.51530  0.86145  1.0000
  H   H472      1.0  0.19129  0.95031  0.60403  1.0000
  C   C263      1.0  0.29116  0.52462  0.85469  1.0000
  C   C264      1.0  0.10579  0.80905  0.73667  1.0000
  H   H473      1.0  0.15737  0.77357  0.52239  1.0000
  C   C265      1.0  0.10679  0.80322  0.80950  1.0000
  H   H474      1.0  0.17552  0.79899  0.80018  1.0000
  N   N15       1.0  0.21911  0.94283  0.63998  1.0000
  H   H475      1.0  0.24971  0.89880  0.64357  1.0000
  H   H476      1.0  0.01948  0.68529  0.86377  1.0000
  H   H477      1.0  0.00455  0.72801  0.83525  1.0000
  C   C266      1.0  0.09931  0.71647  0.77808  1.0000
  H   H478      1.0  0.02209  0.53943  0.92543  1.0000
  H   H479      1.0  0.13984  0.57738  0.68795  1.0000
  S   S59       1.0  0.24612  0.56564  0.53362  1.0000
  C   C267      1.0  0.08183  0.81341  0.73242  1.0000
  C   C268      1.0  0.17261  0.80673  0.76964  1.0000
  H   H480      1.0  0.02161  0.70105  0.73245  1.0000
  C   C269      1.0  0.20610  0.96021  0.61280  1.0000
  H   H481      1.0  0.14748  0.82127  0.73328  1.0000
  H   H482      1.0  0.16997  0.56835  0.75885  1.0000
  H   H483      1.0  0.08226  0.71752  0.77175  1.0000
  C   C270      1.0  0.07673  0.83587  0.70383  1.0000
  H   H484      1.0  0.05755  0.52949  0.97993  1.0000
  C   C271      1.0  0.24057  0.95504  0.64462  1.0000
  H   H485      1.0  0.25446  0.52306  0.72910  1.0000
  H   H486      1.0  0.28405  0.94733  0.65663  1.0000
  C   C272      1.0  0.29744  0.52388  0.89884  1.0000
  H   H487      1.0  0.27268  0.98756  0.53549  1.0000
  H   H488      1.0  0.12165  0.84742  0.58803  1.0000
  S   S60       1.0  0.19245  0.91759  0.51712  1.0000
  C   C273      1.0  0.17920  0.98901  0.91676  1.0000
  H   H489      1.0  0.17395  0.95049  0.73055  1.0000
  C   C274      1.0  0.04141  0.94893  0.98261  1.0000
  H   H490      1.0  0.03754  0.56516  0.94785  1.0000
  H   H491      1.0  0.28405  0.95541  0.70894  1.0000
  C   C275      1.0  0.12062  0.83673  0.55925  1.0000
  H   H492      1.0  0.27671  0.52577  0.54841  1.0000
  C   C276      1.0  0.04364  0.51839  0.99024  1.0000
  C   C277      1.0  0.99794  0.67789  0.79311  1.0000
  H   H493      1.0  0.23979  0.56148  0.63429  1.0000
  H   H494      1.0  0.28433  0.51586  0.91662  1.0000
  H   H495      1.0  0.30512  0.51171  0.66031  1.0000
  H   H496      1.0  0.07476  0.53711  0.83386  1.0000
  C   C278      1.0  0.01118  0.67239  0.92244  1.0000
  H   H497      1.0  0.09448  0.79773  0.88975  1.0000
  H   H498      1.0  0.27345  0.53882  0.64844  1.0000
  C   C279      1.0  0.31893  0.52616  0.74509  1.0000
  H   H499      1.0  0.00406  0.65756  0.79589  1.0000
  Fe  Fe28      1.0  0.21037  0.65512  0.50006  1.0000
  H   H500      1.0  0.18709  0.97507  0.54110  1.0000
  H   H501      1.0  0.25013  0.95072  0.51371  1.0000
  H   H502      1.0  0.28972  0.50461  0.84234  1.0000
  H   H503      1.0  0.31782  0.51528  0.77363  1.0000
  H   H504      1.0  0.32754  0.51475  0.99256  1.0000
  H   H505      1.0  0.24575  0.96000  0.70893  1.0000
  C   C280      1.0  0.26307  0.51725  0.70158  1.0000
  H   H506      1.0  0.31825  0.60424  0.50380  1.0000
  H   H507      1.0  0.31486  0.54125  0.50827  1.0000
  H   H508      1.0  0.30174  0.52565  0.97951  1.0000
  H   H509      1.0  0.00132  0.70619  0.89035  1.0000
  C   C281      1.0  0.20174  0.98578  0.54815  1.0000
  H   H510      1.0  0.20638  0.96183  0.69212  1.0000
  H   H511      1.0  0.00333  0.92231  0.71873  1.0000
  H   H512      1.0  0.16324  0.96380  0.87438  1.0000
  H   H513      1.0  0.27630  0.97968  0.67269  1.0000
  H   H514      1.0  0.00251  0.99442  0.87366  1.0000
  C   C282      1.0  0.10430  0.91565  0.99147  1.0000
  H   H515      1.0  0.14732  0.99040  0.89270  1.0000
  H   H516      1.0  0.01025  0.90038  0.67888  1.0000
  H   H517      1.0  0.99812  0.67421  0.94408  1.0000
  H   H518      1.0  0.27722  0.49863  0.77308  1.0000
  H   H519      1.0  0.25362  0.50129  0.68850  1.0000
  H   H520      1.0  0.17521  0.50014  0.85090  1.0000
  C   C283      1.0  0.11753  0.96001  0.99669  1.0000
  C   C284      1.0  0.11215  0.54919  0.99401  1.0000
  S   S61       1.0  0.33094  0.56397  0.63621  1.0000
  H   H521      1.0  0.99771  0.60524  0.83773  1.0000
  S   S62       1.0  0.38184  0.38670  0.08711  1.0000
  Fe  Fe29      1.0  0.46590  0.35207  0.32270  1.0000
  S   S63       1.0  0.46254  0.38011  0.27127  1.0000
  S   S64       1.0  0.47690  0.31075  0.30859  1.0000
  Fe  Fe30      1.0  0.45428  0.39384  0.38438  1.0000
  S   S65       1.0  0.44973  0.42469  0.33747  1.0000
  S   S66       1.0  0.45262  0.40036  0.45175  1.0000
  Fe  Fe31      1.0  0.43327  0.39337  0.30202  1.0000
  S   S67       1.0  0.40153  0.40032  0.27253  1.0000
  Fe  Fe32      1.0  0.47959  0.40907  0.31036  1.0000
  S   S68       1.0  0.50211  0.43875  0.28292  1.0000
  S   S69       1.0  0.43551  0.36350  0.35120  1.0000
  S   S70       1.0  0.48527  0.37997  0.35952  1.0000
  Fe  Fe33      1.0  0.62200  0.48912  0.30587  1.0000
  H   H522      1.0  0.40618  0.45643  0.24238  1.0000
  C   C285      1.0  0.56761  0.01923  0.39884  1.0000
  S   S71       1.0  0.60000  0.45481  0.31809  1.0000
  Fe  Fe34      1.0  0.47899  0.12120  0.32913  1.0000
  S   S72       1.0  0.45921  0.13415  0.38143  1.0000
  S   S73       1.0  0.51407  0.11585  0.34286  1.0000
  Fe  Fe35      1.0  0.44062  0.12077  0.27256  1.0000
  S   S74       1.0  0.41842  0.13288  0.32100  1.0000
  S   S75       1.0  0.43140  0.11124  0.20808  1.0000
  Fe  Fe36      1.0  0.44357  0.16194  0.33797  1.0000
  S   S76       1.0  0.43282  0.20338  0.35456  1.0000
  Fe  Fe37      1.0  0.43589  0.10434  0.36046  1.0000
  S   S77       1.0  0.42137  0.07141  0.39728  1.0000
  S   S78       1.0  0.46493  0.15134  0.28721  1.0000
  S   S79       1.0  0.45651  0.08993  0.31050  1.0000
  Fe  Fe38      1.0  0.61478  0.02255  0.30222  1.0000
  S   S80       1.0  0.58114  0.03146  0.28221  1.0000
  S   S81       1.0  0.64373  0.03888  0.27401  1.0000
  S   S82       1.0  0.62865  0.02304  0.36418  1.0000
  H   H523      1.0  0.60946  0.04054  0.21491  1.0000
  C   C286      1.0  0.40681  0.11709  0.18452  1.0000
  C   C287      1.0  0.40335  0.10733  0.14575  1.0000
  C   C288      1.0  0.38434  0.11223  0.12533  1.0000
  C   C289      1.0  0.36854  0.12691  0.14361  1.0000
  C   C290      1.0  0.37197  0.13668  0.18234  1.0000
  C   C291      1.0  0.39097  0.13179  0.20275  1.0000
  H   H524      1.0  0.41552  0.09601  0.13135  1.0000
  H   H525      1.0  0.38195  0.10461  0.09554  1.0000
  H   H526      1.0  0.35986  0.14809  0.19675  1.0000
  H   H527      1.0  0.39345  0.13948  0.23248  1.0000
  C   C292      1.0  0.51010  0.01813  0.36414  1.0000
  H   H528      1.0  0.51406  0.01870  0.33186  1.0000
  C   C293      1.0  0.40661  0.04947  0.46625  1.0000
  C   C294      1.0  0.41271  0.07277  0.44743  1.0000
  C   C295      1.0  0.41174  0.09618  0.46886  1.0000
  C   C296      1.0  0.49594  0.45050  0.48854  1.0000
  Fe  Fe39      1.0  0.35128  0.38661  0.05091  1.0000
  H   H529      1.0  0.40740  0.03126  0.44992  1.0000
  H   H530      1.0  0.41638  0.11424  0.45471  1.0000
  C   C297      1.0  0.53248  0.09245  0.32488  1.0000
  C   C298      1.0  0.52707  0.07316  0.29714  1.0000
  C   C299      1.0  0.54222  0.05487  0.28418  1.0000
  C   C300      1.0  0.56292  0.05555  0.29882  1.0000
  C   C301      1.0  0.56837  0.07488  0.32643  1.0000
  C   C302      1.0  0.55322  0.09314  0.33941  1.0000
  H   H531      1.0  0.51121  0.07238  0.28566  1.0000
  H   H532      1.0  0.53781  0.04006  0.26274  1.0000
  H   H533      1.0  0.58425  0.07582  0.33773  1.0000
  H   H534      1.0  0.55760  0.10802  0.36077  1.0000
  C   C303      1.0  0.46378  0.28121  0.31984  1.0000
  C   C304      1.0  0.44465  0.28094  0.34000  1.0000
  C   C305      1.0  0.43523  0.25694  0.34988  1.0000
  C   C306      1.0  0.44488  0.23301  0.33993  1.0000
  C   C307      1.0  0.46394  0.23334  0.31954  1.0000
  C   C308      1.0  0.47330  0.25733  0.30954  1.0000
  H   H535      1.0  0.43722  0.29916  0.34833  1.0000
  H   H536      1.0  0.42051  0.25684  0.36575  1.0000
  H   H537      1.0  0.47156  0.21509  0.31180  1.0000
  H   H538      1.0  0.48817  0.25733  0.29415  1.0000
  C   C309      1.0  0.52920  0.44327  0.29396  1.0000
  C   C310      1.0  0.53985  0.46443  0.27657  1.0000
  C   C311      1.0  0.56139  0.46857  0.28408  1.0000
  C   C312      1.0  0.57262  0.45137  0.30876  1.0000
  C   C313      1.0  0.56192  0.43038  0.32640  1.0000
  C   C314      1.0  0.54034  0.42640  0.31927  1.0000
  H   H539      1.0  0.53141  0.47762  0.25697  1.0000
  H   H540      1.0  0.37065  0.03759  0.41865  1.0000
  H   H541      1.0  0.57042  0.41693  0.34551  1.0000
  H   H542      1.0  0.53243  0.41005  0.33288  1.0000
  C   C315      1.0  0.38644  0.38970  0.13908  1.0000
  C   C316      1.0  0.40650  0.38353  0.15403  1.0000
  C   C317      1.0  0.41130  0.38657  0.19483  1.0000
  C   C318      1.0  0.39607  0.39590  0.22111  1.0000
  C   C319      1.0  0.37593  0.40175  0.20632  1.0000
  C   C320      1.0  0.37109  0.39861  0.16548  1.0000
  H   H543      1.0  0.41832  0.37616  0.13385  1.0000
  H   H544      1.0  0.42671  0.38160  0.20602  1.0000
  H   H545      1.0  0.36401  0.40884  0.22653  1.0000
  H   H546      1.0  0.35559  0.40337  0.15436  1.0000
  H   H547      1.0  0.49631  0.46183  0.38268  1.0000
  H   H548      1.0  0.48449  0.40255  0.13287  1.0000
  C   C321      1.0  0.52231  0.30055  0.37358  1.0000
  C   C322      1.0  0.43387  0.42117  0.47480  1.0000
  C   C323      1.0  0.41915  0.43531  0.45241  1.0000
  H   H549      1.0  0.38058  0.24083  0.11615  1.0000
  C   C324      1.0  0.48991  0.30066  0.41724  1.0000
  H   H550      1.0  0.37536  0.29057  0.10534  1.0000
  H   H551      1.0  0.41896  0.43356  0.42022  1.0000
  H   H552      1.0  0.39294  0.46207  0.45407  1.0000
  N   N16       1.0  0.40156  0.30280  0.23542  1.0000
  C   C325      1.0  0.41864  0.31220  0.20809  1.0000
  C   C326      1.0  0.38129  0.30179  0.21212  1.0000
  C   C327      1.0  0.39999  0.32139  0.27036  1.0000
  C   C328      1.0  0.40642  0.27585  0.25144  1.0000
  C   C329      1.0  0.41104  0.25434  0.21994  1.0000
  C   C330      1.0  0.44112  0.31177  0.22588  1.0000
  C   C331      1.0  0.38032  0.31850  0.29701  1.0000
  C   C332      1.0  0.37345  0.32828  0.19486  1.0000
  C   C333      1.0  0.41752  0.22875  0.24020  1.0000
  C   C334      1.0  0.45698  0.32250  0.19616  1.0000
  C   C335      1.0  0.38166  0.33619  0.33367  1.0000
  H   H553      1.0  0.41553  0.33275  0.19908  1.0000
  H   H554      1.0  0.41865  0.30104  0.17959  1.0000
  H   H555      1.0  0.38291  0.28857  0.18598  1.0000
  H   H556      1.0  0.36865  0.29304  0.23052  1.0000
  H   H557      1.0  0.40065  0.34208  0.26019  1.0000
  H   H558      1.0  0.41385  0.31904  0.29039  1.0000
  H   H559      1.0  0.41992  0.27650  0.27247  1.0000
  H   H560      1.0  0.39316  0.26853  0.26963  1.0000
  H   H561      1.0  0.42400  0.25998  0.19985  1.0000
  H   H562      1.0  0.39691  0.25031  0.20160  1.0000
  H   H563      1.0  0.44198  0.32412  0.25302  1.0000
  H   H564      1.0  0.44614  0.29164  0.23384  1.0000
  H   H565      1.0  0.37855  0.29816  0.30778  1.0000
  H   H566      1.0  0.36592  0.32410  0.28031  1.0000
  H   H567      1.0  0.37329  0.34391  0.21772  1.0000
  H   H568      1.0  0.38372  0.33456  0.17004  1.0000
  H   H569      1.0  0.43248  0.23129  0.25675  1.0000
  H   H570      1.0  0.40530  0.22206  0.26133  1.0000
  H   H571      1.0  0.41996  0.21330  0.21743  1.0000
  H   H572      1.0  0.47284  0.32221  0.21001  1.0000
  H   H573      1.0  0.45734  0.31029  0.16875  1.0000
  H   H574      1.0  0.45303  0.34300  0.18804  1.0000
  H   H575      1.0  0.36710  0.33446  0.35148  1.0000
  H   H576      1.0  0.39513  0.33040  0.35287  1.0000
  H   H577      1.0  0.38343  0.35695  0.32458  1.0000
  H   H578      1.0  0.61192  0.08182  0.17798  1.0000
  H   H579      1.0  0.34630  0.18288  0.07058  1.0000
  H   H580      1.0  0.37357  0.08055  0.38639  1.0000
  H   H581      1.0  0.42197  0.35227  0.44263  1.0000
  H   H582      1.0  0.48178  0.29252  0.39076  1.0000
  H   H583      1.0  0.51000  0.49030  0.15792  1.0000
  H   H584      1.0  0.48873  0.37322  0.19155  1.0000
  S   S83       1.0  0.34437  0.13400  0.11941  1.0000
  H   H585      1.0  0.34975  0.21785  0.00230  1.0000
  C   C336      1.0  0.42021  0.17866  0.13142  1.0000
  H   H586      1.0  0.53942  0.29654  0.37299  1.0000
  H   H587      1.0  0.57384  0.48433  0.37883  1.0000
  C   C337      1.0  0.47926  0.21664  0.43843  1.0000
  Fe  Fe40      1.0  0.33284  0.12422  0.05649  1.0000
  H   H588      1.0  0.41514  0.18826  0.07039  1.0000
  H   H589      1.0  0.38112  0.17166  0.09722  1.0000
  C   C338      1.0  0.60078  0.04147  0.18603  1.0000
  H   H590      1.0  0.59479  0.06121  0.40917  1.0000
  C   C339      1.0  0.40443  0.45154  0.47171  1.0000
  H   H591      1.0  0.41441  0.18343  0.16177  1.0000
  C   C340      1.0  0.51349  0.29333  0.41443  1.0000
  C   C341      1.0  0.35949  0.25873  0.07417  1.0000
  H   H592      1.0  0.59011  0.07334  0.14604  1.0000
  H   H593      1.0  0.45686  0.33718  0.42163  1.0000
  H   H594      1.0  0.38118  0.19670  0.13405  1.0000
  H   H595      1.0  0.41409  0.21588  0.10389  1.0000
  H   H596      1.0  0.35498  0.30077  0.07117  1.0000
  H   H597      1.0  0.48783  0.43192  0.49574  1.0000
  N   N17       1.0  0.61200  0.02549  0.15462  1.0000
  H   H598      1.0  0.41748  0.15761  0.12553  1.0000
  H   H599      1.0  0.33635  0.07413  0.26124  1.0000
  C   C342      1.0  0.34944  0.20318  0.08108  1.0000
  C   C343      1.0  0.43773  0.45150  0.18667  1.0000
  C   C344      1.0  0.65293  0.42129  0.32065  1.0000
  H   H600      1.0  0.58505  0.03310  0.19214  1.0000
  H   H601      1.0  0.44090  0.43436  0.04041  1.0000
  H   H602      1.0  0.57957  0.10435  0.19848  1.0000
  H   H603      1.0  0.52294  0.48616  0.42523  1.0000
  H   H604      1.0  0.56158  0.47959  0.42583  1.0000
  H   H605      1.0  0.47193  0.25763  0.48874  1.0000
  C   C345      1.0  0.59702  0.07081  0.17626  1.0000
  C   C346      1.0  0.49233  0.03776  0.37101  1.0000
  H   H606      1.0  0.52269  0.30402  0.43730  1.0000
  H   H607      1.0  0.51614  0.27208  0.41854  1.0000
  H   H608      1.0  0.34758  0.18828  0.14257  1.0000
  H   H609      1.0  0.64212  0.03878  0.17587  1.0000
  H   H610      1.0  0.63986  0.02913  0.08493  1.0000
  H   H611      1.0  0.61856  0.48122  0.45026  1.0000
  H   H612      1.0  0.58901  0.08262  0.23689  1.0000
  H   H613      1.0  0.43957  0.43013  0.24316  1.0000
  C   C347      1.0  0.44970  0.32780  0.44806  1.0000
  H   H614      1.0  0.56338  0.03171  0.46166  1.0000
  H   H615      1.0  0.47008  0.21089  0.46508  1.0000
  H   H616      1.0  0.46108  0.48251  0.13970  1.0000
  H   H617      1.0  0.44145  0.41323  0.12776  1.0000
  H   H618      1.0  0.36640  0.00744  0.46868  1.0000
  H   H619      1.0  0.45433  0.45967  0.24410  1.0000
  H   H620      1.0  0.53385  0.46527  0.38727  1.0000
  H   H621      1.0  0.59744  0.02194  0.03295  1.0000
  H   H622      1.0  0.46238  0.42882  0.10258  1.0000
  H   H623      1.0  0.64918  0.00456  0.11945  1.0000
  C   C348      1.0  0.48836  0.30747  0.48945  1.0000
  C   C349      1.0  0.63296  0.03818  0.14742  1.0000
  C   C350      1.0  0.33661  0.03822  0.42785  1.0000
  H   H624      1.0  0.34650  0.34500  0.16430  1.0000
  C   C351      1.0  0.48172  0.47914  0.18986  1.0000
  H   H625      1.0  0.35491  0.06052  0.36021  1.0000
  H   H626      1.0  0.57262  0.02911  0.37092  1.0000
  H   H627      1.0  0.59539  0.46127  0.45269  1.0000
  H   H628      1.0  0.50432  0.48119  0.34065  1.0000
  C   C352      1.0  0.42595  0.33113  0.44448  1.0000
  C   C353      1.0  0.52500  0.48372  0.39259  1.0000
  H   H629      1.0  0.55697  0.05656  0.42558  1.0000
  H   H630      1.0  0.44969  0.28931  0.42268  1.0000
  C   C354      1.0  0.46690  0.07375  0.47258  1.0000
  C   C355      1.0  0.43315  0.44979  0.09939  1.0000
  H   H631      1.0  0.46607  0.07109  0.43969  1.0000
  C   C356      1.0  0.35799  0.07108  0.38860  1.0000
  H   H632      1.0  0.47432  0.20408  0.41301  1.0000
  C   C357      1.0  0.34152  0.20500  0.12477  1.0000
  H   H633      1.0  0.48245  0.46131  0.13110  1.0000
  H   H634      1.0  0.57316  0.00988  0.05369  1.0000
  C   C358      1.0  0.58970  0.05182  0.43740  1.0000
  N   N18       1.0  0.45669  0.44337  0.16253  1.0000
  H   H635      1.0  0.45828  0.24731  0.42123  1.0000
  H   H636      1.0  0.43991  0.46911  0.09217  1.0000
  C   C359      1.0  0.46390  0.04747  0.49353  1.0000
  H   H637      1.0  0.51355  0.38305  0.17117  1.0000
  H   H638      1.0  0.39142  0.24422  0.06790  1.0000
  H   H639      1.0  0.64309  0.43190  0.29847  1.0000
  H   H640      1.0  0.48909  0.32873  0.48239  1.0000
  H   H641      1.0  0.56938  0.48478  0.27020  1.0000
  C   C360      1.0  0.59005  0.00549  0.04920  1.0000
  H   H642      1.0  0.51475  0.28868  0.34981  1.0000
  H   H643      1.0  0.41521  0.44899  0.04410  1.0000
  H   H644      1.0  0.35109  0.09703  0.23146  1.0000
  H   H645      1.0  0.53562  0.04344  0.37532  1.0000
  C   C361      1.0  0.37693  0.23824  0.08383  1.0000
  H   H646      1.0  0.60202  0.04297  0.09886  1.0000
  C   C362      1.0  0.47043  0.46656  0.15374  1.0000
  H   H647      1.0  0.63092  0.05877  0.13772  1.0000
  C   C363      1.0  0.36801  0.28657  0.07588  1.0000
  H   H648      1.0  0.46800  0.47326  0.48199  1.0000
  H   H649      1.0  0.58182  0.02652  0.12434  1.0000
  H   H650      1.0  0.47018  0.48935  0.20906  1.0000
  H   H651      1.0  0.58948  0.06693  0.46120  1.0000
  H   H652      1.0  0.42000  0.32134  0.41712  1.0000
  H   H653      1.0  0.64853  0.40032  0.32062  1.0000
  C   C364      1.0  0.60375  0.47609  0.43465  1.0000
  H   H654      1.0  0.51967  0.32161  0.36706  1.0000
  C   C365      1.0  0.56962  0.49443  0.40722  1.0000
  C   C366      1.0  0.37818  0.20293  0.03251  1.0000
  H   H655      1.0  0.33905  0.21565  0.06261  1.0000
  C   C367      1.0  0.52976  0.02517  0.38944  1.0000
  N   N19       1.0  0.33430  0.02100  0.46405  1.0000
  H   H656      1.0  0.43736  0.18210  0.13070  1.0000
  C   C368      1.0  0.35124  0.32606  0.17802  1.0000
  H   H657      1.0  0.49047  0.46451  0.20775  1.0000
  H   H658      1.0  0.49757  0.05799  0.36447  1.0000
  H   H659      1.0  0.44674  0.28929  0.47492  1.0000
  C   C369      1.0  0.33719  0.09474  0.25099  1.0000
  C   C370      1.0  0.46858  0.42174  0.18357  1.0000
  H   H660      1.0  0.49619  0.21311  0.44418  1.0000
  H   H661      1.0  0.42233  0.46254  0.28550  1.0000
  C   C371      1.0  0.42702  0.43676  0.05998  1.0000
  H   H662      1.0  0.49801  0.25896  0.47167  1.0000
  C   C372      1.0  0.38505  0.19262  0.10233  1.0000
  H   H663      1.0  0.42423  0.43842  0.18006  1.0000
  Fe  Fe41      1.0  0.65887  0.03599  0.33483  1.0000
  C   C373      1.0  0.43971  0.45076  0.23289  1.0000
  H   H664      1.0  0.45476  0.33868  0.47502  1.0000
  C   C374      1.0  0.58216  0.08350  0.20635  1.0000
  H   H665      1.0  0.49101  0.49216  0.49369  1.0000
  C   C375      1.0  0.44903  0.43253  0.12308  1.0000
  N   N20       1.0  0.37219  0.20992  0.07481  1.0000
  H   H666      1.0  0.45800  0.40485  0.18857  1.0000
  H   H667      1.0  0.52458  0.03090  0.41995  1.0000
  C   C376      1.0  0.49934  0.39009  0.18696  1.0000
  H   H668      1.0  0.47373  0.42775  0.21383  1.0000
  H   H669      1.0  0.49996  0.42723  0.15764  1.0000
  C   C377      1.0  0.35803  0.05216  0.42389  1.0000
  H   H670      1.0  0.50425  0.39790  0.21649  1.0000
  H   H671      1.0  0.47892  0.03324  0.35094  1.0000
  H   H672      1.0  0.41848  0.45292  0.11645  1.0000
  C   C378      1.0  0.48846  0.41133  0.16219  1.0000
  C   C379      1.0  0.42129  0.46486  0.25259  1.0000
  C   C380      1.0  0.64694  0.02578  0.11484  1.0000
  H   H673      1.0  0.41803  0.32286  0.47106  1.0000
  H   H674      1.0  0.43240  0.47143  0.17769  1.0000
  H   H675      1.0  0.48896  0.32221  0.41318  1.0000
  C   C381      1.0  0.40924  0.19529  0.09958  1.0000
  H   H676      1.0  0.60777  0.46755  0.40516  1.0000
  H   H677      1.0  0.34678  0.22322  0.13954  1.0000
  H   H678      1.0  0.34597  0.08661  0.39279  1.0000
  H   H679      1.0  0.35238  0.25598  0.04436  1.0000
  C   C382      1.0  0.47523  0.24528  0.42790  1.0000
  H   H680      1.0  0.37972  0.28965  0.05194  1.0000
  H   H681      1.0  0.34658  0.25744  0.09614  1.0000
  H   H682      1.0  0.35042  0.31074  0.15462  1.0000
  C   C383      1.0  0.48159  0.26365  0.46278  1.0000
  H   H683      1.0  0.60124  0.03644  0.44592  1.0000
  H   H684      1.0  0.49869  0.45090  0.45586  1.0000
  C   C384      1.0  0.56785  0.04016  0.43250  1.0000
  H   H685      1.0  0.33999  0.32141  0.20216  1.0000
  H   H686      1.0  0.41999  0.41729  0.06552  1.0000
  H   H687      1.0  0.44949  0.03854  0.48108  1.0000
  H   H688      1.0  0.42156  0.48604  0.24540  1.0000
  H   H689      1.0  0.33928  0.10749  0.27753  1.0000
  C   C385      1.0  0.59881  0.02518  0.11697  1.0000
  C   C386      1.0  0.45585  0.29844  0.45041  1.0000
  H   H690      1.0  0.64955  0.42956  0.35063  1.0000
  H   H691      1.0  0.33469  0.02654  0.40007  1.0000
  N   N21       1.0  0.47894  0.29255  0.45502  1.0000
  H   H692      1.0  0.36202  0.06353  0.45101  1.0000
  S   S84       1.0  0.64985  0.48849  0.26402  1.0000
  H   H693      1.0  0.56674  0.07353  0.20637  1.0000
  H   H694      1.0  0.48417  0.24951  0.40038  1.0000
  N   N22       1.0  0.54718  0.00502  0.39204  1.0000
  S   S85       1.0  0.33964  0.41959  0.01223  1.0000
  H   H695      1.0  0.39506  0.20660  0.02728  1.0000
  H   H696      1.0  0.48241  0.08215  0.48029  1.0000
  H   H697      1.0  0.48681  0.03676  0.40234  1.0000
  H   H698      1.0  0.37579  0.18160  0.02746  1.0000
  C   C387      1.0  0.60103  0.00093  0.08927  1.0000
  H   H699      1.0  0.49276  0.49684  0.38361  1.0000
  H   H700      1.0  0.45448  0.08787  0.48126  1.0000
  H   H701      1.0  0.58033  0.00512  0.40618  1.0000
  H   H702      1.0  0.47755  0.03516  0.48558  1.0000
  H   H703      1.0  0.55020  0.00452  0.32804  1.0000
  C   C388      1.0  0.50329  0.48078  0.37371  1.0000
  H   H704      1.0  0.62696  0.99957  0.19729  1.0000
  C   C389      1.0  0.35053  0.99944  0.46222  1.0000
  H   H705      1.0  0.50407  0.99842  0.37076  1.0000
  S   S86       1.0  0.35352  0.35897  0.99890  1.0000
  H   H706      1.0  0.33129  0.07693  0.48370  1.0000
  H   H707      1.0  0.50494  0.30137  0.49421  1.0000
  C   C390      1.0  0.36688  0.21803  0.99861  1.0000
  C   C391      1.0  0.61572  0.99855  0.17176  1.0000
  H   H708      1.0  0.37243  0.23855  0.99778  1.0000
  S   S87       1.0  0.34504  0.13917  0.99807  1.0000
  S   S88       1.0  0.39802  0.47685  0.65734  1.0000
  C   C392      1.0  0.36979  0.06269  0.85232  1.0000
  H   H709      1.0  0.38539  0.06564  0.86415  1.0000
  S   S89       1.0  0.34643  0.45773  0.73157  1.0000
  H   H710      1.0  0.38138  0.47026  0.91841  1.0000
  N   N23       1.0  0.46270  0.02706  0.56505  1.0000
  H   H711      1.0  0.35006  0.12267  0.86847  1.0000
  H   H712      1.0  0.44511  0.47652  0.59964  1.0000
  Fe  Fe42      1.0  0.35972  0.02015  0.69226  1.0000
  S   S90       1.0  0.34282  0.03458  0.74914  1.0000
  Fe  Fe43      1.0  0.37772  0.03851  0.61118  1.0000
  S   S91       1.0  0.39043  0.07382  0.57795  1.0000
  S   S92       1.0  0.34537  0.03780  0.63691  1.0000
  S   S93       1.0  0.39271  0.02403  0.66817  1.0000
  H   H713      1.0  0.38157  0.45765  0.78954  1.0000
  H   H714      1.0  0.36706  0.22413  0.84278  1.0000
  C   C393      1.0  0.34722  0.04805  0.79776  1.0000
  C   C394      1.0  0.36729  0.05244  0.81335  1.0000
  C   C395      1.0  0.35475  0.48337  0.95407  1.0000
  C   C396      1.0  0.35233  0.06882  0.87626  1.0000
  H   H715      1.0  0.48367  0.46436  0.62438  1.0000
  H   H716      1.0  0.38088  0.04762  0.79560  1.0000
  Fe  Fe44      1.0  0.33447  0.10104  0.97069  1.0000
  H   H717      1.0  0.33628  0.11414  0.80523  1.0000
  S   S94       1.0  0.35832  0.40622  0.90572  1.0000
  C   C397      1.0  0.43377  0.42360  0.51666  1.0000
  H   H718      1.0  0.47942  0.31854  0.59113  1.0000
  C   C398      1.0  0.35011  0.44402  0.78033  1.0000
  H   H719      1.0  0.35027  0.48197  0.98597  1.0000
  H   H720      1.0  0.50428  0.31624  0.56602  1.0000
  H   H721      1.0  0.40426  0.11439  0.52522  1.0000
  C   C399      1.0  0.41912  0.43999  0.53599  1.0000
  H   H722      1.0  0.49650  0.02856  0.56071  1.0000
  S   S95       1.0  0.35653  0.08136  0.92553  1.0000
  H   H723      1.0  0.46527  0.45625  0.54869  1.0000
  H   H724      1.0  0.37328  0.12055  0.80376  1.0000
  H   H725      1.0  0.41908  0.44150  0.56820  1.0000
  H   H726      1.0  0.50800  0.49755  0.59950  1.0000
  C   C400      1.0  0.34360  0.18032  0.81711  1.0000
  H   H727      1.0  0.48492  0.00552  0.52844  1.0000
  H   H728      1.0  0.35699  0.09421  0.74944  1.0000
  H   H729      1.0  0.37619  0.13871  0.93211  1.0000
  H   H730      1.0  0.43009  0.02094  0.55011  1.0000
  H   H731      1.0  0.48326  0.49637  0.64719  1.0000
  H   H732      1.0  0.45109  0.48368  0.68468  1.0000
  C   C401      1.0  0.48368  0.01390  0.55882  1.0000
  H   H733      1.0  0.42765  0.04278  0.61079  1.0000
  H   H734      1.0  0.38721  0.11854  0.89309  1.0000
  H   H735      1.0  0.43818  0.48994  0.53203  1.0000
  C   C402      1.0  0.44166  0.05708  0.66493  1.0000
  H   H736      1.0  0.44041  0.03817  0.68104  1.0000
  C   C403      1.0  0.40487  0.09620  0.50880  1.0000
  C   C404      1.0  0.46179  0.03594  0.60809  1.0000
  H   H737      1.0  0.39480  0.03152  0.51999  1.0000
  S   S96       1.0  0.34992  0.48983  0.62984  1.0000
  Fe  Fe45      1.0  0.33991  0.39139  0.96067  1.0000
  C   C405      1.0  0.34966  0.14435  0.86720  1.0000
  H   H738      1.0  0.44498  0.41257  0.53426  1.0000
  H   H739      1.0  0.47345  0.06563  0.54922  1.0000
  Fe  Fe46      1.0  0.38161  0.48857  0.60035  1.0000
  C   C406      1.0  0.45813  0.49080  0.60344  1.0000
  C   C407      1.0  0.44237  0.05259  0.61984  1.0000
  H   H740      1.0  0.37236  0.17520  0.88134  1.0000
  C   C408      1.0  0.36870  0.44683  0.80222  1.0000
  H   H741      1.0  0.46184  0.01874  0.62852  1.0000
  C   C409      1.0  0.35439  0.42081  0.85758  1.0000
  H   H742      1.0  0.42772  0.06921  0.67237  1.0000
  H   H743      1.0  0.45192  0.45181  0.66157  1.0000
  H   H744      1.0  0.38149  0.15331  0.84386  1.0000
  H   H745      1.0  0.44284  0.07216  0.60557  1.0000
  H   H746      1.0  0.47602  0.04744  0.61592  1.0000
  S   S97       1.0  0.38532  0.47483  0.53583  1.0000
  H   H747      1.0  0.38544  0.43716  0.85657  1.0000
  H   H748      1.0  0.44599  0.06117  0.54267  1.0000
  H   H749      1.0  0.33698  0.44984  0.93939  1.0000
  C   C410      1.0  0.33768  0.03626  0.50215  1.0000
  C   C411      1.0  0.46145  0.05125  0.53919  1.0000
  H   H750      1.0  0.33338  0.02422  0.52841  1.0000
  Fe  Fe47      1.0  0.36668  0.48212  0.68844  1.0000
  C   C412      1.0  0.33801  0.46999  0.92759  1.0000
  C   C413      1.0  0.38472  0.13896  0.90334  1.0000
  H   H751      1.0  0.49069  0.46608  0.56211  1.0000
  H   H752      1.0  0.38783  0.47979  0.96881  1.0000
  C   C414      1.0  0.37250  0.15444  0.87190  1.0000
  C   C415      1.0  0.39952  0.04954  0.50598  1.0000
  H   H753      1.0  0.40029  0.14799  0.90831  1.0000
  H   H754      1.0  0.45592  0.06748  0.67525  1.0000
  C   C416      1.0  0.48746  0.32140  0.56213  1.0000
  H   H755      1.0  0.36055  0.18170  0.81065  1.0000
  H   H756      1.0  0.44013  0.99804  0.58459  1.0000
  C   C417      1.0  0.40431  0.45400  0.51353  1.0000
  C   C418      1.0  0.37147  0.20600  0.95781  1.0000
  H   H757      1.0  0.48604  0.34234  0.55371  1.0000
  H   H758      1.0  0.36378  0.21797  0.93419  1.0000
  H   H759      1.0  0.38858  0.20537  0.95208  1.0000
  C   C419      1.0  0.46152  0.46876  0.67114  1.0000
  H   H760      1.0  0.47281  0.46208  0.69436  1.0000
  C   C420      1.0  0.44435  0.00918  0.55715  1.0000
  H   H761      1.0  0.33579  0.18504  0.78813  1.0000
  C   C421      1.0  0.37084  0.43517  0.84037  1.0000
  C   C422      1.0  0.47733  0.30412  0.53031  1.0000
  H   H762      1.0  0.36500  0.18594  0.95610  1.0000
  C   C423      1.0  0.47657  0.47263  0.54552  1.0000
  C   C424      1.0  0.47341  0.48015  0.63571  1.0000
  H   H763      1.0  0.47853  0.28358  0.54071  1.0000
  H   H764      1.0  0.35518  0.12314  0.71859  1.0000
  C   C425      1.0  0.33368  0.42963  0.79751  1.0000
  C   C426      1.0  0.39868  0.07292  0.52752  1.0000
  C   C427      1.0  0.37602  0.46976  0.94991  1.0000
  H   H765      1.0  0.37504  0.44907  0.95978  1.0000
  C   C428      1.0  0.34095  0.13422  0.79634  1.0000
  H   H766      1.0  0.59815  0.00735  0.62321  1.0000
  H   H767      1.0  0.38043  0.11051  0.73366  1.0000
  H   H768      1.0  0.34489  0.24319  0.85907  1.0000
  C   C429      1.0  0.36359  0.13072  0.78085  1.0000
  H   H769      1.0  0.46052  0.30960  0.52868  1.0000
  H   H770      1.0  0.37089  0.14960  0.77300  1.0000
  H   H771      1.0  0.34503  0.07725  0.55421  1.0000
  H   H772      1.0  0.34445  0.46810  0.89684  1.0000
  C   C430      1.0  0.36399  0.11364  0.74337  1.0000
  C   C431      1.0  0.33575  0.41816  0.83577  1.0000
  H   H773      1.0  0.34134  0.15028  0.89502  1.0000
  H   H774      1.0  0.35457  0.04066  0.50689  1.0000
  C   C432      1.0  0.33777  0.20257  0.84676  1.0000
  C   C433      1.0  0.33227  0.06483  0.86043  1.0000
  N   N24       1.0  0.33771  0.15317  0.83043  1.0000
  H   H775      1.0  0.34709  0.23425  0.80718  1.0000
  C   C434      1.0  0.35001  0.22752  0.83826  1.0000
  H   H776      1.0  0.34075  0.19677  0.87819  1.0000
  N   N25       1.0  0.46741  0.49731  0.56324  1.0000
  H   H777      1.0  0.51133  0.45096  0.50416  1.0000
  H   H778      1.0  0.49441  0.00038  0.61775  1.0000
  S   S98       1.0  0.37410  0.99926  0.58312  1.0000
  C   C435      1.0  0.48244  0.47392  0.50067  1.0000
  Fe  Fe48      1.0  0.63226  0.54325  0.33748  1.0000
  S   S99       1.0  0.61983  0.57759  0.37353  1.0000
  Fe  Fe49      1.0  0.64099  0.53019  0.24864  1.0000
  H   H779      1.0  0.63982  0.81043  0.03164  1.0000
  S   S100      1.0  0.61188  0.52925  0.28701  1.0000
  Fe  Fe50      1.0  0.65475  0.99750  0.26454  1.0000
  H   H780      1.0  0.36828  0.94933  0.46052  1.0000
  H   H781      1.0  0.59650  0.89979  0.49245  1.0000
  C   C436      1.0  0.49755  0.49955  0.17628  1.0000
  H   H782      1.0  0.58131  0.94379  0.30705  1.0000
  S   S101      1.0  0.63688  0.94725  0.39089  1.0000
  H   H783      1.0  0.64009  0.84160  0.08546  1.0000
  C   C437      1.0  0.61828  0.94519  0.42998  1.0000
  C   C438      1.0  0.61436  0.92090  0.44811  1.0000
  H   H784      1.0  0.62253  0.90365  0.43762  1.0000
  H   H785      1.0  0.62355  0.98555  0.14991  1.0000
  H   H786      1.0  0.56856  0.97157  0.28427  1.0000
  C   C439      1.0  0.54405  0.98675  0.42684  1.0000
  H   H787      1.0  0.55308  0.94547  0.30557  1.0000
  C   C440      1.0  0.59589  0.98447  0.18747  1.0000
  H   H788      1.0  0.50509  0.50856  0.20285  1.0000
  H   H789      1.0  0.63043  0.54031  0.43702  1.0000
  H   H790      1.0  0.64886  0.94529  0.18826  1.0000
  C   C441      1.0  0.59950  0.95505  0.19167  1.0000
  C   C442      1.0  0.52396  0.97005  0.42650  1.0000
  H   H791      1.0  0.33305  0.96482  0.48275  1.0000
  C   C443      1.0  0.60366  0.59775  0.44305  1.0000
  C   C444      1.0  0.61484  0.57696  0.42563  1.0000
  H   H792      1.0  0.59852  0.61397  0.42467  1.0000
  C   C445      1.0  0.52451  0.94986  0.46016  1.0000
  C   C446      1.0  0.56683  0.53670  0.37282  1.0000
  H   H793      1.0  0.65379  0.86544  0.05743  1.0000
  H   H794      1.0  0.58218  0.98772  0.16759  1.0000
  C   C447      1.0  0.54677  0.52910  0.43658  1.0000
  C   C448      1.0  0.55885  0.55251  0.45487  1.0000
  C   C449      1.0  0.55306  0.55843  0.35356  1.0000
  C   C450      1.0  0.33477  0.57807  0.46161  1.0000
  N   N26       1.0  0.55525  0.51729  0.39839  1.0000
  C   C451      1.0  0.60782  0.96736  0.44413  1.0000
  C   C452      1.0  0.56758  0.95717  0.30903  1.0000
  C   C453      1.0  0.56629  0.58126  0.33901  1.0000
  C   C454      1.0  0.36522  0.54952  0.47356  1.0000
  H   H795      1.0  0.61127  0.98621  0.43135  1.0000
  H   H796      1.0  0.57965  0.54623  0.38978  1.0000
  H   H797      1.0  0.59975  0.51493  0.41257  1.0000
  H   H798      1.0  0.50958  0.93885  0.46069  1.0000
  H   H799      1.0  0.51007  0.98276  0.43155  1.0000
  H   H800      1.0  0.52670  0.95954  0.48956  1.0000
  H   H801      1.0  0.53042  0.53636  0.43217  1.0000
  C   C455      1.0  0.59029  0.50066  0.42943  1.0000
  H   H802      1.0  0.55734  0.57008  0.43566  1.0000
  H   H803      1.0  0.48967  0.51521  0.15869  1.0000
  H   H804      1.0  0.54459  0.55038  0.32726  1.0000
  H   H805      1.0  0.54124  0.56605  0.37483  1.0000
  H   H806      1.0  0.61266  0.95104  0.21260  1.0000
  H   H807      1.0  0.56749  0.95596  0.37299  1.0000
  H   H808      1.0  0.59141  0.98765  0.03046  1.0000
  C   C456      1.0  0.38677  0.52512  0.42208  1.0000
  H   H809      1.0  0.58700  0.50824  0.45976  1.0000
  H   H810      1.0  0.52539  0.52281  0.36844  1.0000
  H   H811      1.0  0.58517  0.94577  0.20373  1.0000
  C   C457      1.0  0.59967  0.91867  0.47931  1.0000
  H   H812      1.0  0.64848  0.91601  0.12897  1.0000
  H   H813      1.0  0.60440  0.59914  0.23606  1.0000
  H   H814      1.0  0.57392  0.59120  0.36470  1.0000
  H   H815      1.0  0.57857  0.57425  0.31810  1.0000
  Fe  Fe51      1.0  0.63980  0.98242  0.34941  1.0000
  H   H816      1.0  0.62915  0.86549  0.00058  1.0000
  H   H817      1.0  0.37548  0.56674  0.46895  1.0000
  H   H818      1.0  0.57496  0.52639  0.34790  1.0000
  C   C458      1.0  0.62154  0.55624  0.44987  1.0000
  C   C459      1.0  0.65294  0.56096  0.14713  1.0000
  H   H819      1.0  0.55620  0.59571  0.32324  1.0000
  C   C460      1.0  0.65622  0.58659  0.08520  1.0000
  C   C461      1.0  0.54901  0.99032  0.35308  1.0000
  H   H820      1.0  0.62659  0.52738  0.07571  1.0000
  H   H821      1.0  0.61754  0.99577  0.08308  1.0000
  C   C462      1.0  0.66160  0.85246  0.14912  1.0000
  H   H822      1.0  0.54556  0.51382  0.46014  1.0000
  S   S102      1.0  0.63656  0.54916  0.18640  1.0000
  C   C463      1.0  0.36484  0.53478  0.43309  1.0000
  S   S103      1.0  0.62465  0.98109  0.28855  1.0000
  H   H823      1.0  0.39778  0.54176  0.41954  1.0000
  C   C464      1.0  0.61340  0.51970  0.05745  1.0000
  H   H824      1.0  0.53468  0.97898  0.34653  1.0000
  H   H825      1.0  0.35925  0.54792  0.40886  1.0000
  H   H826      1.0  0.52202  0.95921  0.39813  1.0000
  C   C465      1.0  0.64387  0.57598  0.11616  1.0000
  H   H827      1.0  0.53757  0.93572  0.45559  1.0000
  H   H828      1.0  0.60369  0.63307  0.25190  1.0000
  H   H829      1.0  0.65676  0.97421  0.46224  1.0000
  H   H830      1.0  0.62718  0.57975  0.11645  1.0000
  H   H831      1.0  0.60307  0.94616  0.16219  1.0000
  C   C466      1.0  0.56786  0.97113  0.34936  1.0000
  H   H832      1.0  0.65826  0.66331  0.24587  1.0000
  C   C467      1.0  0.59317  0.96516  0.47525  1.0000
  H   H833      1.0  0.34648  0.59321  0.45362  1.0000
  C   C468      1.0  0.62523  0.84504  0.00880  1.0000
  C   C469      1.0  0.36580  0.95739  0.49093  1.0000
  H   H834      1.0  0.61251  0.84528  0.03132  1.0000
  H   H835      1.0  0.55768  0.97331  0.43000  1.0000
  H   H836      1.0  0.38620  0.51475  0.39296  1.0000
  C   C470      1.0  0.34714  0.97620  0.49122  1.0000
  S   S104      1.0  0.66053  0.54707  0.29819  1.0000
  H   H837      1.0  0.57570  0.54822  0.45830  1.0000
  C   C471      1.0  0.53708  0.50699  0.37406  1.0000
  H   H838      1.0  0.64545  0.64251  0.14414  1.0000
  H   H839      1.0  0.59178  0.99217  0.21746  1.0000
  C   C472      1.0  0.64459  0.83079  0.02506  1.0000
  H   H840      1.0  0.58300  0.98164  0.35129  1.0000
  H   H841      1.0  0.64811  0.86451  0.13867  1.0000
  H   H842      1.0  0.60369  0.60722  0.28843  1.0000
  H   H843      1.0  0.58512  0.98246  0.48585  1.0000
  H   H844      1.0  0.53316  0.56395  0.49426  1.0000
  H   H845      1.0  0.59875  0.53013  0.06583  1.0000
  H   H846      1.0  0.42869  0.54441  0.49069  1.0000
  C   C473      1.0  0.65927  0.93221  0.13002  1.0000
  C   C474      1.0  0.60991  0.61329  0.25895  1.0000
  C   C475      1.0  0.59899  0.59775  0.48416  1.0000
  H   H847      1.0  0.35174  0.99132  0.43148  1.0000
  H   H848      1.0  0.42864  0.95980  0.49125  1.0000
  H   H849      1.0  0.62814  0.56279  0.02566  1.0000
  H   H850      1.0  0.54251  0.50061  0.34400  1.0000
  H   H851      1.0  0.59373  0.98357  0.10318  1.0000
  C   C476      1.0  0.65940  0.94884  0.16373  1.0000
  C   C477      1.0  0.63383  0.61347  0.26073  1.0000
  H   H852      1.0  0.39275  0.51123  0.44503  1.0000
  H   H853      1.0  0.35450  0.51747  0.43392  1.0000
  H   H854      1.0  0.64905  0.59853  0.06225  1.0000
  C   C478      1.0  0.64339  0.62140  0.21997  1.0000
  H   H855      1.0  0.65592  0.83271  0.15721  1.0000
  C   C479      1.0  0.65285  0.84410  0.06339  1.0000
  H   H856      1.0  0.63872  0.62704  0.28483  1.0000
  H   H857      1.0  0.63881  0.59339  0.26896  1.0000
  H   H858      1.0  0.63487  0.63933  0.21015  1.0000
  H   H859      1.0  0.63910  0.60594  0.19798  1.0000
  S   S105      1.0  0.64098  0.50308  0.35893  1.0000
  H   H860      1.0  0.65640  0.83085  0.00115  1.0000
  C   C480      1.0  0.61680  0.55618  0.49095  1.0000
  C   C481      1.0  0.58883  0.94080  0.49272  1.0000
  H   H861      1.0  0.65441  0.75623  0.07969  1.0000
  H   H862      1.0  0.65586  0.80194  0.10405  1.0000
  H   H863      1.0  0.65737  0.86729  0.20931  1.0000
  C   C482      1.0  0.55022  0.55974  0.49594  1.0000
  H   H864      1.0  0.65817  0.66835  0.17116  1.0000
  H   H865      1.0  0.37365  0.53719  0.49598  1.0000
  N   N27       1.0  0.34422  0.55803  0.48953  1.0000
  C   C483      1.0  0.66094  0.65051  0.15307  1.0000
  H   H866      1.0  0.66271  0.67253  0.09770  1.0000
  H   H867      1.0  0.61154  0.49864  0.06449  1.0000
  H   H868      1.0  0.63235  0.51200  0.00621  1.0000
  H   H869      1.0  0.54362  0.99780  0.45533  1.0000
  H   H870      1.0  0.66245  0.53320  0.00780  1.0000
  C   C484      1.0  0.61791  0.52307  0.01294  1.0000
  H   H871      1.0  0.60836  0.60285  0.00501  1.0000
  H   H872      1.0  0.45339  0.99662  0.49609  1.0000
  H   H873      1.0  0.60283  0.55959  0.00370  1.0000
  C   C485      1.0  0.61932  0.55246  0.00164  1.0000
  Fe  Fe52      1.0  0.53631  0.62023  0.62160  1.0000
  S   S106      1.0  0.55435  0.63014  0.56567  1.0000
  S   S107      1.0  0.50203  0.60923  0.60855  1.0000
  Fe  Fe53      1.0  0.57468  0.63233  0.67584  1.0000
  S   S108      1.0  0.59489  0.64151  0.62305  1.0000
  S   S109      1.0  0.58581  0.64471  0.73849  1.0000
  Fe  Fe54      1.0  0.56717  0.66453  0.59996  1.0000
  S   S110      1.0  0.57482  0.70483  0.57418  1.0000
  Fe  Fe55      1.0  0.58039  0.60664  0.59315  1.0000
  S   S111      1.0  0.59901  0.57526  0.55979  1.0000
  S   S112      1.0  0.54729  0.65666  0.65352  1.0000
  S   S113      1.0  0.56200  0.59514  0.64807  1.0000
  C   C486      1.0  0.62916  0.54455  0.88704  1.0000
  S   S114      1.0  0.43376  0.53480  0.68893  1.0000
  Fe  Fe56      1.0  0.35611  0.53204  0.64118  1.0000
  S   S115      1.0  0.37200  0.52480  0.70046  1.0000
  S   S116      1.0  0.38668  0.53181  0.60785  1.0000
  H   H874      1.0  0.50805  0.84850  0.72070  1.0000
  H   H875      1.0  0.50127  0.84711  0.79140  1.0000
  Fe  Fe57      1.0  0.54902  0.85756  0.61909  1.0000
  S   S117      1.0  0.55005  0.87536  0.68059  1.0000
  S   S118      1.0  0.53584  0.81607  0.61996  1.0000
  Fe  Fe58      1.0  0.56311  0.90904  0.57923  1.0000
  S   S119      1.0  0.56484  0.92909  0.63876  1.0000
  H   H876      1.0  0.62023  0.86832  0.56002  1.0000
  Fe  Fe59      1.0  0.58070  0.89273  0.66149  1.0000
  S   S120      1.0  0.61328  0.89111  0.69050  1.0000
  Fe  Fe60      1.0  0.53396  0.91018  0.65189  1.0000
  S   S121      1.0  0.50812  0.93493  0.68101  1.0000
  S   S122      1.0  0.58051  0.87325  0.60107  1.0000
  S   S123      1.0  0.53124  0.89168  0.59158  1.0000
  C   C487      1.0  0.49977  0.86594  0.73280  1.0000
  H   H877      1.0  0.60136  0.76090  0.83127  1.0000
  H   H878      1.0  0.50734  0.88325  0.71883  1.0000
  H   H879      1.0  0.33213  0.57386  0.54470  1.0000
  S   S124      1.0  0.41283  0.95298  0.62831  1.0000
  C   C488      1.0  0.48244  0.94221  0.66274  1.0000
  C   C489      1.0  0.46975  0.95993  0.68400  1.0000
  C   C490      1.0  0.44871  0.96456  0.67270  1.0000
  C   C491      1.0  0.43995  0.95100  0.64048  1.0000
  C   C492      1.0  0.45281  0.93388  0.61849  1.0000
  C   C493      1.0  0.47401  0.92985  0.62907  1.0000
  H   H880      1.0  0.63306  0.87054  0.60840  1.0000
  Fe  Fe61      1.0  0.34251  0.99688  0.61283  1.0000
  H   H881      1.0  0.44624  0.92338  0.59338  1.0000
  H   H882      1.0  0.48362  0.91656  0.61186  1.0000
  C   C494      1.0  0.63305  0.90617  0.82121  1.0000
  C   C495      1.0  0.64790  0.89935  0.79235  1.0000
  C   C496      1.0  0.64154  0.89457  0.75260  1.0000
  C   C497      1.0  0.62033  0.89672  0.74117  1.0000
  C   C498      1.0  0.60549  0.90337  0.77005  1.0000
  C   C499      1.0  0.61184  0.90805  0.80979  1.0000
  H   H883      1.0  0.63228  0.82839  0.73281  1.0000
  H   H884      1.0  0.65314  0.88948  0.73045  1.0000
  H   H885      1.0  0.58915  0.90513  0.76173  1.0000
  H   H886      1.0  0.60024  0.91337  0.83184  1.0000
  H   H887      1.0  0.62265  0.56323  0.87541  1.0000
  H   H888      1.0  0.35559  0.60969  0.51318  1.0000
  H   H889      1.0  0.58608  0.98636  0.65961  1.0000
  H   H890      1.0  0.61469  0.92079  0.56044  1.0000
  H   H891      1.0  0.62791  0.98842  0.58224  1.0000
  H   H892      1.0  0.47594  0.90743  0.73001  1.0000
  C   C500      1.0  0.56443  0.73550  0.58954  1.0000
  C   C501      1.0  0.57548  0.75850  0.58061  1.0000
  C   C502      1.0  0.56729  0.78332  0.59063  1.0000
  C   C503      1.0  0.54773  0.78539  0.60908  1.0000
  C   C504      1.0  0.53687  0.76238  0.61862  1.0000
  C   C505      1.0  0.54519  0.73758  0.60907  1.0000
  H   H893      1.0  0.59033  0.75710  0.56529  1.0000
  H   H894      1.0  0.57580  0.80082  0.58300  1.0000
  H   H895      1.0  0.52170  0.76373  0.63274  1.0000
  H   H896      1.0  0.53638  0.72010  0.61541  1.0000
  C   C506      1.0  0.60684  0.63318  0.76909  1.0000
  C   C507      1.0  0.61376  0.64884  0.80109  1.0000
  C   C508      1.0  0.62967  0.64006  0.82740  1.0000
  C   C509      1.0  0.63856  0.61522  0.82250  1.0000
  C   C510      1.0  0.63163  0.59955  0.79056  1.0000
  C   C511      1.0  0.61606  0.60857  0.76371  1.0000
  H   H897      1.0  0.60666  0.66781  0.80579  1.0000
  H   H898      1.0  0.63471  0.65227  0.85197  1.0000
  H   H899      1.0  0.63832  0.58028  0.78654  1.0000
  H   H900      1.0  0.61083  0.59624  0.73944  1.0000
  H   H901      1.0  0.47539  0.97950  0.59467  1.0000
  C   C512      1.0  0.48305  0.51931  0.56683  1.0000
  H   H902      1.0  0.63494  0.61030  0.99334  1.0000
  C   C513      1.0  0.43269  0.91612  0.74674  1.0000
  H   H903      1.0  0.46410  0.80062  0.79321  1.0000
  S   S125      1.0  0.63997  0.91257  0.87176  1.0000
  H   H904      1.0  0.62364  0.91624  0.60944  1.0000
  C   C514      1.0  0.48340  0.58846  0.63184  1.0000
  C   C515      1.0  0.46314  0.58675  0.61521  1.0000
  C   C516      1.0  0.44778  0.57049  0.63226  1.0000
  C   C517      1.0  0.45253  0.55557  0.66610  1.0000
  C   C518      1.0  0.47280  0.55718  0.68268  1.0000
  C   C519      1.0  0.48814  0.57354  0.66574  1.0000
  H   H905      1.0  0.45924  0.59833  0.58918  1.0000
  H   H906      1.0  0.43218  0.56984  0.61960  1.0000
  H   H907      1.0  0.47663  0.54584  0.70899  1.0000
  H   H908      1.0  0.50361  0.57467  0.67896  1.0000
  H   H909      1.0  0.35195  0.50284  0.49939  1.0000
  H   H910      1.0  0.52094  0.98618  0.56592  1.0000
  H   H911      1.0  0.41503  0.99002  0.50131  1.0000
  C   C520      1.0  0.65191  0.56192  0.96367  1.0000
  C   C521      1.0  0.65147  0.80083  0.76710  1.0000
  H   H912      1.0  0.51157  0.96007  0.59690  1.0000
  H   H913      1.0  0.60432  0.53803  0.92971  1.0000
  H   H914      1.0  0.62857  0.50380  0.86785  1.0000
  H   H915      1.0  0.48479  0.86407  0.59570  1.0000
  H   H916      1.0  0.33320  0.56287  0.72665  1.0000
  H   H917      1.0  0.62398  0.82386  0.88058  1.0000
  H   H918      1.0  0.48321  0.53133  0.53908  1.0000
  H   H919      1.0  0.51320  0.50280  0.54763  1.0000
  C   C522      1.0  0.47550  0.86652  0.67663  1.0000
  H   H920      1.0  0.36278  0.94093  0.51171  1.0000
  H   H921      1.0  0.65926  0.51968  0.95813  1.0000
  H   H922      1.0  0.53617  0.53030  0.58754  1.0000
  H   H923      1.0  0.47811  0.53314  0.59079  1.0000
  H   H924      1.0  0.44263  0.81457  0.82087  1.0000
  C   C523      1.0  0.36180  0.60509  0.57555  1.0000
  H   H925      1.0  0.66002  0.93919  0.52959  1.0000
  H   H926      1.0  0.43900  0.97771  0.69001  1.0000
  H   H927      1.0  0.45552  0.51116  0.50624  1.0000
  H   H928      1.0  0.46582  0.88992  0.77058  1.0000
  H   H929      1.0  0.53358  0.88958  0.77208  1.0000
  C   C524      1.0  0.62187  0.52299  0.85875  1.0000
  C   C525      1.0  0.50628  0.51172  0.57477  1.0000
  H   H930      1.0  0.60584  0.72680  0.84359  1.0000
  H   H931      1.0  0.64201  0.84627  0.82473  1.0000
  H   H932      1.0  0.48436  0.82519  0.66606  1.0000
  H   H933      1.0  0.50171  0.96331  0.54678  1.0000
  H   H934      1.0  0.53237  0.87009  0.81678  1.0000
  H   H935      1.0  0.62724  0.52743  0.82799  1.0000
  H   H936      1.0  0.64025  0.93780  0.66210  1.0000
  H   H937      1.0  0.53792  0.85462  0.76960  1.0000
  H   H938      1.0  0.45795  0.97266  0.53414  1.0000
  S   S126      1.0  0.65732  0.60220  0.85680  1.0000
  H   H939      1.0  0.65880  0.97226  0.61499  1.0000
  C   C526      1.0  0.44705  0.98830  0.52394  1.0000
  C   C527      1.0  0.33779  0.51064  0.51420  1.0000
  H   H940      1.0  0.62504  0.85866  0.88807  1.0000
  H   H941      1.0  0.62192  0.54001  0.50942  1.0000
  C   C528      1.0  0.62180  0.96829  0.58570  1.0000
  H   H942      1.0  0.64650  0.54525  0.88545  1.0000
  H   H943      1.0  0.62790  0.79448  0.72137  1.0000
  H   H944      1.0  0.44461  0.90298  0.69065  1.0000
  C   C529      1.0  0.42617  0.97539  0.51383  1.0000
  H   H945      1.0  0.44777  0.54730  0.55541  1.0000
  C   C530      1.0  0.59314  0.98700  0.62938  1.0000
  C   C531      1.0  0.42093  0.53884  0.51902  1.0000
  C   C532      1.0  0.64365  0.89887  0.56412  1.0000
  H   H946      1.0  0.34565  0.54726  0.76877  1.0000
  H   H947      1.0  0.48172  0.88542  0.66582  1.0000
  H   H948      1.0  0.47610  0.96972  0.70998  1.0000
  H   H949      1.0  0.62180  0.63888  0.93628  1.0000
  C   C533      1.0  0.62176  0.53936  0.93041  1.0000
  H   H950      1.0  0.60285  0.58314  0.93791  1.0000
  H   H951      1.0  0.41923  0.96642  0.54090  1.0000
  S   S127      1.0  0.35568  0.97877  0.66898  1.0000
  H   H952      1.0  0.66427  0.89812  0.80059  1.0000
  H   H953      1.0  0.64459  0.89938  0.53099  1.0000
  H   H954      1.0  0.61271  0.64906  0.98471  1.0000
  H   H955      1.0  0.60489  0.51384  0.99595  1.0000
  H   H956      1.0  0.63951  0.71157  0.64779  1.0000
  H   H957      1.0  0.38021  0.96748  0.50109  1.0000
  H   H958      1.0  0.55323  0.54371  0.51761  1.0000
  H   H959      1.0  0.64664  0.85665  0.56629  1.0000
  C   C534      1.0  0.34743  0.56926  0.53072  1.0000
  H   H960      1.0  0.66016  0.76700  0.96470  1.0000
  H   H961      1.0  0.35696  0.50412  0.94584  1.0000
  H   H962      1.0  0.65637  0.57698  0.98604  1.0000
  H   H963      1.0  0.36822  0.59044  0.59689  1.0000
  H   H964      1.0  0.58098  0.98128  0.60722  1.0000
  C   C535      1.0  0.64677  0.95272  0.53615  1.0000
  H   H965      1.0  0.65776  0.91433  0.64140  1.0000
  H   H966      1.0  0.44207  0.93432  0.74813  1.0000
  H   H967      1.0  0.46462  0.84014  0.60556  1.0000
  H   H968      1.0  0.55815  0.57755  0.50724  1.0000
  H   H969      1.0  0.66035  0.86051  0.85963  1.0000
  C   C536      1.0  0.65467  0.98065  0.52649  1.0000
  H   H970      1.0  0.66346  0.84023  0.77270  1.0000
  Fe  Fe62      1.0  0.40205  0.52046  0.66573  1.0000
  C   C537      1.0  0.63531  0.87201  0.57558  1.0000
  H   H971      1.0  0.37779  0.58920  0.52514  1.0000
  H   H972      1.0  0.41728  0.92090  0.73288  1.0000
  C   C538      1.0  0.65675  0.95125  0.60728  1.0000
  C   C539      1.0  0.65551  0.93552  0.64701  1.0000
  H   H973      1.0  0.44221  0.85343  0.77801  1.0000
  C   C540      1.0  0.46640  0.88994  0.73754  1.0000
  H   H974      1.0  0.51748  0.55128  0.56249  1.0000
  N   N28       1.0  0.58839  0.72924  0.72054  1.0000
  C   C541      1.0  0.59073  0.72875  0.76544  1.0000
  C   C542      1.0  0.56824  0.71569  0.70927  1.0000
  C   C543      1.0  0.60631  0.71336  0.70355  1.0000
  C   C544      1.0  0.58896  0.75649  0.70294  1.0000
  C   C545      1.0  0.58070  0.77923  0.72944  1.0000
  C   C546      1.0  0.61254  0.73696  0.78178  1.0000
  C   C547      1.0  0.60582  0.70890  0.65789  1.0000
  C   C548      1.0  0.54768  0.72854  0.72410  1.0000
  C   C549      1.0  0.52881  0.71113  0.71545  1.0000
  C   C550      1.0  0.57885  0.80467  0.70572  1.0000
  C   C551      1.0  0.61172  0.74372  0.82618  1.0000
  C   C552      1.0  0.62654  0.69755  0.64291  1.0000
  H   H975      1.0  0.58776  0.70861  0.77687  1.0000
  H   H976      1.0  0.57868  0.74106  0.78005  1.0000
  H   H977      1.0  0.56644  0.71456  0.67631  1.0000
  H   H978      1.0  0.56864  0.69507  0.71992  1.0000
  H   H979      1.0  0.60710  0.69371  0.71799  1.0000
  H   H980      1.0  0.62154  0.72293  0.71008  1.0000
  H   H981      1.0  0.60522  0.76188  0.69454  1.0000
  H   H982      1.0  0.58010  0.75702  0.67414  1.0000
  H   H983      1.0  0.59159  0.78285  0.75471  1.0000
  H   H984      1.0  0.56512  0.77501  0.74211  1.0000
  H   H985      1.0  0.62384  0.72050  0.77829  1.0000
  H   H986      1.0  0.61877  0.75402  0.76533  1.0000
  H   H987      1.0  0.60270  0.72735  0.64147  1.0000
  H   H988      1.0  0.59343  0.69465  0.65041  1.0000
  H   H989      1.0  0.54795  0.73205  0.75669  1.0000
  H   H990      1.0  0.54496  0.74729  0.70817  1.0000
  H   H991      1.0  0.53061  0.69193  0.73065  1.0000
  H   H992      1.0  0.51430  0.72070  0.72649  1.0000
  H   H993      1.0  0.52703  0.70786  0.68286  1.0000
  H   H994      1.0  0.57403  0.82089  0.72577  1.0000
  H   H995      1.0  0.59401  0.80987  0.69174  1.0000
  H   H996      1.0  0.56681  0.80272  0.68197  1.0000
  C   C553      1.0  0.61180  0.63331  0.96196  1.0000
  C   C554      1.0  0.48921  0.99183  0.58886  1.0000
  N   N29       1.0  0.62836  0.55926  0.96127  1.0000
  H   H997      1.0  0.63021  0.67888  0.65845  1.0000
  H   H998      1.0  0.62522  0.69355  0.61038  1.0000
  S   S128      1.0  0.56931  0.93925  0.53021  1.0000
  H   H999      1.0  0.43000  0.90882  0.77750  1.0000
  H   H1000     1.0  0.62770  0.74851  0.83714  1.0000
  H   H1001     1.0  0.60903  0.96617  0.56310  1.0000
  H   H1002     1.0  0.35478  0.55455  0.55085  1.0000
  C   C555      1.0  0.45655  0.84107  0.77802  1.0000
  C   C556      1.0  0.52871  0.87036  0.78433  1.0000
  H   H1003     1.0  0.34175  0.51503  0.54574  1.0000
  H   H1004     1.0  0.62722  0.51944  0.93828  1.0000
  H   H1005     1.0  0.46727  0.84899  0.80097  1.0000
  N   N30       1.0  0.63876  0.94824  0.57805  1.0000
  H   H1006     1.0  0.49697  0.88212  0.79391  1.0000
  C   C557      1.0  0.51933  0.53573  0.58541  1.0000
  H   H1007     1.0  0.65113  0.81022  0.70340  1.0000
  H   H1008     1.0  0.60640  0.94861  0.63626  1.0000
  H   H1009     1.0  0.40984  0.52262  0.51320  1.0000
  H   H1010     1.0  0.63966  0.80025  0.79119  1.0000
  C   C558      1.0  0.43716  0.53055  0.55030  1.0000
  H   H1011     1.0  0.64261  0.83763  0.91564  1.0000
  H   H1012     1.0  0.65823  0.56958  0.93507  1.0000
  H   H1013     1.0  0.62813  0.59311  0.92223  1.0000
  C   C559      1.0  0.64006  0.80906  0.72883  1.0000
  C   C560      1.0  0.45015  0.81364  0.79106  1.0000
  H   H1014     1.0  0.37192  0.62266  0.57659  1.0000
  C   C561      1.0  0.44389  0.89542  0.72169  1.0000
  C   C562      1.0  0.63464  0.84052  0.88642  1.0000
  H   H1015     1.0  0.65399  0.80137  0.85047  1.0000
  H   H1016     1.0  0.41192  0.55593  0.53022  1.0000
  C   C563      1.0  0.61187  0.96826  0.62767  1.0000
  Fe  Fe63      1.0  0.38780  0.98420  0.64097  1.0000
  H   H1017     1.0  0.45891  0.86558  0.66638  1.0000
  H   H1018     1.0  0.43428  0.87744  0.72138  1.0000
  N   N31       1.0  0.47681  0.86550  0.72166  1.0000
  C   C564      1.0  0.48751  0.84487  0.65368  1.0000
  H   H1019     1.0  0.65787  0.78092  0.76207  1.0000
  C   C565      1.0  0.48149  0.84478  0.60944  1.0000
  H   H1020     1.0  0.50458  0.84864  0.65532  1.0000
  H   H1021     1.0  0.45366  0.83482  0.71504  1.0000
  C   C566      1.0  0.44959  0.50611  0.53640  1.0000
  H   H1022     1.0  0.43876  0.80518  0.76951  1.0000
  H   H1023     1.0  0.59532  0.63173  0.95143  1.0000
  C   C567      1.0  0.46653  0.84064  0.73580  1.0000
  H   H1024     1.0  0.45093  0.50836  0.61730  1.0000
  C   C568      1.0  0.62918  0.92131  0.57910  1.0000
  C   C569      1.0  0.61937  0.58537  0.94833  1.0000
  H   H1025     1.0  0.60449  0.52182  0.85835  1.0000
  H   H1026     1.0  0.51444  0.54374  0.61474  1.0000
  C   C570      1.0  0.36138  0.59399  0.53322  1.0000
  C   C571      1.0  0.50522  0.86623  0.77785  1.0000
  H   H1027     1.0  0.47796  0.82412  0.73471  1.0000
  H   H1028     1.0  0.49085  0.82969  0.59354  1.0000
  H   H1029     1.0  0.61941  0.83492  0.98162  1.0000
  H   H1030     1.0  0.63436  0.94806  0.51384  1.0000
  C   C572      1.0  0.65075  0.84304  0.85300  1.0000
  C   C573      1.0  0.60543  0.57687  0.50832  1.0000
  H   H1031     1.0  0.62343  0.97514  0.65016  1.0000
  H   H1032     1.0  0.34498  0.98316  0.52216  1.0000
  H   H1033     1.0  0.34577  0.61085  0.58509  1.0000
  H   H1034     1.0  0.64117  0.99426  0.52283  1.0000
  C   C574      1.0  0.50695  0.97438  0.57349  1.0000
  H   H1035     1.0  0.42853  0.52643  0.57814  1.0000
  H   H1036     1.0  0.65975  0.90078  0.57627  1.0000
  C   C575      1.0  0.61920  0.60743  0.98022  1.0000
  H   H1037     1.0  0.59028  0.61382  0.49712  1.0000
  Fe  Fe64      1.0  0.95819  0.36764  0.10824  1.0000
  S   S129      1.0  0.96340  0.37841  0.17271  1.0000
  S   S130      1.0  0.96321  0.32769  0.07853  1.0000
  Fe  Fe65      1.0  0.94160  0.42253  0.08603  1.0000
  S   S131      1.0  0.94475  0.43638  0.14967  1.0000
  C   C576      1.0  0.91807  0.32239  0.17176  1.0000
  Fe  Fe66      1.0  0.97640  0.41645  0.14853  1.0000
  Fe  Fe67      1.0  0.93150  0.39774  0.16874  1.0000
  S   S132      1.0  0.90478  0.38616  0.21108  1.0000
  S   S133      1.0  0.97368  0.40416  0.08436  1.0000
  S   S134      1.0  0.92583  0.38538  0.10486  1.0000
  Fe  Fe68      1.0  0.83818  0.41118  0.40908  1.0000
  S   S135      1.0  0.81423  0.38109  0.39143  1.0000
  S   S136      1.0  0.86200  0.43166  0.36936  1.0000
  Fe  Fe69      1.0  0.82398  0.36012  0.44804  1.0000
  Fe  Fe70      1.0  0.79224  0.40457  0.43068  1.0000
  S   S137      1.0  0.75694  0.41086  0.41978  1.0000
  S   S138      1.0  0.81563  0.43608  0.44490  1.0000
  H   H1038     1.0  0.85846  0.02204  0.45396  1.0000
  H   H1039     1.0  0.77553  0.03820  0.13128  1.0000
  Fe  Fe71      1.0  0.80644  0.16642  0.43980  1.0000
  Fe  Fe72      1.0  0.79776  0.10915  0.41807  1.0000
  S   S139      1.0  0.83227  0.09888  0.42257  1.0000
  S   S140      1.0  0.77582  0.07419  0.40817  1.0000
  Fe  Fe73      1.0  0.83824  0.13642  0.38947  1.0000
  S   S141      1.0  0.86320  0.15024  0.34536  1.0000
  S   S142      1.0  0.80383  0.14521  0.38097  1.0000
  C   C577      1.0  0.82286  0.28728  0.45272  1.0000
  C   C578      1.0  0.87686  0.45143  0.07011  1.0000
  Fe  Fe74      1.0  0.93716  0.13473  0.06306  1.0000
  S   S143      1.0  0.94596  0.09925  0.09882  1.0000
  C   C579      1.0  0.89761  0.21964  0.10732  1.0000
  Fe  Fe75      1.0  0.95317  0.17268  0.12811  1.0000
  S   S144      1.0  0.96328  0.13931  0.16815  1.0000
  S   S145      1.0  0.95902  0.21325  0.15478  1.0000
  Fe  Fe76      1.0  0.97619  0.12002  0.11284  1.0000
  Fe  Fe77      1.0  0.93222  0.12149  0.15135  1.0000
  S   S146      1.0  0.90943  0.10087  0.19336  1.0000
  S   S147      1.0  0.96799  0.15468  0.07414  1.0000
  S   S148      1.0  0.92143  0.15570  0.11424  1.0000
  C   C580      1.0  0.70622  0.07101  0.36884  1.0000
  C   C581      1.0  0.71728  0.04824  0.37890  1.0000
  C   C582      1.0  0.73851  0.04960  0.39082  1.0000
  C   C583      1.0  0.74894  0.07374  0.39328  1.0000
  C   C584      1.0  0.73788  0.09652  0.38332  1.0000
  C   C585      1.0  0.71668  0.09513  0.37121  1.0000
  H   H1040     1.0  0.70936  0.02963  0.37790  1.0000
  H   H1041     1.0  0.74687  0.03185  0.39843  1.0000
  H   H1042     1.0  0.74562  0.11524  0.38503  1.0000
  H   H1043     1.0  0.70828  0.11291  0.36378  1.0000
  C   C586      1.0  0.87585  0.13574  0.30344  1.0000
  C   C587      1.0  0.87022  0.11126  0.28833  1.0000
  C   C588      1.0  0.88062  0.10091  0.25463  1.0000
  C   C589      1.0  0.89658  0.11497  0.23536  1.0000
  C   C590      1.0  0.90213  0.13948  0.25043  1.0000
  C   C591      1.0  0.89196  0.14964  0.28443  1.0000
  H   H1044     1.0  0.85794  0.10026  0.30263  1.0000
  H   H1045     1.0  0.87628  0.08188  0.24336  1.0000
  H   H1046     1.0  0.91452  0.15040  0.23628  1.0000
  H   H1047     1.0  0.89685  0.16825  0.29636  1.0000
  H   H1048     1.0  0.66935  0.42173  0.24880  1.0000
  H   H1049     1.0  0.70580  0.38380  0.21896  1.0000
  H   H1050     1.0  0.91457  0.26619  0.09056  1.0000
  H   H1051     1.0  0.85286  0.45817  0.00766  1.0000
  H   H1052     1.0  0.98861  0.47058  0.03657  1.0000
  H   H1053     1.0  0.89123  0.21088  0.44502  1.0000
  C   C592      1.0  0.72075  0.45911  0.21783  1.0000
  C   C593      1.0  0.82533  0.23948  0.45647  1.0000
  C   C594      1.0  0.83473  0.26433  0.45854  1.0000
  H   H1054     1.0  0.83462  0.22204  0.46098  1.0000
  H   H1055     1.0  0.85135  0.26585  0.46444  1.0000
  C   C595      1.0  0.74245  0.43630  0.39573  1.0000
  C   C596      1.0  0.75201  0.45518  0.37186  1.0000
  C   C597      1.0  0.73971  0.47420  0.35194  1.0000
  C   C598      1.0  0.71774  0.47474  0.35569  1.0000
  C   C599      1.0  0.70822  0.45614  0.38016  1.0000
  C   C600      1.0  0.72050  0.43697  0.39980  1.0000
  H   H1056     1.0  0.76884  0.45488  0.36822  1.0000
  H   H1057     1.0  0.73152  0.49296  0.25166  1.0000
  C   C601      1.0  0.92686  0.32064  0.21421  1.0000
  H   H1058     1.0  0.71291  0.42246  0.41815  1.0000
  C   C602      1.0  0.96236  0.29599  0.10028  1.0000
  C   C603      1.0  0.96472  0.29200  0.14136  1.0000
  C   C604      1.0  0.96363  0.26655  0.15737  1.0000
  C   C605      1.0  0.96019  0.24476  0.13260  1.0000
  C   C606      1.0  0.95806  0.24867  0.09146  1.0000
  C   C607      1.0  0.95922  0.27414  0.07543  1.0000
  H   H1059     1.0  0.96755  0.30853  0.16075  1.0000
  H   H1060     1.0  0.96552  0.26373  0.18919  1.0000
  H   H1061     1.0  0.95557  0.23210  0.07197  1.0000
  H   H1062     1.0  0.96240  0.48635  0.47460  1.0000
  C   C608      1.0  0.89363  0.39917  0.25559  1.0000
  C   C609      1.0  0.89921  0.42356  0.27111  1.0000
  C   C610      1.0  0.88935  0.43321  0.30584  1.0000
  C   C611      1.0  0.87393  0.41857  0.32566  1.0000
  C   C612      1.0  0.86857  0.39403  0.31044  1.0000
  C   C613      1.0  0.87829  0.38449  0.27556  1.0000
  H   H1063     1.0  0.91092  0.43511  0.25607  1.0000
  H   H1064     1.0  0.89364  0.45221  0.31729  1.0000
  H   H1065     1.0  0.85681  0.38250  0.32537  1.0000
  H   H1066     1.0  0.87385  0.36561  0.26386  1.0000
  H   H1067     1.0  0.76243  0.03859  0.31605  1.0000
  H   H1068     1.0  0.67880  0.39195  0.27000  1.0000
  H   H1069     1.0  0.89326  0.19048  0.40126  1.0000
  C   C614      1.0  0.89271  0.24544  0.12828  1.0000
  H   H1070     1.0  0.88457  0.45454  0.09953  1.0000
  C   C615      1.0  0.89137  0.21095  0.41188  1.0000
  H   H1071     1.0  0.68988  0.04947  0.27177  1.0000
  H   H1072     1.0  0.71829  0.02781  0.30335  1.0000
  H   H1073     1.0  0.92144  0.31124  0.08569  1.0000
  H   H1074     1.0  0.77535  0.03701  0.26818  1.0000
  C   C616      1.0  0.72393  0.48856  0.22250  1.0000
  C   C617      1.0  0.71880  0.40805  0.28316  1.0000
  H   H1075     1.0  0.75284  0.40027  0.33305  1.0000
  H   H1076     1.0  0.82929  0.05562  0.07038  1.0000
  S   S149      1.0  0.93217  0.45474  0.04195  1.0000
  C   C618      1.0  0.74481  0.05816  0.26849  1.0000
  H   H1077     1.0  0.79200  0.30260  0.44095  1.0000
  H   H1078     1.0  0.73416  0.49589  0.19829  1.0000
  H   H1079     1.0  0.93109  0.32795  0.15167  1.0000
  C   C619      1.0  0.90457  0.31543  0.09066  1.0000
  H   H1080     1.0  0.93863  0.30465  0.21662  1.0000
  C   C620      1.0  0.77907  0.07301  0.29940  1.0000
  H   H1081     1.0  0.93185  0.42417  0.40552  1.0000
  H   H1082     1.0  0.70478  0.07919  0.27257  1.0000
  H   H1083     1.0  0.71092  0.45658  0.27921  1.0000
  C   C621      1.0  0.85896  0.48933  0.46987  1.0000
  H   H1084     1.0  0.85544  0.05392  0.47618  1.0000
  H   H1085     1.0  0.89668  0.38481  0.38817  1.0000
  H   H1086     1.0  0.68779  0.09355  0.20919  1.0000
  N   N32       1.0  0.73233  0.03760  0.24658  1.0000
  C   C622      1.0  0.83628  0.04357  0.04623  1.0000
  H   H1087     1.0  0.73633  0.44960  0.21927  1.0000
  H   H1088     1.0  0.79349  0.49700  0.42163  1.0000
  C   C623      1.0  0.74499  0.02373  0.21494  1.0000
  H   H1089     1.0  0.78445  0.08341  0.27224  1.0000
  H   H1090     1.0  0.77291  0.39961  0.29560  1.0000
  C   C624      1.0  0.67619  0.42445  0.31122  1.0000
  S   S150      1.0  0.79112  0.20650  0.44792  1.0000
  H   H1091     1.0  0.78662  0.02676  0.47557  1.0000
  C   C625      1.0  0.70562  0.44859  0.25017  1.0000
  H   H1092     1.0  0.87336  0.34393  0.12721  1.0000
  H   H1093     1.0  0.90494  0.22270  0.40180  1.0000
  H   H1094     1.0  0.73546  0.06665  0.29333  1.0000
  H   H1095     1.0  0.87578  0.24546  0.13559  1.0000
  H   H1096     1.0  0.74664  0.43252  0.27781  1.0000
  H   H1097     1.0  0.97575  0.08026  0.02872  1.0000
  C   C626      1.0  0.87298  0.30060  0.12808  1.0000
  H   H1098     1.0  0.66739  0.05960  0.10849  1.0000
  H   H1099     1.0  0.69024  0.45827  0.24422  1.0000
  H   H1100     1.0  0.79307  0.06644  0.31659  1.0000
  N   N33       1.0  0.85167  0.23633  0.33067  1.0000
  C   C627      1.0  0.85591  0.23812  0.28639  1.0000
  C   C628      1.0  0.84868  0.26337  0.34844  1.0000
  C   C629      1.0  0.87081  0.22406  0.34991  1.0000
  C   C630      1.0  0.83307  0.21924  0.33962  1.0000
  C   C631      1.0  0.81203  0.22749  0.32020  1.0000
  C   C632      1.0  0.85970  0.21185  0.26428  1.0000
  C   C633      1.0  0.87083  0.22259  0.39620  1.0000
  C   C634      1.0  0.83868  0.28475  0.32133  1.0000
  C   C635      1.0  0.83327  0.30933  0.34516  1.0000
  C   C636      1.0  0.79522  0.20686  0.32704  1.0000
  C   C637      1.0  0.86283  0.21623  0.21956  1.0000
  H   H1101     1.0  0.86989  0.25063  0.28125  1.0000
  H   H1102     1.0  0.84288  0.24799  0.27034  1.0000
  H   H1103     1.0  0.83924  0.26221  0.37624  1.0000
  H   H1104     1.0  0.86402  0.27175  0.35789  1.0000
  H   H1105     1.0  0.88519  0.23471  0.34069  1.0000
  H   H1106     1.0  0.87296  0.20362  0.33963  1.0000
  H   H1107     1.0  0.83647  0.19852  0.33165  1.0000
  H   H1108     1.0  0.82999  0.21875  0.37226  1.0000
  H   H1109     1.0  0.81344  0.23016  0.28753  1.0000
  H   H1110     1.0  0.80631  0.24588  0.33407  1.0000
  H   H1111     1.0  0.87407  0.20206  0.27539  1.0000
  H   H1112     1.0  0.84626  0.19842  0.26794  1.0000
  H   H1113     1.0  0.85807  0.20980  0.40685  1.0000
  H   H1114     1.0  0.86894  0.24220  0.40976  1.0000
  H   H1115     1.0  0.84997  0.29050  0.29777  1.0000
  H   H1116     1.0  0.82417  0.27800  0.30652  1.0000
  H   H1117     1.0  0.84731  0.31690  0.36105  1.0000
  H   H1118     1.0  0.78017  0.21343  0.31352  1.0000
  H   H1119     1.0  0.79985  0.18801  0.31310  1.0000
  H   H1120     1.0  0.79270  0.20383  0.35949  1.0000
  H   H1121     1.0  0.87657  0.22899  0.21433  1.0000
  H   H1122     1.0  0.86582  0.19714  0.20472  1.0000
  H   H1123     1.0  0.84864  0.22522  0.20590  1.0000
  S   S151      1.0  0.84080  0.15922  0.44680  1.0000
  S   S152      1.0  0.83594  0.31786  0.45389  1.0000
  H   H1124     1.0  0.90647  0.33839  0.17082  1.0000
  C   C638      1.0  0.76572  0.04940  0.28806  1.0000
  H   H1125     1.0  0.75573  0.00026  0.46019  1.0000
  H   H1126     1.0  0.86347  0.29727  0.10064  1.0000
  H   H1127     1.0  0.74729  0.48847  0.33314  1.0000
  S   S153      1.0  0.84929  0.38909  0.46318  1.0000
  C   C639      1.0  0.80383  0.23731  0.44919  1.0000
  H   H1128     1.0  0.74803  0.07499  0.24841  1.0000
  H   H1129     1.0  0.77006  0.08685  0.31833  1.0000
  C   C640      1.0  0.79190  0.26027  0.44392  1.0000
  H   H1130     1.0  0.91780  0.39366  0.35557  1.0000
  H   H1131     1.0  0.72013  0.06699  0.20579  1.0000
  H   H1132     1.0  0.99601  0.15569  0.22824  1.0000
  C   C641      1.0  0.69508  0.40350  0.14078  1.0000
  C   C642      1.0  0.81853  0.49103  0.01549  1.0000
  H   H1133     1.0  0.95757  0.27697  0.04355  1.0000
  H   H1134     1.0  0.93462  0.33933  0.22210  1.0000
  H   H1135     1.0  0.71689  0.41719  0.31305  1.0000
  H   H1136     1.0  0.88882  0.21807  0.07872  1.0000
  H   H1137     1.0  0.85966  0.49358  0.43736  1.0000
  C   C643      1.0  0.68080  0.07802  0.22797  1.0000
  C   C644      1.0  0.91535  0.41782  0.40864  1.0000
  H   H1138     1.0  0.94973  0.42866  0.46582  1.0000
  H   H1139     1.0  0.92074  0.33566  0.02077  1.0000
  H   H1140     1.0  0.88831  0.48812  0.04899  1.0000
  C   C645      1.0  0.69769  0.06424  0.25284  1.0000
  C   C646      1.0  0.75503  0.04134  0.18262  1.0000
  C   C647      1.0  0.89817  0.26907  0.10116  1.0000
  C   C648      1.0  0.89400  0.31673  0.04893  1.0000
  N   N34       1.0  0.70319  0.41932  0.25366  1.0000
  H   H1141     1.0  0.92314  0.47767  0.48452  1.0000
  H   H1142     1.0  0.82087  0.30507  0.36735  1.0000
  H   H1143     1.0  0.74283  0.05093  0.16392  1.0000
  H   H1144     1.0  0.67826  0.02918  0.09061  1.0000
  H   H1145     1.0  0.66919  0.08730  0.24824  1.0000
  C   C649      1.0  0.80135  0.28513  0.44540  1.0000
  H   H1146     1.0  0.80806  0.02150  0.03898  1.0000
  C   C650      1.0  0.74230  0.41172  0.27343  1.0000
  C   C651      1.0  0.96414  0.46632  0.46219  1.0000
  H   H1147     1.0  0.89434  0.40448  0.45454  1.0000
  C   C652      1.0  0.77603  0.47976  0.47027  1.0000
  H   H1148     1.0  0.69139  0.45641  0.38378  1.0000
  N   N35       1.0  0.89588  0.29583  0.11984  1.0000
  H   H1149     1.0  0.89640  0.29821  0.03231  1.0000
  H   H1150     1.0  0.92220  0.28256  0.15593  1.0000
  C   C653      1.0  0.71431  0.05119  0.22554  1.0000
  H   H1151     1.0  0.69935  0.38244  0.13969  1.0000
  H   H1152     1.0  0.91404  0.31727  0.23587  1.0000
  H   H1153     1.0  0.71424  0.45575  0.18752  1.0000
  C   C654      1.0  0.70559  0.40538  0.21423  1.0000
  S   S154      1.0  0.67941  0.07051  0.35359  1.0000
  H   H1154     1.0  0.94560  0.05838  0.99788  1.0000
  H   H1155     1.0  0.82735  0.32483  0.32476  1.0000
  H   H1156     1.0  0.90360  0.08921  0.02856  1.0000
  H   H1157     1.0  0.70586  0.03713  0.20580  1.0000
  N   N36       1.0  0.90688  0.44116  0.47562  1.0000
  H   H1158     1.0  0.89899  0.28823  0.18339  1.0000
  H   H1159     1.0  0.83637  0.33069  0.11719  1.0000
  C   C655      1.0  0.72320  0.01792  0.27533  1.0000
  C   C656      1.0  0.75559  0.48429  0.49422  1.0000
  H   H1160     1.0  0.90406  0.33549  0.10290  1.0000
  C   C657      1.0  0.75614  0.39543  0.30142  1.0000
  H   H1161     1.0  0.76501  0.05658  0.19642  1.0000
  H   H1162     1.0  0.83972  0.35060  0.16112  1.0000
  H   H1163     1.0  0.82348  0.47296  0.03121  1.0000
  H   H1164     1.0  0.68503  0.41382  0.33482  1.0000
  H   H1165     1.0  0.72090  0.40974  0.20038  1.0000
  H   H1166     1.0  0.90182  0.24554  0.15656  1.0000
  H   H1167     1.0  0.86711  0.28611  0.14999  1.0000
  S   S155      1.0  0.79751  0.13106  0.47638  1.0000
  H   H1168     1.0  0.71582  0.38678  0.28745  1.0000
  H   H1169     1.0  0.68373  0.43219  0.18263  1.0000
  H   H1170     1.0  0.92347  0.37657  0.40156  1.0000
  H   H1171     1.0  0.73494  0.00911  0.19934  1.0000
  H   H1172     1.0  0.88811  0.46015  0.42993  1.0000
  H   H1173     1.0  0.76315  0.00383  0.03103  1.0000
  H   H1174     1.0  0.96345  0.46725  0.42906  1.0000
  H   H1175     1.0  0.77521  0.25882  0.43855  1.0000
  C   C658      1.0  0.84339  0.33129  0.14759  1.0000
  H   H1176     1.0  0.88798  0.26725  0.07430  1.0000
  H   H1177     1.0  0.87323  0.32942  0.17647  1.0000
  H   H1178     1.0  0.90539  0.43219  0.39268  1.0000
  C   C659      1.0  0.91321  0.39154  0.38737  1.0000
  H   H1179     1.0  0.92100  0.40268  0.46812  1.0000
  H   H1180     1.0  0.84652  0.47472  0.47539  1.0000
  H   H1181     1.0  0.75946  0.00984  0.13945  1.0000
  H   H1182     1.0  0.74620  0.40571  0.24261  1.0000
  C   C660      1.0  0.86715  0.32770  0.14549  1.0000
  H   H1183     1.0  0.83628  0.31583  0.16636  1.0000
  H   H1184     1.0  0.89163  0.49494  0.48127  1.0000
  C   C661      1.0  0.66864  0.03830  0.11445  1.0000
  C   C662      1.0  0.90353  0.33852  0.02370  1.0000
  C   C663      1.0  0.94699  0.44846  0.47815  1.0000
  S   S156      1.0  0.92667  0.13411  0.99780  1.0000
  Fe  Fe78      1.0  0.83205  0.12239  0.47950  1.0000
  H   H1185     1.0  0.91468  0.21796  0.10128  1.0000
  C   C664      1.0  0.90850  0.29600  0.15829  1.0000
  C   C665      1.0  0.68149  0.41346  0.26923  1.0000
  C   C666      1.0  0.84689  0.03623  0.46604  1.0000
  C   C667      1.0  0.81893  0.03256  0.01961  1.0000
  H   H1186     1.0  0.90047  0.35791  0.03745  1.0000
  H   H1187     1.0  0.68203  0.40708  0.11938  1.0000
  H   H1188     1.0  0.74276  0.48263  0.47175  1.0000
  H   H1189     1.0  0.77505  0.46105  0.45373  1.0000
  C   C668      1.0  0.88684  0.45422  0.46177  1.0000
  C   C669      1.0  0.88005  0.47907  0.48510  1.0000
  S   S157      1.0  0.80043  0.38126  0.48610  1.0000
  H   H1190     1.0  0.67253  0.06378  0.20859  1.0000
  H   H1191     1.0  0.75342  0.37423  0.29669  1.0000
  C   C670      1.0  0.99575  0.47344  0.06656  1.0000
  H   H1192     1.0  0.78197  0.01597  0.17126  1.0000
  H   H1193     1.0  0.92476  0.46539  0.43536  1.0000
  H   H1194     1.0  0.87697  0.32076  0.05140  1.0000
  C   C671      1.0  0.92490  0.45924  0.46728  1.0000
  H   H1195     1.0  0.86183  0.44112  0.07495  1.0000
  C   C672      1.0  0.76882  0.02525  0.15452  1.0000
  C   C673      1.0  0.68819  0.41120  0.18282  1.0000
  H   H1196     1.0  0.97975  0.45853  0.47113  1.0000
  H   H1197     1.0  0.89303  0.20311  0.12684  1.0000
  C   C674      1.0  0.90924  0.41564  0.45336  1.0000
  H   H1198     1.0  0.87356  0.44022  0.46219  1.0000
  H   H1199     1.0  0.84686  0.05622  0.02853  1.0000
  C   C675      1.0  0.87304  0.47778  0.04969  1.0000
  H   H1200     1.0  0.81007  0.04928  0.00705  1.0000
  H   H1201     1.0  0.78851  0.49100  0.04569  1.0000
  H   H1202     1.0  0.98324  0.47994  0.08734  1.0000
  H   H1203     1.0  0.84559  0.02754  0.06011  1.0000
  H   H1204     1.0  0.88447  0.16994  0.48229  1.0000
  H   H1205     1.0  0.67394  0.39974  0.18996  1.0000
  H   H1206     1.0  0.83584  0.04167  0.44166  1.0000
  H   H1207     1.0  0.67165  0.00152  0.48046  1.0000
  H   H1208     1.0  0.73835  0.43834  0.48761  1.0000
  H   H1209     1.0  0.70872  0.41536  0.13136  1.0000
  H   H1210     1.0  0.86199  0.48906  0.06848  1.0000
  H   H1211     1.0  0.67988  0.44556  0.31316  1.0000
  H   H1212     1.0  0.88732  0.43890  0.05176  1.0000
  C   C676      1.0  0.86454  0.47407  0.00660  1.0000
  H   H1213     1.0  0.82648  0.00680  0.48871  1.0000
  H   H1214     1.0  0.75795  0.01212  0.22828  1.0000
  H   H1215     1.0  0.79008  0.47924  0.48985  1.0000
  H   H1216     1.0  0.67674  0.03514  0.14349  1.0000
  H   H1217     1.0  0.70856  0.00935  0.26268  1.0000
  H   H1218     1.0  0.75307  0.99969  0.29567  1.0000
  H   H1219     1.0  0.81084  0.05322  0.49558  1.0000
  C   C677      1.0  0.93194  0.02342  0.93970  1.0000
  S   S158      1.0  0.89197  0.45331  0.86694  1.0000
  C   C678      1.0  0.91426  0.43001  0.97589  1.0000
  H   H1220     1.0  0.86874  0.28324  0.57923  1.0000
  H   H1221     1.0  0.83139  0.02586  0.90701  1.0000
  H   H1222     1.0  0.83165  0.03710  0.59379  1.0000
  C   C679      1.0  0.84202  0.46375  0.93422  1.0000
  H   H1223     1.0  0.81835  0.22013  0.54097  1.0000
  S   S159      1.0  0.83018  0.42249  0.56415  1.0000
  C   C680      1.0  0.91269  0.47630  0.93089  1.0000
  H   H1224     1.0  0.85047  0.17648  0.68931  1.0000
  S   S160      1.0  0.88753  0.04857  0.79078  1.0000
  S   S161      1.0  0.83955  0.03188  0.81421  1.0000
  Fe  Fe79      1.0  0.85700  0.04190  0.75738  1.0000
  S   S162      1.0  0.83954  0.06975  0.71407  1.0000
  Fe  Fe80      1.0  0.87068  0.03485  0.84591  1.0000
  S   S163      1.0  0.87248  0.04594  0.91193  1.0000
  H   H1225     1.0  0.79341  0.05601  0.93960  1.0000
  H   H1226     1.0  0.81498  0.21234  0.59218  1.0000
  H   H1227     1.0  0.72904  0.46324  0.57659  1.0000
  S   S164      1.0  0.85179  0.10742  0.53261  1.0000
  H   H1228     1.0  0.81083  0.48601  0.98678  1.0000
  C   C681      1.0  0.88727  0.07103  0.93497  1.0000
  H   H1229     1.0  0.76542  0.03309  0.50995  1.0000
  H   H1230     1.0  0.92786  0.49395  0.98181  1.0000
  C   C682      1.0  0.84322  0.07964  0.66338  1.0000
  C   C683      1.0  0.82786  0.09550  0.64486  1.0000
  C   C684      1.0  0.83004  0.10397  0.60490  1.0000
  C   C685      1.0  0.84776  0.09688  0.58288  1.0000
  C   C686      1.0  0.86317  0.08118  0.60145  1.0000
  C   C687      1.0  0.86087  0.07244  0.64124  1.0000
  H   H1231     1.0  0.81417  0.10132  0.66167  1.0000
  H   H1232     1.0  0.81813  0.11622  0.59139  1.0000
  H   H1233     1.0  0.87703  0.07567  0.58492  1.0000
  H   H1234     1.0  0.87289  0.06040  0.65495  1.0000
  H   H1235     1.0  0.89551  0.09099  0.88079  1.0000
  C   C688      1.0  0.78875  0.18118  0.55555  1.0000
  H   H1236     1.0  0.85124  0.16754  0.54230  1.0000
  C   C689      1.0  0.89719  0.09054  0.91295  1.0000
  H   H1237     1.0  0.91235  0.49418  0.91370  1.0000
  H   H1238     1.0  0.84385  0.29738  0.59285  1.0000
  C   C690      1.0  0.85430  0.48668  0.65078  1.0000
  H   H1239     1.0  0.82097  0.06267  0.94825  1.0000
  C   C691      1.0  0.84349  0.47324  0.58308  1.0000
  C   C692      1.0  0.84006  0.44765  0.59618  1.0000
  C   C693      1.0  0.84388  0.44176  0.63669  1.0000
  C   C694      1.0  0.85114  0.46099  0.66367  1.0000
  S   S165      1.0  0.85457  0.49523  0.79979  1.0000
  H   H1240     1.0  0.84044  0.47825  0.55227  1.0000
  H   H1241     1.0  0.84132  0.42208  0.64732  1.0000
  H   H1242     1.0  0.85424  0.45591  0.69450  1.0000
  C   C695      1.0  0.90424  0.45347  0.91470  1.0000
  C   C696      1.0  0.90521  0.43028  0.93729  1.0000
  H   H1243     1.0  0.89886  0.41247  0.92492  1.0000
  H   H1244     1.0  0.88470  0.14614  0.52213  1.0000
  H   H1245     1.0  0.80528  0.01840  0.89329  1.0000
  H   H1246     1.0  0.91643  0.12510  0.91553  1.0000
  H   H1247     1.0  0.85252  0.23799  0.53084  1.0000
  N   N37       1.0  0.75200  0.46601  0.52898  1.0000
  H   H1248     1.0  0.84334  0.21047  0.63436  1.0000
  C   C697      1.0  0.85153  0.28191  0.57471  1.0000
  H   H1249     1.0  0.85462  0.15520  0.60393  1.0000
  H   H1250     1.0  0.82972  0.45748  0.95516  1.0000
  H   H1251     1.0  0.84559  0.46557  0.86994  1.0000
  H   H1252     1.0  0.78210  0.19767  0.53789  1.0000
  H   H1253     1.0  0.75343  0.38474  0.50397  1.0000
  H   H1254     1.0  0.96487  0.00132  0.88876  1.0000
  H   H1255     1.0  0.93740  0.01766  0.97006  1.0000
  C   C698      1.0  0.74414  0.41704  0.54273  1.0000
  C   C699      1.0  0.85712  0.16329  0.66622  1.0000
  H   H1256     1.0  0.69060  0.46798  0.57402  1.0000
  N   N38       1.0  0.81357  0.00641  0.95317  1.0000
  H   H1257     1.0  0.75801  0.47989  0.61477  1.0000
  C   C700      1.0  0.81517  0.02524  0.91861  1.0000
  H   H1258     1.0  0.77733  0.10466  0.59093  1.0000
  C   C701      1.0  0.73229  0.47513  0.54971  1.0000
  C   C702      1.0  0.85428  0.23296  0.56308  1.0000
  C   C703      1.0  0.74990  0.43870  0.51259  1.0000
  S   S166      1.0  0.86412  0.99970  0.74342  1.0000
  C   C704      1.0  0.80938  0.47421  0.74449  1.0000
  C   C705      1.0  0.83310  0.46172  0.89198  1.0000
  C   C706      1.0  0.88960  0.07077  0.97677  1.0000
  Fe  Fe81      1.0  0.89373  0.00563  0.77979  1.0000
  H   H1259     1.0  0.82627  0.25529  0.58294  1.0000
  H   H1260     1.0  0.79598  0.44271  0.61570  1.0000
  H   H1261     1.0  0.75753  0.41336  0.56326  1.0000
  H   H1262     1.0  0.96923  0.04017  0.98869  1.0000
  C   C707      1.0  0.81957  0.02243  0.58510  1.0000
  H   H1263     1.0  0.75765  0.44517  0.60753  1.0000
  C   C708      1.0  0.88840  0.41551  0.57976  1.0000
  C   C709      1.0  0.96737  0.01491  0.91427  1.0000
  H   H1264     1.0  0.98907  0.08194  0.98153  1.0000
  H   H1265     1.0  0.76673  0.11318  0.54263  1.0000
  H   H1266     1.0  0.78047  0.49415  0.75455  1.0000
  C   C710      1.0  0.90640  0.43550  0.51981  1.0000
  H   H1267     1.0  0.86890  0.20230  0.61908  1.0000
  C   C711      1.0  0.77063  0.09663  0.56284  1.0000
  H   H1268     1.0  0.84775  0.28569  0.54276  1.0000
  C   C712      1.0  0.79258  0.05531  0.57026  1.0000
  H   H1269     1.0  0.73573  0.37596  0.54338  1.0000
  C   C713      1.0  0.88125  0.18646  0.54219  1.0000
  H   H1270     1.0  0.85522  0.44953  0.93651  1.0000
  C   C714      1.0  0.81020  0.07052  0.88917  1.0000
  H   H1271     1.0  0.77804  0.04735  0.58380  1.0000
  C   C715      1.0  0.81986  0.04390  0.52019  1.0000
  C   C716      1.0  0.82296  0.20567  0.56445  1.0000
  H   H1272     1.0  0.87769  0.46596  0.98863  1.0000
  C   C717      1.0  0.92105  0.99912  0.92156  1.0000
  N   N39       1.0  0.80567  0.03348  0.55241  1.0000
  C   C718      1.0  0.80840  0.01370  0.62400  1.0000
  H   H1273     1.0  0.80113  0.06472  0.59544  1.0000
  C   C719      1.0  0.81255  0.17986  0.55067  1.0000
  C   C720      1.0  0.80941  0.05409  0.92723  1.0000
  H   H1274     1.0  0.87444  0.16532  0.66576  1.0000
  H   H1275     1.0  0.82967  0.05980  0.53268  1.0000
  H   H1276     1.0  0.83064  0.16623  0.62740  1.0000
  C   C721      1.0  0.90905  0.10983  0.93271  1.0000
  N   N40       1.0  0.84651  0.20552  0.57048  1.0000
  H   H1277     1.0  0.79744  0.47789  0.62076  1.0000
  H   H1278     1.0  0.80537  0.09093  0.89589  1.0000
  H   H1279     1.0  0.78159  0.16279  0.54468  1.0000
  Fe  Fe82      1.0  0.88563  0.49062  0.83134  1.0000
  H   H1280     1.0  0.77797  0.48753  0.55531  1.0000
  H   H1281     1.0  0.87238  0.42969  0.52775  1.0000
  H   H1282     1.0  0.82714  0.44167  0.88670  1.0000
  H   H1283     1.0  0.96728  0.00213  0.94121  1.0000
  H   H1284     1.0  0.75592  0.08605  0.56962  1.0000
  H   H1285     1.0  0.90727  0.45392  0.53742  1.0000
  H   H1286     1.0  0.90299  0.40499  0.58842  1.0000
  H   H1287     1.0  0.73001  0.42215  0.56020  1.0000
  C   C722      1.0  0.85044  0.49259  0.61023  1.0000
  H   H1288     1.0  0.84683  0.25278  0.61979  1.0000
  H   H1289     1.0  0.73450  0.49544  0.56098  1.0000
  H   H1290     1.0  0.87481  0.40367  0.58947  1.0000
  H   H1291     1.0  0.92055  0.42412  0.52883  1.0000
  C   C723      1.0  0.85696  0.18791  0.54024  1.0000
  H   H1292     1.0  0.81835  0.16256  0.56710  1.0000
  C   C724      1.0  0.77077  0.46774  0.55685  1.0000
  H   H1293     1.0  0.88216  0.05561  0.99403  1.0000
  H   H1294     1.0  0.93628  0.02252  0.85922  1.0000
  H   H1295     1.0  0.81591  0.17674  0.51855  1.0000
  C   C725      1.0  0.99006  0.02552  0.91139  1.0000
  H   H1296     1.0  0.88772  0.43460  0.59554  1.0000
  C   C726      1.0  0.85212  0.19806  0.61283  1.0000
  H   H1297     1.0  0.82006  0.47591  0.88743  1.0000
  N   N41       1.0  0.94975  0.03480  0.91585  1.0000
  C   C727      1.0  0.95601  0.06013  0.93565  1.0000
  C   C728      1.0  0.94146  0.04070  0.87446  1.0000
  C   C729      1.0  0.84350  0.25508  0.58743  1.0000
  H   H1298     1.0  0.78407  0.45855  0.65770  1.0000
  H   H1299     1.0  0.96508  0.10029  0.98931  1.0000
  C   C730      1.0  0.96062  0.05839  0.98114  1.0000
  H   H1300     1.0  0.77945  0.07188  0.51391  1.0000
  C   C731      1.0  0.95692  0.05339  0.84488  1.0000
  C   C732      1.0  0.94578  0.06108  0.80609  1.0000
  C   C733      1.0  0.78737  0.46051  0.62534  1.0000
  H   H1301     1.0  0.79948  0.06256  0.86600  1.0000
  C   C734      1.0  0.76682  0.46308  0.60205  1.0000
  H   H1302     1.0  0.94335  0.07503  0.93186  1.0000
  H   H1303     1.0  0.96978  0.06894  0.92095  1.0000
  H   H1304     1.0  0.85341  0.14280  0.67453  1.0000
  H   H1305     1.0  0.92726  0.05346  0.87650  1.0000
  H   H1306     1.0  0.91962  0.03846  0.94448  1.0000
  H   H1307     1.0  0.88679  0.18101  0.57249  1.0000
  H   H1308     1.0  0.78524  0.02326  0.97867  1.0000
  H   H1309     1.0  0.79939  0.02995  0.63775  1.0000
  C   C735      1.0  0.91151  0.10946  0.97449  1.0000
  C   C736      1.0  0.92158  0.47607  0.96949  1.0000
  C   C737      1.0  0.69287  0.48237  0.54961  1.0000
  H   H1310     1.0  0.67855  0.48256  0.53061  1.0000
  C   C738      1.0  0.71186  0.47495  0.52429  1.0000
  H   H1311     1.0  0.78456  0.18370  0.58746  1.0000
  H   H1312     1.0  0.96408  0.07134  0.85722  1.0000
  H   H1313     1.0  0.96938  0.03915  0.83685  1.0000
  H   H1314     1.0  0.95721  0.06967  0.78501  1.0000
  H   H1315     1.0  0.93869  0.04368  0.79166  1.0000
  H   H1316     1.0  0.93330  0.07580  0.81196  1.0000
  C   C739      1.0  0.88736  0.41956  0.53458  1.0000
  H   H1317     1.0  0.82643  0.07094  0.87730  1.0000
  C   C740      1.0  0.92235  0.45302  0.99230  1.0000
  H   H1318     1.0  0.87130  0.23444  0.56993  1.0000
  H   H1319     1.0  0.78340  0.45398  0.54716  1.0000
  C   C741      1.0  0.78637  0.07841  0.54255  1.0000
  C   C742      1.0  0.82433  0.00427  0.65515  1.0000
  C   C743      1.0  0.73956  0.39133  0.52123  1.0000
  H   H1320     1.0  0.82437  0.47673  0.72832  1.0000
  C   C744      1.0  0.84776  0.16943  0.62517  1.0000
  H   H1321     1.0  0.87830  0.47511  0.51744  1.0000
  C   C745      1.0  0.88985  0.16598  0.51327  1.0000
  H   H1322     1.0  0.99474  0.03491  0.93991  1.0000
  H   H1323     1.0  0.88708  0.39999  0.52036  1.0000
  C   C746      1.0  0.79087  0.00469  0.96545  1.0000
  H   H1324     1.0  0.80053  0.09005  0.53569  1.0000
  H   H1325     1.0  0.78071  0.00187  0.93863  1.0000
  H   H1326     1.0  0.89646  0.33842  0.99334  1.0000
  H   H1327     1.0  0.89380  0.00148  0.96041  1.0000
  C   C747      1.0  0.82810  0.01436  0.98684  1.0000
  H   H1328     1.0  0.81266  0.47262  0.77701  1.0000
  C   C748      1.0  0.85006  0.49178  0.94319  1.0000
  C   C749      1.0  0.79182  0.01188  0.53708  1.0000
  H   H1329     1.0  0.99174  0.04021  0.88741  1.0000
  H   H1330     1.0  0.88824  0.20546  0.53374  1.0000
  H   H1331     1.0  0.91170  0.00481  0.89495  1.0000
  H   H1332     1.0  0.84235  0.02388  0.97444  1.0000
  H   H1333     1.0  0.83548  0.02012  0.66280  1.0000
  H   H1334     1.0  0.94889  0.44742  0.51109  1.0000
  H   H1335     1.0  0.84697  0.01706  0.52261  1.0000
  C   C750      1.0  0.83504  0.02389  0.50071  1.0000
  H   H1336     1.0  0.86400  0.49398  0.92352  1.0000
  H   H1337     1.0  0.85261  0.19444  0.50961  1.0000
  H   H1338     1.0  0.80206  0.45571  0.73434  1.0000
  H   H1339     1.0  0.82832  0.00498  0.57433  1.0000
  H   H1340     1.0  0.91473  0.41212  0.99308  1.0000
  H   H1341     1.0  0.90724  0.16626  0.51383  1.0000
  H   H1342     1.0  0.78109  0.00518  0.56099  1.0000
  H   H1343     1.0  0.70888  0.45533  0.51149  1.0000
  H   H1344     1.0  0.81610  0.99850  0.68292  1.0000
  C   C751      1.0  0.77759  0.01875  0.50092  1.0000
  C   C752      1.0  0.79461  0.49718  0.73617  1.0000
  H   H1345     1.0  0.72606  0.39366  0.50044  1.0000
  H   H1346     1.0  0.79037  0.49633  0.70404  1.0000
  C   C753      1.0  0.90185  0.08969  0.99642  1.0000
  Fe  Fe83      1.0  0.82517  0.41164  0.49795  1.0000
  H   H1347     1.0  0.71263  0.48936  0.49960  1.0000
  C   C754      1.0  0.97343  0.08166  0.99589  1.0000
  H   H1348     1.0  0.76493  0.43220  0.49899  1.0000
  H   H1349     1.0  0.69452  0.78488  0.05488  1.0000
  H   H1350     1.0  0.68104  0.96872  0.48918  1.0000
  H   H1351     1.0  0.85476  0.50759  0.48594  1.0000
  C   C755      1.0  0.67164  0.64921  0.24593  1.0000
  C   C756      1.0  0.67005  0.86560  0.18685  1.0000
  H   H1352     1.0  0.78128  0.52054  0.45429  1.0000
  H   H1353     1.0  0.73840  0.98059  0.26055  1.0000
  H   H1354     1.0  0.68246  0.80195  0.11875  1.0000
  H   H1355     1.0  0.70505  0.57031  0.28077  1.0000
  H   H1356     1.0  0.69791  0.99000  0.13459  1.0000
  C   C757      1.0  0.70114  0.59900  0.23292  1.0000
  H   H1357     1.0  0.70363  0.56335  0.11518  1.0000
  H   H1358     1.0  0.68213  0.87135  0.10709  1.0000
  N   N42       1.0  0.66681  0.62584  0.21980  1.0000
  C   C758      1.0  0.77922  0.50133  0.43938  1.0000
  S   S167      1.0  0.67374  0.99224  0.20668  1.0000
  H   H1359     1.0  0.70029  0.67517  0.29625  1.0000
  C   C759      1.0  0.66678  0.98120  0.48722  1.0000
  H   H1360     1.0  0.67180  0.61094  0.16035  1.0000
  H   H1361     1.0  0.70993  0.69736  0.25892  1.0000
  H   H1362     1.0  0.67351  0.59920  0.26859  1.0000
  C   C760      1.0  0.68704  0.97389  0.13349  1.0000
  H   H1363     1.0  0.70866  0.49909  0.22087  1.0000
  C   C761      1.0  0.68691  0.56692  0.11526  1.0000
  H   H1364     1.0  0.69743  0.96084  0.07516  1.0000
  H   H1365     1.0  0.72467  0.81098  0.01561  1.0000
  C   C762      1.0  0.73709  0.99397  0.28659  1.0000
  C   C763      1.0  0.67342  0.62958  0.17698  1.0000
  C   C764      1.0  0.83717  0.50950  0.00789  1.0000
  H   H1366     1.0  0.71860  0.85173  0.08229  1.0000
  H   H1367     1.0  0.74480  0.82700  0.04420  1.0000
  H   H1368     1.0  0.69315  0.84362  0.13117  1.0000
  Fe  Fe84      1.0  0.66801  0.50548  0.31610  1.0000
  H   H1369     1.0  0.70155  0.55625  0.23166  1.0000
  C   C765      1.0  0.67863  0.85090  0.11629  1.0000
  H   H1370     1.0  0.72863  0.84581  0.01057  1.0000
  H   H1371     1.0  0.68273  0.69868  0.27307  1.0000
  S   S168      1.0  0.70310  0.49840  0.32788  1.0000
  H   H1372     1.0  0.68000  0.75253  0.10293  1.0000
  H   H1373     1.0  0.79723  0.98061  0.01905  1.0000
  C   C766      1.0  0.69121  0.66563  0.23510  1.0000
  H   H1374     1.0  0.69032  0.63427  0.17484  1.0000
  H   H1375     1.0  0.72572  0.99060  0.34773  1.0000
  H   H1376     1.0  0.76563  0.50245  0.41859  1.0000
  C   C767      1.0  0.72871  0.82920  0.03185  1.0000
  C   C768      1.0  0.71325  0.83416  0.06566  1.0000
  H   H1377     1.0  0.87764  0.52379  0.01654  1.0000
  H   H1378     1.0  0.68989  0.85937  0.03866  1.0000
  C   C769      1.0  0.67789  0.58217  0.08453  1.0000
  H   H1379     1.0  0.67322  0.64302  0.27772  1.0000
  H   H1380     1.0  0.68831  0.82675  0.02279  1.0000
  H   H1381     1.0  0.76010  0.96880  0.03206  1.0000
  S   S169      1.0  0.67216  0.91422  0.05638  1.0000
  H   H1382     1.0  0.70883  0.61410  0.25143  1.0000
  C   C770      1.0  0.67326  0.96988  0.16567  1.0000
  S   S170      1.0  0.67096  0.99540  0.32449  1.0000
  C   C771      1.0  0.67702  0.60136  0.23626  1.0000
  C   C772      1.0  0.70884  0.57253  0.24860  1.0000
  C   C773      1.0  0.69628  0.68539  0.26793  1.0000
  C   C774      1.0  0.76379  0.98577  0.01270  1.0000
  H   H1383     1.0  0.66936  0.78866  0.03236  1.0000
  C   C775      1.0  0.69059  0.83885  0.04988  1.0000
  H   H1384     1.0  0.68834  0.67680  0.20719  1.0000
  H   H1385     1.0  0.67577  0.88558  0.17993  1.0000
  H   H1386     1.0  0.80851  0.50947  0.07105  1.0000
  H   H1387     1.0  0.70530  0.65343  0.23034  1.0000
  C   C776      1.0  0.68679  0.95739  0.09962  1.0000
  H   H1388     1.0  0.68765  0.66748  0.12206  1.0000
  C   C777      1.0  0.67458  0.55637  0.14627  1.0000
  H   H1389     1.0  0.73810  0.96159  0.32836  1.0000
  H   H1390     1.0  0.68307  0.85392  0.20003  1.0000
  H   H1391     1.0  0.79602  0.52247  0.02653  1.0000
  H   H1392     1.0  0.70642  0.60056  0.20152  1.0000
  C   C778      1.0  0.67236  0.65829  0.11488  1.0000
  C   C779      1.0  0.72761  0.97825  0.32072  1.0000
  H   H1393     1.0  0.71216  0.97027  0.31167  1.0000
  C   C780      1.0  0.76614  0.99460  0.48548  1.0000
  C   C781      1.0  0.80193  0.50440  0.04129  1.0000
  H   H1394     1.0  0.67024  0.58382  0.22139  1.0000
  S   S171      1.0  0.69459  0.59573  0.04717  1.0000
  H   H1395     1.0  0.71405  0.81725  0.08632  1.0000
  H   H1396     1.0  0.72611  0.57104  0.24522  1.0000
  H   H1397     1.0  0.67515  0.64091  0.09573  1.0000
  H   H1398     1.0  0.67603  0.74317  0.05155  1.0000
  C   C782      1.0  0.67744  0.78503  0.06099  1.0000
  N   N43       1.0  0.67349  0.83435  0.08012  1.0000
  H   H1399     1.0  0.84217  0.51804  0.03693  1.0000
  C   C783      1.0  0.67291  0.93636  0.09765  1.0000
  C   C784      1.0  0.67157  0.75761  0.07488  1.0000
  H   H1400     1.0  0.68184  0.54475  0.16952  1.0000
  C   C785      1.0  0.67192  0.80605  0.09286  1.0000
  H   H1401     1.0  0.77752  0.97975  0.47461  1.0000
  H   H1402     1.0  0.83425  0.99689  0.00306  1.0000
  C   C786      1.0  0.70564  0.79627  0.93660  1.0000
  S   S172      1.0  0.88263  0.52865  0.86326  1.0000
  S   S173      1.0  0.86869  0.55498  0.77875  1.0000
  Fe  Fe85      1.0  0.89934  0.54589  0.81027  1.0000
  S   S174      1.0  0.92472  0.57497  0.82982  1.0000
  Fe  Fe86      1.0  0.85251  0.53459  0.82950  1.0000
  S   S175      1.0  0.82109  0.53996  0.86181  1.0000
  Fe  Fe87      1.0  0.68989  0.67392  0.94746  1.0000
  Fe  Fe88      1.0  0.72406  0.63529  0.92015  1.0000
  S   S176      1.0  0.70351  0.60061  0.93057  1.0000
  S   S177      1.0  0.75715  0.63463  0.89344  1.0000
  H   H1403     1.0  0.73821  0.52947  0.64799  1.0000
  S   S178      1.0  0.69888  0.65808  0.88711  1.0000
  C   C787      1.0  0.80556  0.57084  0.75231  1.0000
  S   S179      1.0  0.87867  0.99243  0.83641  1.0000
  H   H1404     1.0  0.82285  0.61884  0.72659  1.0000
  C   C788      1.0  0.70908  0.74848  0.93683  1.0000
  S   S180      1.0  0.82687  0.95524  0.81238  1.0000
  H   H1405     1.0  0.90697  0.94087  0.79988  1.0000
  H   H1406     1.0  0.89839  0.55169  0.94140  1.0000
  H   H1407     1.0  0.73374  0.77519  0.92075  1.0000
  S   S181      1.0  0.70279  0.89580  0.88244  1.0000
  Fe  Fe89      1.0  0.70389  0.86874  0.93579  1.0000
  Fe  Fe90      1.0  0.71600  0.92611  0.92425  1.0000
  S   S182      1.0  0.73988  0.95772  0.90728  1.0000
  S   S183      1.0  0.68387  0.94035  0.94360  1.0000
  C   C789      1.0  0.80201  0.95601  0.83650  1.0000
  C   C790      1.0  0.79092  0.97935  0.84226  1.0000
  C   C791      1.0  0.77176  0.97936  0.86319  1.0000
  C   C792      1.0  0.76322  0.95604  0.87819  1.0000
  C   C793      1.0  0.77401  0.93256  0.87144  1.0000
  C   C794      1.0  0.79327  0.93259  0.85075  1.0000
  H   H1408     1.0  0.94025  0.91322  0.79635  1.0000
  H   H1409     1.0  0.69968  0.78709  0.78942  1.0000
  H   H1410     1.0  0.76771  0.91445  0.88277  1.0000
  H   H1411     1.0  0.80160  0.91437  0.84621  1.0000
  C   C795      1.0  0.98103  0.95181  0.82262  1.0000
  C   C796      1.0  0.98320  0.96100  0.78357  1.0000
  C   C797      1.0  0.96619  0.97344  0.76416  1.0000
  C   C798      1.0  0.94697  0.97735  0.78376  1.0000
  C   C799      1.0  0.94498  0.96877  0.82320  1.0000
  C   C800      1.0  0.96190  0.95601  0.84243  1.0000
  S   S184      1.0  0.67151  0.87903  0.95595  1.0000
  H   H1412     1.0  0.89768  0.97022  0.93678  1.0000
  C   C801      1.0  0.91950  0.85014  0.73453  1.0000
  H   H1413     1.0  0.96010  0.94914  0.87275  1.0000
  C   C802      1.0  0.80405  0.56692  0.87147  1.0000
  C   C803      1.0  0.80864  0.59244  0.85951  1.0000
  C   C804      1.0  0.79417  0.61289  0.86675  1.0000
  C   C805      1.0  0.77496  0.60814  0.88596  1.0000
  C   C806      1.0  0.77048  0.58265  0.89817  1.0000
  C   C807      1.0  0.78494  0.56222  0.89096  1.0000
  H   H1414     1.0  0.82330  0.59647  0.84472  1.0000
  H   H1415     1.0  0.79786  0.63255  0.85735  1.0000
  H   H1416     1.0  0.75583  0.57868  0.91305  1.0000
  H   H1417     1.0  0.78120  0.54258  0.90037  1.0000
  C   C808      1.0  0.98872  0.59804  0.77677  1.0000
  C   C809      1.0  0.97259  0.58881  0.75177  1.0000
  C   C810      1.0  0.95332  0.58036  0.76767  1.0000
  C   C811      1.0  0.94975  0.58159  0.80881  1.0000
  C   C812      1.0  0.96592  0.59076  0.83384  1.0000
  C   C813      1.0  0.98543  0.59846  0.81805  1.0000
  H   H1418     1.0  0.97494  0.58838  0.71982  1.0000
  H   H1419     1.0  0.94100  0.57366  0.74796  1.0000
  H   H1420     1.0  0.96332  0.59190  0.86567  1.0000
  H   H1421     1.0  0.81823  0.52485  0.72314  1.0000
  H   H1422     1.0  0.83325  0.98711  0.64392  1.0000
  H   H1423     1.0  0.76476  0.52971  0.77250  1.0000
  H   H1424     1.0  0.75973  0.51730  0.70603  1.0000
  C   C814      1.0  0.69504  0.83959  0.82142  1.0000
  C   C815      1.0  0.99690  0.91000  0.69430  1.0000
  C   C816      1.0  0.86704  0.54478  0.96502  1.0000
  H   H1425     1.0  0.96724  0.64553  0.80066  1.0000
  C   C817      1.0  0.71385  0.84022  0.79209  1.0000
  C   C818      1.0  0.75380  0.53865  0.65214  1.0000
  H   H1426     1.0  0.96916  0.85111  0.76559  1.0000
  H   H1427     1.0  0.98851  0.92272  0.67253  1.0000
  C   C819      1.0  0.91054  0.83436  0.69973  1.0000
  C   C820      1.0  0.67628  0.76874  0.95529  1.0000
  H   H1428     1.0  0.85989  0.54178  0.93519  1.0000
  Fe  Fe91      1.0  0.87212  0.51483  0.75047  1.0000
  C   C821      1.0  0.95942  0.86583  0.78165  1.0000
  H   H1429     1.0  0.70644  0.79444  0.83976  1.0000
  H   H1430     1.0  0.70159  0.83981  0.85224  1.0000
  S   S185      1.0  0.71636  0.65353  0.97995  1.0000
  H   H1431     1.0  0.98242  0.69992  0.74426  1.0000
  H   H1432     1.0  0.98665  0.88997  0.79874  1.0000
  H   H1433     1.0  0.73500  0.58413  0.81682  1.0000
  H   H1434     1.0  0.80132  0.99431  0.52942  1.0000
  C   C822      1.0  0.66951  0.81990  0.77655  1.0000
  H   H1435     1.0  0.84074  0.98611  0.88732  1.0000
  H   H1436     1.0  0.70834  0.84286  0.76089  1.0000
  H   H1437     1.0  0.72332  0.82202  0.79381  1.0000
  H   H1438     1.0  0.69616  0.52186  0.97702  1.0000
  H   H1439     1.0  0.85283  0.51234  0.59978  1.0000
  H   H1440     1.0  0.84717  0.60491  0.70914  1.0000
  C   C823      1.0  0.99018  0.73162  0.81755  1.0000
  H   H1441     1.0  0.95515  0.91447  0.71027  1.0000
  H   H1442     1.0  0.91817  0.66525  0.79181  1.0000
  Fe  Fe92      1.0  0.67775  0.62445  0.90152  1.0000
  C   C824      1.0  0.82018  0.97968  0.93845  1.0000
  H   H1443     1.0  0.96798  0.76389  0.81032  1.0000
  H   H1444     1.0  0.97676  0.87715  0.68571  1.0000
  C   C825      1.0  0.69545  0.74275  0.83034  1.0000
  H   H1445     1.0  0.74186  0.86287  0.78052  1.0000
  H   H1446     1.0  0.75170  0.98691  0.98871  1.0000
  H   H1447     1.0  0.81658  0.57755  0.69046  1.0000
  N   N44       1.0  0.79160  0.54767  0.74393  1.0000
  H   H1448     1.0  0.80844  0.97187  0.91694  1.0000
  H   H1449     1.0  0.66664  0.76338  0.81933  1.0000
  Fe  Fe93      1.0  0.68635  0.91090  0.99325  1.0000
  C   C826      1.0  0.82301  0.57632  0.72122  1.0000
  H   H1450     1.0  0.66508  0.98810  0.55049  1.0000
  H   H1451     1.0  0.79752  0.99733  0.61800  1.0000
  Fe  Fe94      1.0  0.69398  0.61981  0.98856  1.0000
  C   C827      1.0  0.78553  0.98213  0.99456  1.0000
  H   H1452     1.0  0.84032  0.60229  0.76111  1.0000
  H   H1453     1.0  0.96966  0.91621  0.75501  1.0000
  H   H1454     1.0  0.68833  0.94109  0.66340  1.0000
  H   H1455     1.0  0.97823  0.75990  0.86060  1.0000
  S   S186      1.0  0.67672  0.71508  0.95900  1.0000
  S   S187      1.0  0.71919  0.89841  0.97655  1.0000
  H   H1456     1.0  0.94720  0.64986  0.86152  1.0000
  S   S188      1.0  0.66700  0.64133  0.96003  1.0000
  H   H1457     1.0  0.88700  0.51044  0.97110  1.0000
  H   H1458     1.0  0.93029  0.97157  0.83860  1.0000
  H   H1459     1.0  0.92268  0.82113  0.68709  1.0000
  H   H1460     1.0  0.86423  0.94898  0.89715  1.0000
  H   H1461     1.0  0.99159  0.87672  0.73153  1.0000
  H   H1462     1.0  0.83049  0.52623  0.99070  1.0000
  C   C828      1.0  0.91762  0.91732  0.74941  1.0000
  H   H1463     1.0  0.90656  0.86225  0.74668  1.0000
  C   C829      1.0  0.93811  0.86725  0.72068  1.0000
  H   H1464     1.0  0.88983  0.91410  0.78689  1.0000
  H   H1465     1.0  0.99031  0.65070  0.86068  1.0000
  H   H1466     1.0  0.96065  0.71464  0.80198  1.0000
  C   C830      1.0  0.96192  0.66576  0.80768  1.0000
  H   H1467     1.0  0.67144  0.93216  0.70414  1.0000
  C   C831      1.0  0.78154  0.55110  0.70331  1.0000
  H   H1468     1.0  0.89065  0.94297  0.75613  1.0000
  Fe  Fe95      1.0  0.84835  0.99031  0.80194  1.0000
  H   H1469     1.0  0.69418  0.55642  0.98546  1.0000
  S   S189      1.0  0.86243  0.51229  0.68384  1.0000
  H   H1470     1.0  0.89729  0.82227  0.71036  1.0000
  C   C832      1.0  0.96341  0.90217  0.73285  1.0000
  H   H1471     1.0  0.92460  0.83609  0.75789  1.0000
  H   H1472     1.0  0.67343  0.81689  0.87950  1.0000
  C   C833      1.0  0.68487  0.79372  0.94894  1.0000
  H   H1473     1.0  0.97124  0.84769  0.85672  1.0000
  C   C834      1.0  0.67252  0.94402  0.67644  1.0000
  H   H1474     1.0  0.75285  0.55917  0.64137  1.0000
  C   C835      1.0  0.75994  0.53792  0.69630  1.0000
  C   C836      1.0  0.90025  0.92946  0.77478  1.0000
  H   H1475     1.0  0.97361  0.67395  0.88428  1.0000
  H   H1476     1.0  0.93864  0.68263  0.84912  1.0000
  H   H1477     1.0  0.92796  0.63264  0.80185  1.0000
  H   H1478     1.0  0.79616  0.58916  0.75389  1.0000
  H   H1479     1.0  0.93269  0.87962  0.69524  1.0000
  H   H1480     1.0  0.91123  0.64870  0.83739  1.0000
  C   C837      1.0  0.99222  0.68215  0.74841  1.0000
  C   C838      1.0  0.83395  0.60220  0.73017  1.0000
  H   H1481     1.0  0.73189  0.55345  0.79097  1.0000
  H   H1482     1.0  0.68750  0.72564  0.84382  1.0000
  H   H1483     1.0  0.81326  0.56864  0.78209  1.0000
  H   H1484     1.0  0.69077  0.54333  0.93556  1.0000
  C   C839      1.0  0.87274  0.51849  0.98570  1.0000
  H   H1485     1.0  0.90461  0.84762  0.67589  1.0000
  N   N45       1.0  0.94830  0.88375  0.75256  1.0000
  C   C840      1.0  0.68834  0.74596  0.94952  1.0000
  H   H1486     1.0  0.81320  0.52203  0.77504  1.0000
  H   H1487     1.0  0.71066  0.74544  0.84605  1.0000
  H   H1488     1.0  0.92662  0.93353  0.73587  1.0000
  H   H1489     1.0  0.69839  0.73853  0.79832  1.0000
  S   S190      1.0  0.71716  0.82733  0.92788  1.0000
  C   C841      1.0  0.93231  0.89974  0.77515  1.0000
  H   H1490     1.0  0.77894  0.57225  0.69678  1.0000
  C   C842      1.0  0.71765  0.77351  0.93041  1.0000
  C   C843      1.0  0.69281  0.79188  0.81905  1.0000
  C   C844      1.0  0.77581  0.54602  0.77729  1.0000
  C   C845      1.0  0.76272  0.57120  0.78497  1.0000
  C   C846      1.0  0.74292  0.56546  0.80884  1.0000
  H   H1491     1.0  0.78386  0.54111  0.80595  1.0000
  H   H1492     1.0  0.94981  0.85361  0.70744  1.0000
  H   H1493     1.0  0.68670  0.85857  0.81762  1.0000
  H   H1494     1.0  0.85218  0.94100  0.94415  1.0000
  H   H1495     1.0  0.99486  0.73211  0.78570  1.0000
  H   H1496     1.0  0.77216  0.58528  0.80262  1.0000
  H   H1497     1.0  0.75807  0.58097  0.75670  1.0000
  N   N46       1.0  0.68011  0.81697  0.81665  1.0000
  H   H1498     1.0  0.79248  0.54409  0.67972  1.0000
  N   N47       1.0  0.98015  0.68214  0.82201  1.0000
  H   H1499     1.0  0.68106  0.81726  0.75213  1.0000
  H   H1500     1.0  0.74753  0.54837  0.71315  1.0000
  H   H1501     1.0  0.89344  0.56664  0.98942  1.0000
  H   H1502     1.0  0.75635  0.98593  0.50935  1.0000
  C   C847      1.0  0.80536  0.52356  0.74526  1.0000
  H   H1503     1.0  0.96458  0.89331  0.83159  1.0000
  H   H1504     1.0  0.94783  0.85421  0.79870  1.0000
  H   H1505     1.0  0.99284  0.86954  0.86453  1.0000
  H   H1506     1.0  0.93270  0.98402  0.91281  1.0000
  H   H1507     1.0  0.95553  0.67362  0.77911  1.0000
  C   C848      1.0  0.97364  0.87931  0.81313  1.0000
  H   H1508     1.0  0.76347  0.99760  0.86777  1.0000
  C   C849      1.0  0.98223  0.88927  0.71111  1.0000
  C   C850      1.0  0.66475  0.81828  0.85073  1.0000
  C   C851      1.0  0.84937  0.94966  0.91420  1.0000
  H   H1509     1.0  0.83518  0.56083  0.72171  1.0000
  H   H1510     1.0  0.92251  0.88695  0.79429  1.0000
  Fe  Fe96      1.0  0.67111  0.90787  0.90520  1.0000
  H   H1511     1.0  0.96568  0.71429  0.85382  1.0000
  H   H1512     1.0  0.74690  0.55497  0.83692  1.0000
  H   H1513     1.0  0.72009  0.88190  0.79875  1.0000
  H   H1514     1.0  0.67183  0.94528  0.59328  1.0000
  H   H1515     1.0  0.76543  0.52773  0.63395  1.0000
  C   C852      1.0  0.72850  0.86292  0.80165  1.0000
  C   C853      1.0  0.88644  0.56184  0.95991  1.0000
  C   C854      1.0  0.92398  0.65183  0.81548  1.0000
  C   C855      1.0  0.98209  0.75887  0.82833  1.0000
  H   H1516     1.0  0.71856  0.73115  0.93218  1.0000
  H   H1517     1.0  0.73488  0.86103  0.83248  1.0000
  H   H1518     1.0  0.82053  0.96547  0.96359  1.0000
  H   H1519     1.0  0.99443  0.77355  0.82210  1.0000
  H   H1520     1.0  0.90990  0.90631  0.72505  1.0000
  H   H1521     1.0  0.98320  0.66512  0.73711  1.0000
  H   H1522     1.0  0.79715  0.99740  0.83060  1.0000
  C   C856      1.0  0.94311  0.66333  0.83660  1.0000
  H   H1523     1.0  0.75545  0.50497  0.50473  1.0000
  H   H1524     1.0  0.69484  0.50218  0.56267  1.0000
  C   C857      1.0  0.97317  0.71042  0.82441  1.0000
  S   S191      1.0  0.90386  0.50707  0.77939  1.0000
  C   C858      1.0  0.98665  0.67201  0.86261  1.0000
  H   H1525     1.0  0.78540  0.96324  0.97811  1.0000
  H   H1526     1.0  0.88200  0.58033  0.94462  1.0000
  C   C859      1.0  0.98349  0.85924  0.84141  1.0000
  H   H1527     1.0  0.85571  0.55600  0.98344  1.0000
  H   H1528     1.0  0.67538  0.81100  0.95291  1.0000
  H   H1529     1.0  0.67041  0.96490  0.68465  1.0000
  H   H1530     1.0  0.83755  0.93782  0.89791  1.0000
  C   C860      1.0  0.90581  0.98691  0.95117  1.0000
  H   H1531     1.0  0.67831  0.76927  0.86722  1.0000
  H   H1532     1.0  0.99409  0.84584  0.82481  1.0000
  H   H1533     1.0  0.96795  0.98014  0.73372  1.0000
  C   C861      1.0  0.84189  0.97798  0.91799  1.0000
  S   S192      1.0  0.92580  0.99202  0.75710  1.0000
  C   C862      1.0  0.68777  0.53995  0.96780  1.0000
  H   H1534     1.0  0.91430  0.97964  0.97800  1.0000
  C   C863      1.0  0.68164  0.76706  0.83487  1.0000
  H   H1535     1.0  0.85395  0.98905  0.93481  1.0000
  H   H1536     1.0  0.83828  0.50603  0.93147  1.0000
  N   N48       1.0  0.85573  0.49808  0.98614  1.0000
  C   C864      1.0  0.66435  0.53697  0.97536  1.0000
