data_image0
_chemical_formula_structural       H2FeSHFeS2FeSFeS3HS2H3CHC4HCH2FeH5C2SC7H4C6SH3NC12H20CH7C2H2CH2CH3C2H3NH9CH5CH2C2H2CH2CHCHCHNH3CHC2H3CH2CH4FeH2CH2CHSH2CH2CNC2HCHSH2C3H2CHCNH2CH7CH2C2FeHCHSH2C2H2CHCH2CH3CSHFeS2FeHFeSCSH4SC7H4CH2CH2SH3C6H4C3HC2FeCH2NC11H26CHS2H3CH2SC2SHSCHNCH3CH3CSH6SH2C3H4CH3CHCHCSHCNH4CHNHCHC2H2C2HCSCHCHCH2CH2FeH3CHFeCH5CHCH2C2H2FeH2C2HCH2C2NH6FeSHFeS2FeSFeS3FeS2FeH3CFeS3CHSHSHC5H6C4H5C6H4C6H4CNC7HC2H13CH5FeH2SH5SH2CHC3H2CH3CH3CH2C3HCHCH2CHCHCH2C2H7CH4CH4CH2C2HFeHCH2CH2CHCH3NH2NCH2CHC2H5CH3C2H4NH2CH2FeSH2C2SHSFeSFe2S2FeSFeS2HFeS2FeCHCSFeS3HCSFeS2C6H4C5H3CHC6H4C6H5NC2HC3HC4H32CH3C3H5CH3CHC2HC5SH3SCH3CHCSCHCHC3HCH2C2H4CH7C2HSCSH7CH3CH7NHSH5FeHN2HCH3CH3SH5CH2C3H2C2FeCH2CH3SCH2CH4C4H4FeS2H2CFeSCSFeHSFeS2H2SHS2H2C3HCH3C2HSCSFeH2C7H4C6H4NCH3CHSC2H3CH3FeH2CFeCH3CFeH2C2HC2H15CH2CH7CFeHC2H3C2H3CH2SNC2HCHSH6CSCFeH2CHC3HCH5CH6FeHCH6S2H2CHCHCH5SHFeCNH3CHSCFeS2H2CFeSHSH2SH4CH4C4H4CH3C2HC2H3C6H4C6H2CH3NCH3C2H2CHC3H2C3HCH6CHCHCHCHC3HC3H3C2HC2H3FeC2H5C3H2CFeHCHCHCSH2NH5SC2HC3H4SH13SH2CHCH2CH5CH2CH2CHCHFeS2FeSHSH2CHCH4SFeSHC6H4C6H5CH2C5HC4H4CNHC2HCHC4HCHCH7CH4SCH5NH2NC5H6SC2H3NH6CH10FeCH3C4SHC2H2CSHCH5C2H3CHCHCH3C2HCH4CH5CH2CH2CH2CH3CFeH8CFeS2FeSHSCHS2FeS2NCSH3C6H4C6H4C5H4C7HCH8CHCH4CH2CHC2HN2H8CHCHC4H4FeH2CH3CH4CH2C2H6SH5CH3C2SHFeH3CHC2H2CH7SH2NCHCH11CFeC4HC2H2CHCHC2FeCH4CH6SCH2CHCH5CHFeS2C2H3FeSNSFeS2FeSFe2SFeS3FeS2H2SC6H4CHC4HCH2C6H4C6H5CH3CHCH2CH3CH3CH2C2H4C2H3FeNCH13CHCH3CH2SCH3CH5CH4CH2CHCH4NC12H18FeH2CH3C2H3SHSH6CH2SH2CHCH2CH7CHSH4C2H2CH3CH5C2H3NFeC2H2CHCH4CH2C2H2FeS2HS2FeHFeSHSFeS2FeSHFeSFeS3HS2H2SCH2C3H4CHC4H4C6H3C7H4CHC2H3C3H2CHC2HNH2C2H2CHNC12H28CHC2H4CHC2H2CH2CHSH4SHCH2SHSCHFeH3C3HCHCH4CH3C5H2NH4CHC2H5CH5CHCH2CHNH4Fe2CSHFeS2FeHCFeSCHS3H7C2H2SH2C7H3C7H2CHC6H5CHCH3CH8CSH3CH2CH2CH4CHNC12H23CNH4NH2C2SH9SCH2CHCHCNH2CHC2NH2SH4C3HCHCHCHCSH2C3H2CH4Fe2H5CHNH2CH4C2HFeC2H2C2HFeS2FeH2FeSHNS5HSC2HC2H3SH2C6H4C4H4C8H10FeC2HSH2CH2CH4NC8H2C2H3SH11CH7SHCH2NC12H17C2H8CHSHCHCFeC2HC2HC2H4C2H4FeH5SH6CHCHSH6CH4C2HC
_chemical_formula_sum              "H1536 Fe96 S192 C864 N48"
_cell_length_a       39.8764
_cell_length_b       40.1158
_cell_length_c       33.5474
_cell_angle_alpha    90.6951
_cell_angle_beta     89.9448
_cell_angle_gamma    90.6322

_space_group_name_H-M_alt    "P 1"
_space_group_IT_number       1

loop_
  _space_group_symop_operation_xyz
  'x, y, z'

loop_
  _atom_site_type_symbol
  _atom_site_label
  _atom_site_symmetry_multiplicity
  _atom_site_fract_x
  _atom_site_fract_y
  _atom_site_fract_z
  _atom_site_occupancy
  H   H1        1.0  0.03654  0.04225  0.40340  1.0000
  H   H2        1.0  0.33349  0.49805  0.28800  1.0000
  Fe  Fe1       1.0  0.15481  0.31000  0.06180  1.0000
  S   S1        1.0  0.15991  0.35873  0.09565  1.0000
  H   H3        1.0  0.17122  0.09813  0.44879  1.0000
  Fe  Fe2       1.0  0.09776  0.28431  0.11507  1.0000
  S   S2        1.0  0.09888  0.33110  0.15208  1.0000
  S   S3        1.0  0.05552  0.24895  0.13251  1.0000
  Fe  Fe3       1.0  0.10346  0.35886  0.09461  1.0000
  S   S4        1.0  0.06730  0.40135  0.08396  1.0000
  Fe  Fe4       1.0  0.15475  0.32622  0.14954  1.0000
  S   S5        1.0  0.18171  0.32861  0.20855  1.0000
  S   S6        1.0  0.09856  0.31232  0.05746  1.0000
  S   S7        1.0  0.15364  0.27738  0.11598  1.0000
  H   H4        1.0  0.07358  0.49255  0.30111  1.0000
  S   S8        1.0  0.08695  0.11186  0.21801  1.0000
  S   S9        1.0  0.05410  0.08315  0.32182  1.0000
  H   H5        1.0  0.22005  0.25936  0.05658  1.0000
  H   H6        1.0  0.29635  0.30703  0.06714  1.0000
  H   H7        1.0  0.11710  0.49263  0.09037  1.0000
  C   C1        1.0  0.06473  0.21126  0.15691  1.0000
  H   H8        1.0  0.29542  0.36648  0.42885  1.0000
  C   C2        1.0  0.04614  0.16494  0.19861  1.0000
  C   C3        1.0  0.07752  0.14999  0.19463  1.0000
  C   C4        1.0  0.10239  0.16582  0.17172  1.0000
  C   C5        1.0  0.09623  0.19655  0.15342  1.0000
  H   H9        1.0  0.35091  0.36274  0.12700  1.0000
  C   C6        1.0  0.33282  0.46971  0.21452  1.0000
  H   H10       1.0  0.12658  0.15422  0.16806  1.0000
  H   H11       1.0  0.11556  0.20837  0.13571  1.0000
  Fe  Fe5       1.0  0.04664  0.02763  0.31726  1.0000
  H   H12       1.0  0.29723  0.34065  0.10219  1.0000
  H   H13       1.0  0.26524  0.33809  0.01743  1.0000
  H   H14       1.0  0.21107  0.22000  0.46082  1.0000
  H   H15       1.0  0.35005  0.04774  0.03686  1.0000
  H   H16       1.0  0.27765  0.02953  0.45608  1.0000
  C   C7        1.0  0.32259  0.35437  0.50812  1.0000
  C   C8        1.0  0.04162  0.40936  0.35573  1.0000
  S   S10       1.0  0.06673  0.48638  0.41675  1.0000
  C   C9        1.0  0.30075  0.38933  0.37185  1.0000
  C   C10       1.0  0.29309  0.35609  0.21118  1.0000
  C   C11       1.0  0.27926  0.33561  0.24044  1.0000
  C   C12       1.0  0.24512  0.32694  0.23903  1.0000
  C   C13       1.0  0.22490  0.33779  0.20768  1.0000
  C   C14       1.0  0.23897  0.35743  0.17766  1.0000
  C   C15       1.0  0.27295  0.36700  0.17978  1.0000
  H   H17       1.0  0.29465  0.32724  0.26483  1.0000
  H   H18       1.0  0.23438  0.31203  0.26252  1.0000
  H   H19       1.0  0.22345  0.36611  0.15358  1.0000
  H   H20       1.0  0.28360  0.38296  0.15719  1.0000
  C   C16       1.0  0.31331  0.26820  0.38913  1.0000
  C   C17       1.0  0.30482  0.25564  0.42675  1.0000
  C   C18       1.0  0.07616  0.42927  0.04471  1.0000
  C   C19       1.0  0.25576  0.29093  0.42974  1.0000
  C   C20       1.0  0.26429  0.30351  0.39213  1.0000
  C   C21       1.0  0.29306  0.29234  0.37195  1.0000
  S   S11       1.0  0.33526  0.36888  0.21411  1.0000
  H   H21       1.0  0.30838  0.25323  0.18630  1.0000
  H   H22       1.0  0.24844  0.32185  0.37843  1.0000
  H   H23       1.0  0.29925  0.30191  0.34281  1.0000
  N   N1        1.0  0.15828  0.23015  0.26403  1.0000
  C   C22       1.0  0.16251  0.23967  0.30741  1.0000
  C   C23       1.0  0.14933  0.19361  0.26116  1.0000
  C   C24       1.0  0.19077  0.23766  0.24262  1.0000
  C   C25       1.0  0.13076  0.24986  0.24478  1.0000
  C   C26       1.0  0.09560  0.24700  0.26440  1.0000
  C   C27       1.0  0.16562  0.27758  0.31669  1.0000
  C   C28       1.0  0.19381  0.22370  0.19941  1.0000
  C   C29       1.0  0.17587  0.16935  0.27755  1.0000
  C   C30       1.0  0.16535  0.13310  0.26974  1.0000
  C   C31       1.0  0.07172  0.27270  0.24734  1.0000
  C   C32       1.0  0.17265  0.28390  0.36095  1.0000
  C   C33       1.0  0.22578  0.23663  0.17945  1.0000
  H   H24       1.0  0.18551  0.22807  0.31962  1.0000
  H   H25       1.0  0.14159  0.22935  0.32566  1.0000
  H   H26       1.0  0.12575  0.18826  0.27778  1.0000
  H   H27       1.0  0.14370  0.18643  0.22982  1.0000
  H   H28       1.0  0.21268  0.22860  0.25978  1.0000
  H   H29       1.0  0.19480  0.26502  0.24090  1.0000
  H   H30       1.0  0.13801  0.27668  0.24299  1.0000
  H   H31       1.0  0.12710  0.24182  0.21325  1.0000
  H   H32       1.0  0.09657  0.25110  0.29708  1.0000
  H   H33       1.0  0.08453  0.22190  0.25834  1.0000
  H   H34       1.0  0.18642  0.28909  0.29960  1.0000
  H   H35       1.0  0.14211  0.29065  0.30921  1.0000
  H   H36       1.0  0.17239  0.23113  0.18071  1.0000
  H   H37       1.0  0.19480  0.19607  0.19923  1.0000
  H   H38       1.0  0.20073  0.17328  0.26347  1.0000
  H   H39       1.0  0.17867  0.17273  0.31027  1.0000
  H   H40       1.0  0.24992  0.13899  0.47940  1.0000
  H   H41       1.0  0.14086  0.12752  0.28420  1.0000
  H   H42       1.0  0.16307  0.12808  0.23719  1.0000
  H   H43       1.0  0.08066  0.29840  0.25454  1.0000
  C   C34       1.0  0.31597  0.51842  0.29508  1.0000
  H   H44       1.0  0.12159  0.45894  0.25680  1.0000
  H   H45       1.0  0.15186  0.27399  0.37958  1.0000
  H   H46       1.0  0.19647  0.27198  0.36991  1.0000
  H   H47       1.0  0.17515  0.31112  0.36688  1.0000
  H   H48       1.0  0.22525  0.26424  0.17705  1.0000
  H   H49       1.0  0.24813  0.22940  0.19690  1.0000
  H   H50       1.0  0.22784  0.22585  0.14890  1.0000
  C   C35       1.0  0.23479  0.26357  0.02999  1.0000
  C   C36       1.0  0.03638  0.45866  0.18863  1.0000
  H   H51       1.0  0.23603  0.49713  0.19326  1.0000
  H   H52       1.0  0.22025  0.05226  0.49909  1.0000
  C   C37       1.0  0.03970  0.19530  0.17949  1.0000
  H   H53       1.0  0.22803  0.19150  0.42425  1.0000
  H   H54       1.0  0.32688  0.44970  0.23593  1.0000
  C   C38       1.0  0.31345  0.35326  0.04251  1.0000
  H   H55       1.0  0.07044  0.40427  0.28265  1.0000
  H   H56       1.0  0.09117  0.43653  0.31046  1.0000
  H   H57       1.0  0.04357  0.38306  0.34533  1.0000
  C   C39       1.0  0.31527  0.24152  0.15731  1.0000
  C   C40       1.0  0.24759  0.44392  0.24029  1.0000
  H   H58       1.0  0.07211  0.49739  0.08740  1.0000
  H   H59       1.0  0.32043  0.23695  0.44015  1.0000
  H   H60       1.0  0.29784  0.22031  0.15118  1.0000
  N   N2        1.0  0.27816  0.50117  0.23406  1.0000
  H   H61       1.0  0.35707  0.47193  0.15610  1.0000
  H   H62       1.0  0.16457  0.42571  0.21572  1.0000
  H   H63       1.0  0.03162  0.33200  0.48421  1.0000
  H   H64       1.0  0.10332  0.46807  0.21038  1.0000
  H   H65       1.0  0.28398  0.31552  0.50829  1.0000
  H   H66       1.0  0.28711  0.47281  0.17978  1.0000
  H   H67       1.0  0.34279  0.34012  0.39792  1.0000
  H   H68       1.0  0.14180  0.43433  0.17019  1.0000
  H   H69       1.0  0.14980  0.39207  0.18418  1.0000
  C   C41       1.0  0.31412  0.38267  0.41372  1.0000
  H   H70       1.0  0.31087  0.51008  0.18357  1.0000
  H   H71       1.0  0.22380  0.12781  0.43826  1.0000
  H   H72       1.0  0.35049  0.40667  0.47963  1.0000
  H   H73       1.0  0.06432  0.41628  0.37326  1.0000
  H   H74       1.0  0.16608  0.04670  0.49374  1.0000
  C   C42       1.0  0.11068  0.41582  0.21899  1.0000
  H   H75       1.0  0.04037  0.41426  0.22454  1.0000
  H   H76       1.0  0.26323  0.37313  0.05150  1.0000
  C   C43       1.0  0.28378  0.04304  0.48431  1.0000
  C   C44       1.0  0.17297  0.10055  0.48190  1.0000
  H   H77       1.0  0.12871  0.41791  0.04143  1.0000
  H   H78       1.0  0.10403  0.51937  0.25018  1.0000
  C   C45       1.0  0.27630  0.26717  0.44718  1.0000
  H   H79       1.0  0.11973  0.04056  0.36304  1.0000
  H   H80       1.0  0.15821  0.12290  0.49046  1.0000
  C   C46       1.0  0.03920  0.44169  0.22964  1.0000
  H   H81       1.0  0.22402  0.42721  0.29556  1.0000
  C   C47       1.0  0.23879  0.41681  0.27031  1.0000
  H   H82       1.0  0.07170  0.51417  0.21348  1.0000
  C   C48       1.0  0.26725  0.07727  0.48525  1.0000
  H   H83       1.0  0.22369  0.45215  0.22693  1.0000
  N   N3        1.0  0.20923  0.10503  0.49412  1.0000
  H   H84       1.0  0.27735  0.09156  0.45963  1.0000
  H   H85       1.0  0.31147  0.04598  0.48617  1.0000
  H   H86       1.0  0.09300  0.50077  0.13484  1.0000
  C   C49       1.0  0.34737  0.33793  0.47811  1.0000
  H   H87       1.0  0.26195  0.40521  0.28192  1.0000
  C   C50       1.0  0.31190  0.32857  0.07778  1.0000
  C   C51       1.0  0.30124  0.48882  0.20145  1.0000
  H   H88       1.0  0.11892  0.06435  0.45002  1.0000
  H   H89       1.0  0.29915  0.50978  0.31940  1.0000
  H   H90       1.0  0.22276  0.06749  0.45027  1.0000
  C   C52       1.0  0.24750  0.51556  0.21436  1.0000
  H   H91       1.0  0.27558  0.40080  0.37398  1.0000
  H   H92       1.0  0.03473  0.41048  0.50420  1.0000
  C   C53       1.0  0.03754  0.43263  0.32036  1.0000
  H   H93       1.0  0.03465  0.49295  0.27562  1.0000
  H   H94       1.0  0.26329  0.43241  0.21665  1.0000
  H   H95       1.0  0.27010  0.25757  0.47627  1.0000
  H   H96       1.0  0.27480  0.23093  0.04743  1.0000
  Fe  Fe6       1.0  0.04909  0.08272  0.25494  1.0000
  H   H97       1.0  0.24933  0.48385  0.28431  1.0000
  H   H98       1.0  0.36122  0.28614  0.14303  1.0000
  C   C54       1.0  0.34831  0.36492  0.41168  1.0000
  H   H99       1.0  0.31591  0.40700  0.42955  1.0000
  H   H100      1.0  0.28667  0.27645  0.12377  1.0000
  C   C55       1.0  0.05053  0.44923  0.02939  1.0000
  H   H101      1.0  0.11395  0.39768  0.24335  1.0000
  S   S12       1.0  0.21901  0.30521  0.45350  1.0000
  H   H102      1.0  0.33306  0.43413  0.16476  1.0000
  H   H103      1.0  0.22339  0.39707  0.25549  1.0000
  C   C56       1.0  0.22846  0.07432  0.48190  1.0000
  H   H104      1.0  0.30537  0.37182  0.49344  1.0000
  H   H105      1.0  0.09122  0.40612  0.19814  1.0000
  C   C57       1.0  0.20499  0.16776  0.47596  1.0000
  N   N4        1.0  0.34519  0.31669  0.09352  1.0000
  C   C58       1.0  0.06843  0.43085  0.29208  1.0000
  C   C59       1.0  0.26632  0.47348  0.26093  1.0000
  H   H106      1.0  0.33321  0.31868  0.46050  1.0000
  C   C60       1.0  0.27830  0.36115  0.02752  1.0000
  H   H107      1.0  0.07164  0.32786  0.50845  1.0000
  S   S13       1.0  0.34898  0.25281  0.36419  1.0000
  H   H108      1.0  0.11267  0.44193  0.49489  1.0000
  H   H109      1.0  0.04221  0.27340  0.50019  1.0000
  C   C61       1.0  0.26582  0.24759  0.02480  1.0000
  C   C62       1.0  0.22475  0.19620  0.45671  1.0000
  C   C63       1.0  0.34994  0.45315  0.17871  1.0000
  H   H110      1.0  0.06990  0.26974  0.21449  1.0000
  H   H111      1.0  0.31779  0.40665  0.35573  1.0000
  C   C64       1.0  0.14375  0.41729  0.19593  1.0000
  H   H112      1.0  0.32761  0.31248  0.15435  1.0000
  C   C65       1.0  0.10135  0.45077  0.23578  1.0000
  N   N5        1.0  0.06765  0.45332  0.25622  1.0000
  H   H113      1.0  0.28745  0.46253  0.27756  1.0000
  H   H114      1.0  0.35132  0.48743  0.22786  1.0000
  C   C66       1.0  0.22337  0.13402  0.47078  1.0000
  H   H115      1.0  0.18445  0.11613  0.28204  1.0000
  H   H116      1.0  0.06019  0.45751  0.17167  1.0000
  H   H117      1.0  0.10480  0.04630  0.49599  1.0000
  H   H118      1.0  0.34113  0.23158  0.15925  1.0000
  H   H119      1.0  0.29834  0.36572  0.35438  1.0000
  H   H120      1.0  0.17442  0.04284  0.39871  1.0000
  H   H121      1.0  0.17999  0.16678  0.46144  1.0000
  C   C67       1.0  0.33794  0.29632  0.13015  1.0000
  H   H122      1.0  0.31710  0.25382  0.09514  1.0000
  H   H123      1.0  0.24980  0.19907  0.47087  1.0000
  C   C68       1.0  0.06194  0.48863  0.27110  1.0000
  C   C69       1.0  0.31276  0.26692  0.12393  1.0000
  Fe  Fe7       1.0  0.06442  0.51513  0.47412  1.0000
  H   H124      1.0  0.10366  0.09090  0.49000  1.0000
  C   C70       1.0  0.10873  0.43302  0.02985  1.0000
  H   H125      1.0  0.04842  0.06638  0.44723  1.0000
  S   S14       1.0  0.35778  0.27860  0.24870  1.0000
  H   H126      1.0  0.04669  0.16268  0.50484  1.0000
  H   H127      1.0  0.34430  0.28392  0.04147  1.0000
  C   C71       1.0  0.11809  0.06805  0.48288  1.0000
  C   C72       1.0  0.09527  0.50637  0.10264  1.0000
  H   H128      1.0  0.04629  0.26913  0.26022  1.0000
  H   H129      1.0  0.32813  0.34265  0.01731  1.0000
  C   C73       1.0  0.15355  0.07073  0.50004  1.0000
  H   H130      1.0  0.32483  0.37748  0.05178  1.0000
  C   C74       1.0  0.07641  0.51759  0.24573  1.0000
  H   H131      1.0  0.22790  0.52114  0.23717  1.0000
  H   H132      1.0  0.03415  0.45817  0.33264  1.0000
  C   C75       1.0  0.36283  0.29702  0.06113  1.0000
  H   H133      1.0  0.20169  0.17421  0.50794  1.0000
  H   H134      1.0  0.32748  0.14970  0.94961  1.0000
  H   H135      1.0  0.08779  0.28782  0.63403  1.0000
  C   C76       1.0  0.20672  0.15334  0.71081  1.0000
  S   S15       1.0  0.20148  0.33243  0.56234  1.0000
  H   H136      1.0  0.28000  0.37840  0.00194  1.0000
  Fe  Fe8       1.0  0.17050  0.24063  0.57219  1.0000
  S   S16       1.0  0.16590  0.27802  0.62235  1.0000
  S   S17       1.0  0.15183  0.18655  0.57072  1.0000
  Fe  Fe9       1.0  0.14951  0.31419  0.57523  1.0000
  H   H137      1.0  0.33686  0.36852  0.53134  1.0000
  Fe  Fe10      1.0  0.21840  0.29352  0.60550  1.0000
  S   S18       1.0  0.25782  0.31185  0.64957  1.0000
  C   C77       1.0  0.08378  0.45395  0.54741  1.0000
  S   S19       1.0  0.22456  0.25363  0.55819  1.0000
  H   H138      1.0  0.21248  0.12551  0.76476  1.0000
  H   H139      1.0  0.15073  0.07442  0.53266  1.0000
  H   H140      1.0  0.15855  0.10667  0.80194  1.0000
  H   H141      1.0  0.04597  0.30137  0.58593  1.0000
  S   S20       1.0  0.10100  0.50799  0.95020  1.0000
  C   C78       1.0  0.14607  0.08540  0.78625  1.0000
  C   C79       1.0  0.13144  0.16662  0.61098  1.0000
  C   C80       1.0  0.11835  0.13415  0.60566  1.0000
  C   C81       1.0  0.10068  0.11818  0.63661  1.0000
  C   C82       1.0  0.09605  0.13464  0.67318  1.0000
  C   C83       1.0  0.10975  0.16681  0.67867  1.0000
  C   C84       1.0  0.12745  0.18267  0.64780  1.0000
  H   H142      1.0  0.12147  0.12145  0.57729  1.0000
  H   H143      1.0  0.08850  0.08814  0.83267  1.0000
  H   H144      1.0  0.10657  0.17954  0.70701  1.0000
  H   H145      1.0  0.13803  0.20734  0.65239  1.0000
  C   C85       1.0  0.22257  0.28425  0.00015  1.0000
  H   H146      1.0  0.24123  0.51881  0.66520  1.0000
  H   H147      1.0  0.04557  0.28810  0.65192  1.0000
  C   C86       1.0  0.14820  0.51759  0.64151  1.0000
  H   H148      1.0  0.04751  0.22205  0.63817  1.0000
  H   H149      1.0  0.05745  0.45811  0.60325  1.0000
  S   S21       1.0  0.35718  0.19902  0.88102  1.0000
  H   H150      1.0  0.24260  0.16744  0.88430  1.0000
  H   H151      1.0  0.18392  0.47720  0.63708  1.0000
  H   H152      1.0  0.15705  0.05418  0.83779  1.0000
  C   C87       1.0  0.30111  0.24675  0.74804  1.0000
  C   C88       1.0  0.31024  0.28037  0.74544  1.0000
  C   C89       1.0  0.29684  0.30000  0.71498  1.0000
  C   C90       1.0  0.27419  0.28621  0.68708  1.0000
  C   C91       1.0  0.26518  0.25252  0.68962  1.0000
  C   C92       1.0  0.27876  0.23285  0.71991  1.0000
  H   H153      1.0  0.32757  0.29124  0.76687  1.0000
  H   H154      1.0  0.30399  0.32603  0.71306  1.0000
  H   H155      1.0  0.24793  0.24166  0.66810  1.0000
  H   H156      1.0  0.27185  0.20678  0.72168  1.0000
  C   C93       1.0  0.28500  0.25276  0.99022  1.0000
  C   C94       1.0  0.05504  0.51521  0.72660  1.0000
  C   C95       1.0  0.04730  0.18408  0.56502  1.0000
  H   H157      1.0  0.32470  0.40572  0.65396  1.0000
  C   C96       1.0  0.24188  0.28952  0.96580  1.0000
  C   C97       1.0  0.27311  0.27420  0.96111  1.0000
  Fe  Fe11      1.0  0.04828  0.06513  0.71702  1.0000
  C   C98       1.0  0.11085  0.07890  0.84872  1.0000
  H   H158      1.0  0.23289  0.30615  0.94315  1.0000
  H   H159      1.0  0.28791  0.27894  0.93491  1.0000
  N   N6        1.0  0.22242  0.26182  0.83513  1.0000
  C   C99       1.0  0.20977  0.26375  0.79280  1.0000
  C   C100      1.0  0.25214  0.28523  0.84086  1.0000
  C   C101      1.0  0.23416  0.22656  0.84172  1.0000
  C   C102      1.0  0.19517  0.26887  0.86523  1.0000
  C   C103      1.0  0.17917  0.30378  0.86411  1.0000
  C   C104      1.0  0.18125  0.23899  0.78085  1.0000
  C   C105      1.0  0.25460  0.22051  0.88041  1.0000
  C   C106      1.0  0.25187  0.31875  0.81807  1.0000
  C   C107      1.0  0.28089  0.34147  0.83134  1.0000
  C   C108      1.0  0.14847  0.30552  0.89135  1.0000
  C   C109      1.0  0.17074  0.24386  0.73750  1.0000
  H   H160      1.0  0.28101  0.17701  0.85748  1.0000
  H   H161      1.0  0.23099  0.25950  0.77179  1.0000
  H   H162      1.0  0.20068  0.28905  0.78590  1.0000
  H   H163      1.0  0.25589  0.29087  0.87314  1.0000
  H   H164      1.0  0.27560  0.27294  0.83052  1.0000
  H   H165      1.0  0.24989  0.21815  0.81613  1.0000
  H   H166      1.0  0.21244  0.20895  0.84280  1.0000
  H   H167      1.0  0.17483  0.24975  0.86296  1.0000
  H   H168      1.0  0.20494  0.26640  0.89602  1.0000
  H   H169      1.0  0.17087  0.31039  0.83376  1.0000
  H   H170      1.0  0.19743  0.32275  0.87535  1.0000
  H   H171      1.0  0.18952  0.21280  0.78337  1.0000
  H   H172      1.0  0.15879  0.24274  0.79985  1.0000
  H   H173      1.0  0.23971  0.22649  0.90742  1.0000
  H   H174      1.0  0.27799  0.23570  0.88115  1.0000
  H   H175      1.0  0.25490  0.31405  0.78558  1.0000
  H   H176      1.0  0.22832  0.33256  0.82234  1.0000
  H   H177      1.0  0.30531  0.32922  0.82561  1.0000
  H   H178      1.0  0.28038  0.36501  0.81429  1.0000
  H   H179      1.0  0.27881  0.34766  0.86362  1.0000
  H   H180      1.0  0.15531  0.29915  0.92242  1.0000
  H   H181      1.0  0.13838  0.33122  0.89157  1.0000
  H   H182      1.0  0.12848  0.28809  0.88073  1.0000
  H   H183      1.0  0.16066  0.26929  0.73323  1.0000
  H   H184      1.0  0.19239  0.24018  0.71709  1.0000
  H   H185      1.0  0.15091  0.22536  0.72939  1.0000
  C   C110      1.0  0.31415  0.45690  0.67142  1.0000
  H   H186      1.0  0.10223  0.06085  0.87151  1.0000
  S   S22       1.0  0.10478  0.34716  0.58891  1.0000
  S   S23       1.0  0.07586  0.49614  0.53588  1.0000
  H   H187      1.0  0.06887  0.40053  0.62381  1.0000
  H   H188      1.0  0.15350  0.10571  0.70903  1.0000
  H   H189      1.0  0.25987  0.52331  0.55676  1.0000
  C   C111      1.0  0.26500  0.18409  0.88331  1.0000
  H   H190      1.0  0.16858  0.49128  0.58966  1.0000
  H   H191      1.0  0.33035  0.09034  0.99626  1.0000
  S   S24       1.0  0.07406  0.11616  0.71329  1.0000
  C   C112      1.0  0.05224  0.22086  0.55189  1.0000
  C   C113      1.0  0.08006  0.26179  0.68862  1.0000
  S   S25       1.0  0.14974  0.27543  0.52642  1.0000
  H   H192      1.0  0.21602  0.17710  0.72430  1.0000
  S   S26       1.0  0.32352  0.23202  0.98387  1.0000
  C   C114      1.0  0.21602  0.08336  0.56706  1.0000
  H   H193      1.0  0.08544  0.28437  0.70713  1.0000
  N   N7        1.0  0.28989  0.51463  0.69362  1.0000
  C   C115      1.0  0.09838  0.38835  0.57203  1.0000
  H   H194      1.0  0.30251  0.52072  0.60957  1.0000
  H   H195      1.0  0.08169  0.49748  0.67538  1.0000
  H   H196      1.0  0.27970  0.18069  0.91107  1.0000
  C   C116      1.0  0.06052  0.24145  0.62013  1.0000
  H   H197      1.0  0.18549  0.10351  0.61551  1.0000
  H   H198      1.0  0.34232  0.15012  0.00064  1.0000
  H   H199      1.0  0.18724  0.15923  0.68840  1.0000
  C   C117      1.0  0.07192  0.44202  0.58388  1.0000
  S   S27       1.0  0.05314  0.04103  0.77711  1.0000
  H   H200      1.0  0.23717  0.49278  0.74562  1.0000
  H   H201      1.0  0.32751  0.08354  0.94431  1.0000
  H   H202      1.0  0.08583  0.23117  0.61349  1.0000
  H   H203      1.0  0.22949  0.11489  0.61821  1.0000
  H   H204      1.0  0.07930  0.22438  0.54410  1.0000
  H   H205      1.0  0.22807  0.14094  0.69562  1.0000
  S   S28       1.0  0.34268  0.27992  0.88201  1.0000
  H   H206      1.0  0.12344  0.10024  0.86417  1.0000
  H   H207      1.0  0.03951  0.30594  0.99224  1.0000
  C   C118      1.0  0.09018  0.47682  0.98507  1.0000
  C   C119      1.0  0.16145  0.48611  0.62103  1.0000
  C   C120      1.0  0.26763  0.52685  0.66054  1.0000
  H   H208      1.0  0.34768  0.49823  0.73490  1.0000
  H   H209      1.0  0.31721  0.30954  0.54421  1.0000
  H   H210      1.0  0.33969  0.45987  0.68419  1.0000
  H   H211      1.0  0.09043  0.09333  0.63212  1.0000
  C   C121      1.0  0.05742  0.47274  0.99941  1.0000
  H   H212      1.0  0.20803  0.07440  0.79885  1.0000
  H   H213      1.0  0.19794  0.06286  0.56096  1.0000
  H   H214      1.0  0.23080  0.02898  0.83975  1.0000
  C   C122      1.0  0.35002  0.14811  0.96887  1.0000
  H   H215      1.0  0.07677  0.51391  0.74721  1.0000
  C   C123      1.0  0.05127  0.28075  0.56465  1.0000
  H   H216      1.0  0.27097  0.48804  0.61433  1.0000
  C   C124      1.0  0.10305  0.43285  0.52295  1.0000
  S   S29       1.0  0.31609  0.22142  0.78656  1.0000
  H   H217      1.0  0.10351  0.24737  0.68582  1.0000
  C   C125      1.0  0.34999  0.52341  0.72182  1.0000
  N   N8        1.0  0.16870  0.07097  0.75446  1.0000
  H   H218      1.0  0.31550  0.46508  0.64012  1.0000
  H   H219      1.0  0.26277  0.46779  0.68872  1.0000
  H   H220      1.0  0.12303  0.09561  0.77230  1.0000
  H   H221      1.0  0.18979  0.12763  0.54819  1.0000
  C   C126      1.0  0.28841  0.47705  0.69656  1.0000
  H   H222      1.0  0.17250  0.14568  0.75896  1.0000
  N   N9        1.0  0.04160  0.24731  0.58171  1.0000
  H   H223      1.0  0.24151  0.07277  0.56426  1.0000
  C   C127      1.0  0.07858  0.40937  0.59567  1.0000
  H   H224      1.0  0.22235  0.06179  0.75134  1.0000
  C   C128      1.0  0.11573  0.45696  0.00059  1.0000
  C   C129      1.0  0.27609  0.51517  0.61761  1.0000
  H   H225      1.0  0.19442  0.08960  0.70216  1.0000
  H   H226      1.0  0.30505  0.40990  0.70210  1.0000
  C   C130      1.0  0.17662  0.09852  0.72538  1.0000
  C   C131      1.0  0.21143  0.09454  0.61045  1.0000
  H   H227      1.0  0.04043  0.49158  0.72886  1.0000
  C   C132      1.0  0.34583  0.08473  0.96938  1.0000
  S   S30       1.0  0.18327  0.30368  0.00380  1.0000
  C   C133      1.0  0.19215  0.13104  0.74334  1.0000
  H   H228      1.0  0.21594  0.07319  0.63044  1.0000
  C   C134      1.0  0.30550  0.41965  0.67123  1.0000
  H   H229      1.0  0.29241  0.46920  0.72796  1.0000
  C   C135      1.0  0.20103  0.05865  0.77250  1.0000
  H   H230      1.0  0.29486  0.04322  0.99452  1.0000
  H   H231      1.0  0.07893  0.28192  0.55991  1.0000
  C   C136      1.0  0.13508  0.06172  0.81991  1.0000
  H   H232      1.0  0.12486  0.05331  0.72208  1.0000
  H   H233      1.0  0.14115  0.46004  0.98981  1.0000
  Fe  Fe12      1.0  0.35097  0.23951  0.83593  1.0000
  H   H234      1.0  0.14207  0.46596  0.62120  1.0000
  H   H235      1.0  0.28069  0.41494  0.65707  1.0000
  H   H236      1.0  0.06073  0.24646  0.70397  1.0000
  C   C137      1.0  0.11068  0.40015  0.53548  1.0000
  H   H237      1.0  0.14176  0.51104  0.67261  1.0000
  Fe  Fe13      1.0  0.35285  0.24006  0.92674  1.0000
  C   C138      1.0  0.06774  0.27220  0.64755  1.0000
  H   H238      1.0  0.06070  0.17909  0.59322  1.0000
  H   H239      1.0  0.03619  0.34409  0.53587  1.0000
  H   H240      1.0  0.03757  0.48809  0.98796  1.0000
  H   H241      1.0  0.09960  0.51007  0.61373  1.0000
  H   H242      1.0  0.04427  0.52040  0.66443  1.0000
  C   C139      1.0  0.06686  0.51977  0.68366  1.0000
  H   H243      1.0  0.28570  0.34062  0.55291  1.0000
  C   C140      1.0  0.30120  0.32830  0.52959  1.0000
  H   H244      1.0  0.05713  0.13383  0.54363  1.0000
  H   H245      1.0  0.03810  0.22310  0.52353  1.0000
  C   C141      1.0  0.06053  0.15986  0.53330  1.0000
  C   C142      1.0  0.03426  0.29025  0.52481  1.0000
  H   H246      1.0  0.12576  0.38404  0.51678  1.0000
  H   H247      1.0  0.33634  0.51717  0.65963  1.0000
  Fe  Fe14      1.0  0.20336  0.29135  0.51631  1.0000
  H   H248      1.0  0.08770  0.16436  0.52795  1.0000
  H   H249      1.0  0.12230  0.03933  0.80760  1.0000
  C   C143      1.0  0.24056  0.52023  0.74427  1.0000
  C   C144      1.0  0.14984  0.04402  0.73163  1.0000
  H   H250      1.0  0.16230  0.04772  0.66820  1.0000
  C   C145      1.0  0.16790  0.03097  0.69346  1.0000
  H   H251      1.0  0.23383  0.12997  0.54427  1.0000
  H   H252      1.0  0.29292  0.52222  0.75767  1.0000
  C   C146      1.0  0.04404  0.32571  0.51272  1.0000
  C   C147      1.0  0.21198  0.11310  0.53821  1.0000
  N   N10       1.0  0.36307  0.05163  0.97426  1.0000
  H   H253      1.0  0.19551  0.03066  0.69738  1.0000
  H   H254      1.0  0.27495  0.09049  0.51304  1.0000
  H   H255      1.0  0.03532  0.34843  0.00930  1.0000
  H   H256      1.0  0.27520  0.02780  0.50988  1.0000
  H   H257      1.0  0.24855  0.52502  0.80854  1.0000
  H   H258      1.0  0.32960  0.02777  0.93141  1.0000
  Fe  Fe15      1.0  0.31615  0.63041  0.20036  1.0000
  S   S31       1.0  0.27248  0.64465  0.16163  1.0000
  H   H259      1.0  0.14067  0.87557  0.32353  1.0000
  Fe  Fe16      1.0  0.30371  0.68913  0.25854  1.0000
  S   S32       1.0  0.25972  0.70708  0.22382  1.0000
  S   S33       1.0  0.32142  0.71499  0.31562  1.0000
  Fe  Fe17      1.0  0.24482  0.65274  0.21967  1.0000
  S   S34       1.0  0.18987  0.63929  0.23024  1.0000
  Fe  Fe18      1.0  0.29139  0.69742  0.16953  1.0000
  S   S35       1.0  0.30431  0.73713  0.12391  1.0000
  S   S36       1.0  0.28698  0.63519  0.25794  1.0000
  S   S37       1.0  0.33685  0.68246  0.20485  1.0000
  Fe  Fe19      1.0  0.27967  0.88908  0.41954  1.0000
  S   S38       1.0  0.23188  0.89501  0.45474  1.0000
  S   S39       1.0  0.27457  0.86219  0.35967  1.0000
  Fe  Fe20      1.0  0.31874  0.93796  0.47429  1.0000
  H   H260      1.0  0.16773  0.80670  0.05424  1.0000
  H   H261      1.0  0.14740  0.91171  0.35344  1.0000
  H   H262      1.0  0.18240  0.83978  0.08684  1.0000
  C   C148      1.0  0.12871  0.01885  0.37842  1.0000
  Fe  Fe21      1.0  0.24401  0.94979  0.45533  1.0000
  S   S40       1.0  0.21077  0.99447  0.44330  1.0000
  S   S41       1.0  0.31309  0.88199  0.47312  1.0000
  S   S42       1.0  0.28995  0.94428  0.41737  1.0000
  C   C149      1.0  0.06139  0.55095  0.25839  1.0000
  H   H263      1.0  0.14239  0.62973  0.04683  1.0000
  S   S43       1.0  0.07050  0.98639  0.35328  1.0000
  H   H264      1.0  0.19568  0.53868  0.31294  1.0000
  S   S44       1.0  0.08661  0.56215  0.44856  1.0000
  H   H265      1.0  0.35383  0.66966  0.43531  1.0000
  C   C150      1.0  0.17192  0.99181  0.41804  1.0000
  C   C151      1.0  0.15265  0.96254  0.41787  1.0000
  C   C152      1.0  0.12132  0.96160  0.39857  1.0000
  C   C153      1.0  0.10940  0.98954  0.37835  1.0000
  C   C154      1.0  0.23465  0.98324  0.33822  1.0000
  H   H266      1.0  0.20147  0.56484  0.19453  1.0000
  H   H267      1.0  0.16161  0.94088  0.43332  1.0000
  H   H268      1.0  0.10626  0.93900  0.39913  1.0000
  H   H269      1.0  0.19402  0.96040  0.28345  1.0000
  H   H270      1.0  0.26347  0.89238  0.20450  1.0000
  H   H271      1.0  0.13531  0.86070  0.04940  1.0000
  C   C155      1.0  0.23192  0.75279  0.04008  1.0000
  C   C156      1.0  0.24876  0.74017  0.07362  1.0000
  C   C157      1.0  0.28216  0.74948  0.08098  1.0000
  C   C158      1.0  0.29853  0.77086  0.05434  1.0000
  H   H272      1.0  0.25545  0.98537  0.36004  1.0000
  H   H273      1.0  0.07661  0.55596  0.10830  1.0000
  H   H274      1.0  0.23590  0.72364  0.09394  1.0000
  H   H275      1.0  0.32455  0.77740  0.05922  1.0000
  H   H276      1.0  0.28937  0.76102  0.50275  1.0000
  C   C159      1.0  0.30858  0.75610  0.32745  1.0000
  C   C160      1.0  0.28704  0.77353  0.30253  1.0000
  C   C161      1.0  0.27696  0.80597  0.31291  1.0000
  C   C162      1.0  0.28795  0.82124  0.34851  1.0000
  C   C163      1.0  0.30940  0.80386  0.37365  1.0000
  C   C164      1.0  0.31982  0.77148  0.36295  1.0000
  H   H277      1.0  0.27830  0.76217  0.27509  1.0000
  H   H278      1.0  0.26045  0.81926  0.29325  1.0000
  H   H279      1.0  0.31818  0.81547  0.40104  1.0000
  H   H280      1.0  0.33664  0.75826  0.38224  1.0000
  C   C165      1.0  0.17532  0.61092  0.26672  1.0000
  C   C166      1.0  0.19476  0.58413  0.27908  1.0000
  C   C167      1.0  0.18093  0.55998  0.30470  1.0000
  C   C168      1.0  0.14806  0.56307  0.31952  1.0000
  C   C169      1.0  0.12932  0.59084  0.30886  1.0000
  C   C170      1.0  0.14264  0.61421  0.28191  1.0000
  H   H281      1.0  0.21999  0.58147  0.26780  1.0000
  H   H282      1.0  0.22525  0.58276  0.15442  1.0000
  H   H283      1.0  0.35336  0.90205  0.25157  1.0000
  H   H284      1.0  0.12748  0.63494  0.27267  1.0000
  C   C171      1.0  0.16049  0.89346  0.33397  1.0000
  N   N11       1.0  0.25034  0.69047  0.43345  1.0000
  C   C172      1.0  0.28711  0.69395  0.42305  1.0000
  C   C173      1.0  0.23580  0.72408  0.44467  1.0000
  C   C174      1.0  0.24794  0.66835  0.46960  1.0000
  C   C175      1.0  0.23054  0.67408  0.40019  1.0000
  C   C176      1.0  0.23057  0.69243  0.35993  1.0000
  C   C177      1.0  0.30474  0.66180  0.40805  1.0000
  C   C178      1.0  0.29470  0.52868  0.25857  1.0000
  H   H285      1.0  0.20523  0.83025  0.04199  1.0000
  C   C179      1.0  0.21462  0.67085  0.32712  1.0000
  C   C180      1.0  0.34273  0.66695  0.40518  1.0000
  H   H286      1.0  0.20549  0.88732  0.37142  1.0000
  H   H287      1.0  0.30114  0.70427  0.44922  1.0000
  H   H288      1.0  0.29124  0.71224  0.39903  1.0000
  H   H289      1.0  0.20803  0.72348  0.44100  1.0000
  H   H290      1.0  0.24025  0.72973  0.47690  1.0000
  H   H291      1.0  0.17293  0.88114  0.03331  1.0000
  H   H292      1.0  0.25559  0.64248  0.46220  1.0000
  H   H293      1.0  0.23923  0.64810  0.39493  1.0000
  H   H294      1.0  0.20371  0.67145  0.40870  1.0000
  H   H295      1.0  0.25626  0.69898  0.35010  1.0000
  H   H296      1.0  0.21551  0.71545  0.36247  1.0000
  H   H297      1.0  0.30042  0.64036  0.42788  1.0000
  H   H298      1.0  0.29542  0.65493  0.37779  1.0000
  C   C181      1.0  0.35607  0.81571  0.16008  1.0000
  H   H299      1.0  0.34907  0.68947  0.38769  1.0000
  H   H300      1.0  0.21512  0.00141  0.34704  1.0000
  H   H301      1.0  0.21428  0.68493  0.29882  1.0000
  H   H302      1.0  0.22928  0.64779  0.32210  1.0000
  H   H303      1.0  0.18838  0.66396  0.33490  1.0000
  Fe  Fe22      1.0  0.26590  0.89199  0.50794  1.0000
  H   H304      1.0  0.35416  0.64503  0.39014  1.0000
  H   H305      1.0  0.35367  0.71011  0.48611  1.0000
  S   S45       1.0  0.13066  0.53049  0.34862  1.0000
  H   H306      1.0  0.31979  0.56872  0.32037  1.0000
  H   H307      1.0  0.35426  0.55719  0.28815  1.0000
  H   H308      1.0  0.07601  0.87983  0.02260  1.0000
  H   H309      1.0  0.08829  0.83742  0.03301  1.0000
  H   H310      1.0  0.06495  0.55523  0.29086  1.0000
  S   S46       1.0  0.34344  0.58223  0.18448  1.0000
  H   H311      1.0  0.16916  0.95940  0.32686  1.0000
  H   H312      1.0  0.21337  0.94141  0.36873  1.0000
  C   C182      1.0  0.07251  0.60420  0.05002  1.0000
  H   H313      1.0  0.34015  0.90025  0.16062  1.0000
  C   C183      1.0  0.14945  0.91516  0.26763  1.0000
  C   C184      1.0  0.12420  0.62373  0.10584  1.0000
  C   C185      1.0  0.16464  0.85978  0.39736  1.0000
  H   H314      1.0  0.15556  0.88090  0.41597  1.0000
  H   H315      1.0  0.14296  0.84389  0.38808  1.0000
  C   C186      1.0  0.24821  0.77512  0.01428  1.0000
  H   H316      1.0  0.21047  0.54027  0.15019  1.0000
  H   H317      1.0  0.25184  0.88861  0.07104  1.0000
  H   H318      1.0  0.14767  0.64951  0.15595  1.0000
  C   C187      1.0  0.35252  0.77249  0.21444  1.0000
  H   H319      1.0  0.26998  0.88035  0.25554  1.0000
  H   H320      1.0  0.22632  0.79060  0.46413  1.0000
  H   H321      1.0  0.10714  0.64512  0.10145  1.0000
  C   C188      1.0  0.22035  0.94767  0.33767  1.0000
  H   H322      1.0  0.31011  0.79594  0.18800  1.0000
  H   H323      1.0  0.10548  0.92193  0.30755  1.0000
  C   C189      1.0  0.22201  0.90416  0.24403  1.0000
  C   C190      1.0  0.25326  0.54790  0.18999  1.0000
  C   C191      1.0  0.18362  0.87260  0.36091  1.0000
  H   H324      1.0  0.12137  0.55201  0.11576  1.0000
  C   C192      1.0  0.18897  0.94541  0.31058  1.0000
  H   H325      1.0  0.12362  0.96022  0.28980  1.0000
  C   C193      1.0  0.26201  0.86620  0.08571  1.0000
  H   H326      1.0  0.25059  0.75174  0.39007  1.0000
  H   H327      1.0  0.27552  0.76100  0.43321  1.0000
  C   C194      1.0  0.24964  0.75527  0.42278  1.0000
  H   H328      1.0  0.17240  0.61636  0.13511  1.0000
  C   C195      1.0  0.11748  0.93399  0.28150  1.0000
  H   H329      1.0  0.06883  0.94850  0.25922  1.0000
  C   C196      1.0  0.04213  0.58748  0.02846  1.0000
  H   H330      1.0  0.26290  0.56864  0.20910  1.0000
  H   H331      1.0  0.07409  0.57152  0.24219  1.0000
  C   C197      1.0  0.20359  0.88970  0.28081  1.0000
  C   C198      1.0  0.25108  0.88184  0.23127  1.0000
  H   H332      1.0  0.24077  0.93108  0.32769  1.0000
  H   H333      1.0  0.19486  0.65206  0.46887  1.0000
  H   H334      1.0  0.08885  0.53792  0.03389  1.0000
  H   H335      1.0  0.19298  0.86484  0.27204  1.0000
  H   H336      1.0  0.26570  0.67741  0.49308  1.0000
  H   H337      1.0  0.11139  0.60582  0.12567  1.0000
  H   H338      1.0  0.30874  0.82219  0.10649  1.0000
  C   C199      1.0  0.31020  0.84425  0.12675  1.0000
  H   H339      1.0  0.13155  0.54135  0.04608  1.0000
  H   H340      1.0  0.24184  0.85629  0.22378  1.0000
  H   H341      1.0  0.20608  0.74569  0.03457  1.0000
  H   H342      1.0  0.19296  0.85040  0.34433  1.0000
  C   C200      1.0  0.10674  0.55234  0.05302  1.0000
  H   H343      1.0  0.33972  0.76658  0.46662  1.0000
  H   H344      1.0  0.31076  0.54438  0.23920  1.0000
  H   H345      1.0  0.15599  0.59212  0.06888  1.0000
  H   H346      1.0  0.24460  0.98985  0.30837  1.0000
  C   C201      1.0  0.13356  0.60808  0.06476  1.0000
  H   H347      1.0  0.27544  0.54586  0.27109  1.0000
  H   H348      1.0  0.06610  0.60438  0.08216  1.0000
  C   C202      1.0  0.22830  0.78593  0.43152  1.0000
  C   C203      1.0  0.21275  0.66499  0.48929  1.0000
  H   H349      1.0  0.07325  0.63096  0.04131  1.0000
  Fe  Fe23      1.0  0.08516  0.53458  0.38967  1.0000
  H   H350      1.0  0.15929  0.92924  0.24169  1.0000
  C   C204      1.0  0.09971  0.54393  0.09713  1.0000
  H   H351      1.0  0.32364  0.87193  0.19560  1.0000
  H   H352      1.0  0.29225  0.83844  0.15117  1.0000
  C   C205      1.0  0.17978  0.83180  0.05519  1.0000
  H   H353      1.0  0.10422  0.59386  0.32045  1.0000
  H   H354      1.0  0.24006  0.80823  0.41770  1.0000
  C   C206      1.0  0.28158  0.78406  0.02161  1.0000
  H   H355      1.0  0.16901  0.65557  0.10923  1.0000
  C   C207      1.0  0.33653  0.54801  0.31124  1.0000
  H   H356      1.0  0.14133  0.89028  0.25567  1.0000
  H   H357      1.0  0.20278  0.78247  0.41882  1.0000
  H   H358      1.0  0.03416  0.55138  0.25147  1.0000
  N   N12       1.0  0.17639  0.91103  0.29887  1.0000
  H   H359      1.0  0.26505  0.84637  0.06262  1.0000
  H   H360      1.0  0.34480  0.83840  0.05668  1.0000
  N   N13       1.0  0.10642  0.58880  0.04247  1.0000
  C   C208      1.0  0.15530  0.63705  0.12766  1.0000
  H   H361      1.0  0.18166  0.84459  0.41577  1.0000
  H   H362      1.0  0.24381  0.85759  0.10854  1.0000
  C   C209      1.0  0.09129  0.93497  0.24831  1.0000
  H   H363      1.0  0.10138  0.94830  0.22198  1.0000
  C   C210      1.0  0.15885  0.85705  0.03266  1.0000
  C   C211      1.0  0.29583  0.87477  0.10479  1.0000
  H   H364      1.0  0.29192  0.89582  0.12600  1.0000
  H   H365      1.0  0.08338  0.90933  0.23930  1.0000
  H   H366      1.0  0.31270  0.88342  0.08071  1.0000
  H   H367      1.0  0.20479  0.90585  0.21821  1.0000
  H   H368      1.0  0.23259  0.92930  0.25075  1.0000
  C   C212      1.0  0.22052  0.55949  0.17121  1.0000
  H   H369      1.0  0.22330  0.88419  0.30299  1.0000
  H   H370      1.0  0.33655  0.76218  0.23856  1.0000
  H   H371      1.0  0.03872  0.56125  0.03794  1.0000
  C   C213      1.0  0.33604  0.80319  0.19684  1.0000
  C   C214      1.0  0.34489  0.87570  0.17454  1.0000
  H   H372      1.0  0.27549  0.82108  0.50237  1.0000
  H   H373      1.0  0.34524  0.62341  0.48446  1.0000
  H   H374      1.0  0.27142  0.54383  0.16540  1.0000
  H   H375      1.0  0.35567  0.75289  0.19113  1.0000
  N   N14       1.0  0.34521  0.84853  0.14306  1.0000
  H   H376      1.0  0.20225  0.68960  0.49764  1.0000
  H   H377      1.0  0.35369  0.79547  0.13723  1.0000
  C   C215      1.0  0.15968  0.02005  0.39861  1.0000
  H   H378      1.0  0.31462  0.00806  0.01780  1.0000
  H   H379      1.0  0.33459  0.82222  0.22096  1.0000
  Fe  Fe24      1.0  0.03333  0.57621  0.43473  1.0000
  S   S47       1.0  0.03323  0.55153  0.37372  1.0000
  H   H380      1.0  0.35124  0.54023  0.33757  1.0000
  H   H381      1.0  0.08725  0.70374  0.50367  1.0000
  C   C216      1.0  0.03884  0.84237  0.01009  1.0000
  C   C217      1.0  0.07560  0.85373  0.01143  1.0000
  S   S48       1.0  0.04588  0.02647  0.25013  1.0000
  H   H382      1.0  0.03171  0.76623  0.50061  1.0000
  S   S49       1.0  0.36408  0.97100  0.48764  1.0000
  Fe  Fe25      1.0  0.33141  0.62433  0.64541  1.0000
  S   S50       1.0  0.28182  0.62997  0.61530  1.0000
  Fe  Fe26      1.0  0.25190  0.83681  0.94504  1.0000
  Fe  Fe27      1.0  0.31394  0.67889  0.70625  1.0000
  S   S51       1.0  0.26324  0.68895  0.67972  1.0000
  S   S52       1.0  0.33184  0.70130  0.76441  1.0000
  Fe  Fe28      1.0  0.25873  0.63298  0.67620  1.0000
  S   S53       1.0  0.21506  0.59800  0.68972  1.0000
  Fe  Fe29      1.0  0.29135  0.68485  0.62140  1.0000
  S   S54       1.0  0.28812  0.71227  0.56332  1.0000
  S   S55       1.0  0.30773  0.62310  0.70610  1.0000
  H   H383      1.0  0.09243  0.82298  0.96338  1.0000
  Fe  Fe30      1.0  0.28721  0.86405  0.87204  1.0000
  S   S56       1.0  0.23294  0.85483  0.88620  1.0000
  S   S57       1.0  0.30177  0.85223  0.80820  1.0000
  Fe  Fe31      1.0  0.30251  0.89440  0.95406  1.0000
  C   C218      1.0  0.34876  0.62046  0.51702  1.0000
  H   H384      1.0  0.06744  0.72535  0.59263  1.0000
  C   C219      1.0  0.14586  0.82703  0.85922  1.0000
  S   S58       1.0  0.25358  0.86563  0.56513  1.0000
  Fe  Fe32      1.0  0.23452  0.90618  0.91305  1.0000
  S   S59       1.0  0.19257  0.94397  0.90891  1.0000
  S   S60       1.0  0.30645  0.84198  0.92907  1.0000
  S   S61       1.0  0.28786  0.91711  0.89550  1.0000
  H   H385      1.0  0.15197  0.80171  0.84799  1.0000
  C   C220      1.0  0.19118  0.71178  0.89234  1.0000
  S   S62       1.0  0.10342  0.95650  0.75249  1.0000
  Fe  Fe33      1.0  0.06674  0.58689  0.84312  1.0000
  S   S63       1.0  0.06113  0.59012  0.90970  1.0000
  S   S64       1.0  0.10055  0.62717  0.81669  1.0000
  C   C221      1.0  0.16826  0.94745  0.86506  1.0000
  C   C222      1.0  0.17507  0.92832  0.83095  1.0000
  C   C223      1.0  0.15500  0.93145  0.79670  1.0000
  C   C224      1.0  0.12777  0.95340  0.79635  1.0000
  C   C225      1.0  0.12073  0.97223  0.83062  1.0000
  C   C226      1.0  0.14122  0.96963  0.86459  1.0000
  H   H386      1.0  0.19587  0.91122  0.83085  1.0000
  H   H387      1.0  0.16057  0.91671  0.77034  1.0000
  H   H388      1.0  0.17964  0.58139  0.93032  1.0000
  H   H389      1.0  0.09313  0.57002  0.55360  1.0000
  C   C227      1.0  0.26305  0.82300  0.56480  1.0000
  C   C228      1.0  0.26044  0.80472  0.60009  1.0000
  C   C229      1.0  0.26854  0.77069  0.60029  1.0000
  C   C230      1.0  0.27879  0.75491  0.56502  1.0000
  C   C231      1.0  0.28130  0.77320  0.52987  1.0000
  H   H390      1.0  0.11234  0.92557  0.92137  1.0000
  H   H391      1.0  0.25230  0.81692  0.62730  1.0000
  H   H392      1.0  0.26654  0.75669  0.62756  1.0000
  C   C232      1.0  0.21456  0.64460  0.52744  1.0000
  H   H393      1.0  0.23107  0.65733  0.54970  1.0000
  C   C233      1.0  0.32310  0.74326  0.77580  1.0000
  C   C234      1.0  0.31326  0.76550  0.74634  1.0000
  C   C235      1.0  0.30703  0.79899  0.75653  1.0000
  C   C236      1.0  0.30952  0.81010  0.79628  1.0000
  C   C237      1.0  0.31875  0.78766  0.82577  1.0000
  C   C238      1.0  0.32610  0.75451  0.81539  1.0000
  H   H394      1.0  0.31098  0.75703  0.71572  1.0000
  H   H395      1.0  0.29998  0.81624  0.73364  1.0000
  H   H396      1.0  0.32110  0.79604  0.85640  1.0000
  H   H397      1.0  0.09696  0.68142  0.54888  1.0000
  C   C239      1.0  0.18578  0.60603  0.72817  1.0000
  C   C240      1.0  0.18168  0.63801  0.74440  1.0000
  C   C241      1.0  0.15566  0.64405  0.77189  1.0000
  C   C242      1.0  0.13405  0.61813  0.78393  1.0000
  C   C243      1.0  0.13889  0.58599  0.76867  1.0000
  C   C244      1.0  0.16451  0.58006  0.74072  1.0000
  H   H398      1.0  0.19780  0.65825  0.73480  1.0000
  H   H399      1.0  0.15189  0.66901  0.78343  1.0000
  H   H400      1.0  0.12245  0.56585  0.77784  1.0000
  H   H401      1.0  0.16751  0.55527  0.72837  1.0000
  H   H402      1.0  0.25577  0.02032  0.79562  1.0000
  N   N15       1.0  0.21886  0.71503  0.86175  1.0000
  C   C245      1.0  0.24779  0.73342  0.88150  1.0000
  C   C246      1.0  0.20548  0.73495  0.82717  1.0000
  H   H403      1.0  0.30601  0.84809  0.67096  1.0000
  C   C247      1.0  0.22829  0.68035  0.84817  1.0000
  C   C248      1.0  0.25916  0.67748  0.82050  1.0000
  C   C249      1.0  0.26298  0.71704  0.91895  1.0000
  H   H404      1.0  0.15836  0.64674  0.66231  1.0000
  C   C250      1.0  0.23083  0.75712  0.80395  1.0000
  C   C251      1.0  0.21503  0.77124  0.76636  1.0000
  C   C252      1.0  0.26710  0.64095  0.81152  1.0000
  C   C253      1.0  0.10515  0.92473  0.95326  1.0000
  H   H405      1.0  0.24970  0.89809  0.73709  1.0000
  H   H406      1.0  0.23983  0.75900  0.89058  1.0000
  H   H407      1.0  0.26874  0.73731  0.86031  1.0000
  H   H408      1.0  0.19254  0.71818  0.80522  1.0000
  H   H409      1.0  0.13930  0.68280  0.93638  1.0000
  H   H410      1.0  0.16887  0.98815  0.65329  1.0000
  H   H411      1.0  0.16365  0.97775  0.70501  1.0000
  H   H412      1.0  0.23233  0.66401  0.87427  1.0000
  H   H413      1.0  0.20721  0.66836  0.83148  1.0000
  H   H414      1.0  0.28185  0.68894  0.83426  1.0000
  H   H415      1.0  0.25410  0.68935  0.79150  1.0000
  H   H416      1.0  0.07548  0.81442  0.68186  1.0000
  H   H417      1.0  0.26915  0.69053  0.91331  1.0000
  H   H418      1.0  0.10848  0.61720  0.98793  1.0000
  H   H419      1.0  0.19939  0.69632  0.91777  1.0000
  H   H420      1.0  0.23911  0.77862  0.82290  1.0000
  H   H421      1.0  0.25335  0.74322  0.79482  1.0000
  H   H422      1.0  0.20797  0.75077  0.74530  1.0000
  H   H423      1.0  0.19250  0.78606  0.77401  1.0000
  H   H424      1.0  0.23342  0.78786  0.75130  1.0000
  H   H425      1.0  0.27235  0.62741  0.83947  1.0000
  H   H426      1.0  0.24589  0.62857  0.79552  1.0000
  H   H427      1.0  0.28974  0.63960  0.79231  1.0000
  H   H428      1.0  0.04513  0.58788  0.99567  1.0000
  H   H429      1.0  0.13581  0.98459  0.89079  1.0000
  H   H430      1.0  0.03674  0.81584  0.00037  1.0000
  H   H431      1.0  0.03139  0.95823  0.98172  1.0000
  H   H432      1.0  0.31960  0.92370  0.58224  1.0000
  H   H433      1.0  0.14360  0.02248  0.75078  1.0000
  H   H434      1.0  0.29240  0.93208  0.62395  1.0000
  H   H435      1.0  0.34126  0.81962  0.54987  1.0000
  H   H436      1.0  0.12902  0.99461  0.67727  1.0000
  C   C254      1.0  0.13295  0.65178  0.65043  1.0000
  H   H437      1.0  0.08779  0.61026  0.57685  1.0000
  H   H438      1.0  0.10767  0.68385  0.89811  1.0000
  H   H439      1.0  0.26758  0.55467  0.66079  1.0000
  C   C255      1.0  0.09231  0.85019  0.96993  1.0000
  C   C256      1.0  0.30712  0.87490  0.66299  1.0000
  C   C257      1.0  0.13640  0.86240  0.92143  1.0000
  H   H440      1.0  0.12649  0.53782  0.58850  1.0000
  H   H441      1.0  0.30479  0.98297  0.58614  1.0000
  H   H442      1.0  0.22213  0.53018  0.72300  1.0000
  H   H443      1.0  0.33407  0.73744  0.83813  1.0000
  H   H444      1.0  0.18913  0.64197  0.54063  1.0000
  C   C258      1.0  0.20174  0.02143  0.78528  1.0000
  H   H445      1.0  0.15952  0.87742  0.91533  1.0000
  H   H446      1.0  0.11644  0.87327  0.90257  1.0000
  H   H447      1.0  0.22441  0.61928  0.52102  1.0000
  C   C259      1.0  0.29531  0.73497  0.93183  1.0000
  H   H448      1.0  0.24523  0.71861  0.94442  1.0000
  C   C260      1.0  0.04505  0.69782  0.54456  1.0000
  C   C261      1.0  0.27350  0.80717  0.52969  1.0000
  H   H449      1.0  0.28843  0.87743  0.63867  1.0000
  C   C262      1.0  0.15788  0.69548  0.87719  1.0000
  C   C263      1.0  0.05175  0.78069  0.63895  1.0000
  C   C264      1.0  0.15273  0.84582  0.98870  1.0000
  C   C265      1.0  0.34481  0.92107  0.64060  1.0000
  C   C266      1.0  0.07762  0.68550  0.52568  1.0000
  S   S65       1.0  0.34247  0.67921  0.64831  1.0000
  H   H450      1.0  0.25654  0.85710  0.71657  1.0000
  H   H451      1.0  0.09938  0.98862  0.83103  1.0000
  H   H452      1.0  0.20547  0.52820  0.79294  1.0000
  S   S66       1.0  0.24878  0.88746  0.97348  1.0000
  C   C267      1.0  0.06929  0.56812  0.61304  1.0000
  H   H453      1.0  0.24110  0.88990  0.68502  1.0000
  H   H454      1.0  0.29446  0.92164  0.69509  1.0000
  H   H455      1.0  0.07493  0.86067  0.94746  1.0000
  C   C268      1.0  0.35137  0.82708  0.61338  1.0000
  H   H456      1.0  0.03127  0.56556  0.54331  1.0000
  C   C269      1.0  0.33902  0.02385  0.96220  1.0000
  S   S67       1.0  0.07453  0.53152  0.84267  1.0000
  C   C270      1.0  0.14280  0.82672  0.90469  1.0000
  H   H457      1.0  0.18595  0.75264  0.83772  1.0000
  C   C271      1.0  0.14953  0.58219  0.98432  1.0000
  H   H458      1.0  0.06580  0.74812  0.54810  1.0000
  C   C272      1.0  0.12860  0.90146  0.97668  1.0000
  C   C273      1.0  0.15375  0.58789  0.93957  1.0000
  C   C274      1.0  0.12376  0.58953  0.64012  1.0000
  H   H459      1.0  0.12482  0.72241  0.91791  1.0000
  C   C275      1.0  0.13087  0.69628  0.90952  1.0000
  H   H460      1.0  0.29093  0.76206  0.93618  1.0000
  H   H461      1.0  0.07565  0.76746  0.63370  1.0000
  C   C276      1.0  0.05065  0.73126  0.56732  1.0000
  C   C277      1.0  0.10930  0.62226  0.65788  1.0000
  H   H462      1.0  0.32749  0.81591  0.62394  1.0000
  H   H463      1.0  0.13494  0.65673  0.61800  1.0000
  H   H464      1.0  0.16169  0.66891  0.86889  1.0000
  H   H465      1.0  0.25875  0.55999  0.58818  1.0000
  C   C278      1.0  0.06066  0.81585  0.65392  1.0000
  H   H466      1.0  0.10986  0.55049  0.70012  1.0000
  H   H467      1.0  0.14555  0.58358  0.65920  1.0000
  H   H468      1.0  0.13491  0.59448  0.61030  1.0000
  H   H469      1.0  0.16596  0.84458  0.84967  1.0000
  H   H470      1.0  0.12182  0.83469  0.84554  1.0000
  H   H471      1.0  0.03668  0.67827  0.56553  1.0000
  H   H472      1.0  0.15467  0.55552  0.98976  1.0000
  C   C279      1.0  0.07619  0.58523  0.57251  1.0000
  C   C280      1.0  0.25399  0.53266  0.58724  1.0000
  H   H473      1.0  0.34496  0.54212  0.74575  1.0000
  S   S68       1.0  0.33487  0.91632  0.00437  1.0000
  C   C281      1.0  0.29423  0.89439  0.70009  1.0000
  S   S69       1.0  0.22666  0.79182  0.97314  1.0000
  H   H474      1.0  0.08460  0.62835  0.64496  1.0000
  H   H475      1.0  0.10618  0.61987  0.69067  1.0000
  H   H476      1.0  0.35223  0.99949  0.96137  1.0000
  H   H477      1.0  0.18529  0.73680  0.90537  1.0000
  H   H478      1.0  0.12320  0.67441  0.66570  1.0000
  H   H479      1.0  0.17792  0.84797  0.97439  1.0000
  H   H480      1.0  0.35753  0.78389  0.57480  1.0000
  C   C282      1.0  0.25817  0.88417  0.71014  1.0000
  H   H481      1.0  0.07872  0.91623  0.95540  1.0000
  H   H482      1.0  0.30421  0.72466  0.96048  1.0000
  H   H483      1.0  0.16649  0.81669  0.91689  1.0000
  C   C283      1.0  0.04361  0.59003  0.54942  1.0000
  H   H484      1.0  0.30987  0.88914  0.72659  1.0000
  H   H485      1.0  0.14649  0.81866  0.98814  1.0000
  H   H486      1.0  0.14784  0.70846  0.85082  1.0000
  H   H487      1.0  0.34666  0.67270  0.53060  1.0000
  H   H488      1.0  0.12220  0.80917  0.91217  1.0000
  H   H489      1.0  0.14926  0.61438  0.93213  1.0000
  H   H490      1.0  0.05139  0.58398  0.63005  1.0000
  N   N16       1.0  0.09971  0.56032  0.63794  1.0000
  H   H491      1.0  0.32393  0.61542  0.53088  1.0000
  S   S70       1.0  0.05989  0.01837  0.68235  1.0000
  H   H492      1.0  0.13602  0.57177  0.92232  1.0000
  H   H493      1.0  0.34455  0.93571  0.66900  1.0000
  H   H494      1.0  0.03862  0.53605  0.73615  1.0000
  H   H495      1.0  0.07282  0.57284  0.69203  1.0000
  H   H496      1.0  0.23397  0.56257  0.78483  1.0000
  Fe  Fe34      1.0  0.06176  0.99378  0.74254  1.0000
  H   H497      1.0  0.32194  0.98652  0.63575  1.0000
  N   N17       1.0  0.34179  0.88421  0.64858  1.0000
  N   N18       1.0  0.12710  0.86498  0.96511  1.0000
  H   H498      1.0  0.09644  0.57467  0.98116  1.0000
  C   C284      1.0  0.08817  0.55216  0.67956  1.0000
  H   H499      1.0  0.31523  0.73149  0.90906  1.0000
  H   H500      1.0  0.16898  0.53624  0.64210  1.0000
  H   H501      1.0  0.03791  0.76798  0.66323  1.0000
  C   C285      1.0  0.10729  0.96044  0.96954  1.0000
  H   H502      1.0  0.15475  0.91112  0.97295  1.0000
  H   H503      1.0  0.23212  0.98740  0.81921  1.0000
  H   H504      1.0  0.13348  0.97011  0.96756  1.0000
  S   S71       1.0  0.27352  0.94736  0.51216  1.0000
  H   H505      1.0  0.27865  0.55752  0.73110  1.0000
  H   H506      1.0  0.07592  0.82935  0.63142  1.0000
  H   H507      1.0  0.09098  0.97677  0.95161  1.0000
  H   H508      1.0  0.36303  0.89138  0.70739  1.0000
  H   H509      1.0  0.04573  0.79659  0.57860  1.0000
  C   C286      1.0  0.28221  0.99509  0.96933  1.0000
  H   H510      1.0  0.09883  0.96154  0.00109  1.0000
  H   H511      1.0  0.32788  0.86987  0.58843  1.0000
  C   C287      1.0  0.34842  0.86548  0.61015  1.0000
  C   C288      1.0  0.31817  0.93565  0.61218  1.0000
  C   C289      1.0  0.32394  0.97307  0.60673  1.0000
  H   H512      1.0  0.29388  0.97045  0.96373  1.0000
  H   H513      1.0  0.03759  0.83026  0.66026  1.0000
  C   C290      1.0  0.35937  0.81141  0.57277  1.0000
  C   C291      1.0  0.30751  0.01913  0.98884  1.0000
  Fe  Fe35      1.0  0.06486  0.53417  0.90876  1.0000
  C   C292      1.0  0.11743  0.53119  0.61878  1.0000
  H   H514      1.0  0.32417  0.55521  0.68116  1.0000
  H   H515      1.0  0.05498  0.54477  0.60604  1.0000
  C   C293      1.0  0.15657  0.99575  0.68164  1.0000
  H   H516      1.0  0.04911  0.60197  0.52041  1.0000
  H   H517      1.0  0.17910  0.01379  0.80200  1.0000
  H   H518      1.0  0.29453  0.80098  0.00189  1.0000
  S   S72       1.0  0.36227  0.58309  0.61727  1.0000
  C   C294      1.0  0.11355  0.59143  0.99833  1.0000
  H   H519      1.0  0.16903  0.59744  0.99976  1.0000
  H   H520      1.0  0.20328  0.00483  0.75866  1.0000
  C   C295      1.0  0.23206  0.01428  0.81152  1.0000
  H   H521      1.0  0.34910  0.97792  0.59362  1.0000
  H   H522      1.0  0.36109  0.73856  0.52717  1.0000
  H   H523      1.0  0.26039  0.99135  0.98944  1.0000
  H   H524      1.0  0.27297  0.00511  0.94068  1.0000
  C   C296      1.0  0.23177  0.53492  0.78519  1.0000
  C   C297      1.0  0.27702  0.52977  0.73217  1.0000
  C   C298      1.0  0.32496  0.52799  0.68696  1.0000
  C   C299      1.0  0.36413  0.65206  0.53559  1.0000
  H   H525      1.0  0.36252  0.84949  0.69087  1.0000
  H   H526      1.0  0.22702  0.52772  0.59339  1.0000
  H   H527      1.0  0.07276  0.66148  0.50972  1.0000
  H   H528      1.0  0.12282  0.90535  0.00870  1.0000
  Fe  Fe36      1.0  0.43069  0.32956  0.29939  1.0000
  S   S73       1.0  0.42731  0.27355  0.30099  1.0000
  S   S74       1.0  0.47640  0.35454  0.32782  1.0000
  H   H529      1.0  0.50143  0.35493  0.24700  1.0000
  H   H530      1.0  0.59434  0.04335  0.39944  1.0000
  C   C300      1.0  0.55987  0.03076  0.47170  1.0000
  Fe  Fe37      1.0  0.41307  0.27485  0.23612  1.0000
  S   S75       1.0  0.43427  0.24821  0.18113  1.0000
  C   C301      1.0  0.53335  0.36988  0.08861  1.0000
  S   S76       1.0  0.42101  0.33043  0.23366  1.0000
  Fe  Fe38      1.0  0.55022  0.08198  0.04808  1.0000
  H   H531      1.0  0.68557  0.11485  0.04449  1.0000
  S   S77       1.0  0.57656  0.12501  0.01773  1.0000
  Fe  Fe39      1.0  0.49958  0.06938  0.11417  1.0000
  S   S78       1.0  0.46693  0.09314  0.16215  1.0000
  S   S79       1.0  0.49397  0.07883  0.04867  1.0000
  H   H532      1.0  0.46291  0.46895  0.22861  1.0000
  H   H533      1.0  0.42124  0.07313  0.01813  1.0000
  S   S80       1.0  0.60668  0.42656  0.11663  1.0000
  H   H534      1.0  0.42212  0.03654  0.07644  1.0000
  S   S81       1.0  0.47780  0.49641  0.41533  1.0000
  S   S82       1.0  0.51671  0.46772  0.11021  1.0000
  H   H535      1.0  0.40435  0.27829  0.09920  1.0000
  H   H536      1.0  0.37349  0.24775  0.08631  1.0000
  C   C302      1.0  0.65384  0.45821  0.16564  1.0000
  C   C303      1.0  0.64436  0.42945  0.14438  1.0000
  C   C304      1.0  0.66462  0.40110  0.14640  1.0000
  H   H537      1.0  0.54957  0.18882  0.01805  1.0000
  C   C305      1.0  0.37397  0.39398  0.47088  1.0000
  H   H538      1.0  0.41130  0.44928  0.49825  1.0000
  H   H539      1.0  0.65688  0.37858  0.13082  1.0000
  H   H540      1.0  0.47594  0.52108  0.26089  1.0000
  C   C306      1.0  0.68823  0.03446  0.14655  1.0000
  C   C307      1.0  0.53363  0.32422  0.21160  1.0000
  H   H541      1.0  0.42460  0.07970  0.09158  1.0000
  S   S83       1.0  0.57529  0.52550  0.42397  1.0000
  C   C308      1.0  0.39799  0.07111  0.03605  1.0000
  S   S84       1.0  0.63853  0.49514  0.49906  1.0000
  Fe  Fe40      1.0  0.50542  0.46032  0.04489  1.0000
  H   H542      1.0  0.38669  0.30847  0.39453  1.0000
  H   H543      1.0  0.41702  0.52388  0.28313  1.0000
  C   C309      1.0  0.38754  0.26970  0.07495  1.0000
  C   C310      1.0  0.44385  0.20515  0.17694  1.0000
  C   C311      1.0  0.46042  0.19340  0.14256  1.0000
  C   C312      1.0  0.46817  0.15933  0.13777  1.0000
  C   C313      1.0  0.45897  0.13653  0.16724  1.0000
  C   C314      1.0  0.44228  0.14830  0.20150  1.0000
  C   C315      1.0  0.43493  0.18242  0.20650  1.0000
  H   H544      1.0  0.46725  0.21084  0.11957  1.0000
  H   H545      1.0  0.48096  0.15064  0.11124  1.0000
  H   H546      1.0  0.43501  0.13090  0.22441  1.0000
  H   H547      1.0  0.42211  0.19105  0.23306  1.0000
  C   C316      1.0  0.47621  0.39404  0.35192  1.0000
  C   C317      1.0  0.50544  0.40548  0.37132  1.0000
  C   C318      1.0  0.50636  0.43674  0.39090  1.0000
  C   C319      1.0  0.47809  0.45704  0.39082  1.0000
  C   C320      1.0  0.44896  0.44576  0.37097  1.0000
  C   C321      1.0  0.44790  0.41431  0.35180  1.0000
  H   H548      1.0  0.52745  0.38996  0.37150  1.0000
  H   H549      1.0  0.52889  0.44509  0.40614  1.0000
  H   H550      1.0  0.42705  0.46140  0.37061  1.0000
  H   H551      1.0  0.42534  0.40587  0.33673  1.0000
  N   N19       1.0  0.68120  0.08214  0.09544  1.0000
  C   C322      1.0  0.43403  0.29501  0.41830  1.0000
  H   H552      1.0  0.54221  0.39497  0.07937  1.0000
  H   H553      1.0  0.50596  0.24719  0.04764  1.0000
  H   H554      1.0  0.55541  0.32761  0.23186  1.0000
  C   C323      1.0  0.39813  0.45281  0.46946  1.0000
  H   H555      1.0  0.38638  0.09601  0.03939  1.0000
  S   S85       1.0  0.37679  0.33785  0.31573  1.0000
  C   C324      1.0  0.40052  0.34117  0.12339  1.0000
  C   C325      1.0  0.41617  0.37370  0.13877  1.0000
  H   H556      1.0  0.63827  0.48010  0.16467  1.0000
  H   H557      1.0  0.44874  0.31084  0.39749  1.0000
  H   H558      1.0  0.44740  0.29370  0.44724  1.0000
  C   C326      1.0  0.39882  0.30889  0.42413  1.0000
  H   H559      1.0  0.48638  0.34821  0.19810  1.0000
  H   H560      1.0  0.50604  0.29343  0.25408  1.0000
  H   H561      1.0  0.57308  0.38045  0.22832  1.0000
  Fe  Fe41      1.0  0.59111  0.52559  0.48859  1.0000
  H   H562      1.0  0.49324  0.38880  0.12414  1.0000
  H   H563      1.0  0.49799  0.42838  0.26758  1.0000
  C   C327      1.0  0.65937  0.06031  0.06903  1.0000
  Fe  Fe42      1.0  0.57123  0.46616  0.09279  1.0000
  C   C328      1.0  0.61015  0.03736  0.42558  1.0000
  H   H564      1.0  0.58638  0.43588  0.28860  1.0000
  H   H565      1.0  0.57480  0.43823  0.19805  1.0000
  H   H566      1.0  0.53343  0.27069  0.22097  1.0000
  C   C329      1.0  0.68405  0.38048  0.03202  1.0000
  Fe  Fe43      1.0  0.51826  0.52239  0.09680  1.0000
  H   H567      1.0  0.41763  0.33132  0.10004  1.0000
  H   H568      1.0  0.67884  0.37923  0.37489  1.0000
  C   C330      1.0  0.39481  0.41968  0.44671  1.0000
  C   C331      1.0  0.59457  0.43960  0.25728  1.0000
  H   H569      1.0  0.41885  0.51265  0.23090  1.0000
  C   C332      1.0  0.63446  0.12631  0.10431  1.0000
  C   C333      1.0  0.40955  0.25754  0.04066  1.0000
  H   H570      1.0  0.53417  0.23822  0.11181  1.0000
  H   H571      1.0  0.67932  0.39567  0.05931  1.0000
  H   H572      1.0  0.61735  0.06087  0.44140  1.0000
  H   H573      1.0  0.68506  0.06491  0.38873  1.0000
  H   H574      1.0  0.61559  0.11282  0.08599  1.0000
  H   H575      1.0  0.43141  0.43651  0.22272  1.0000
  H   H576      1.0  0.64782  0.14434  0.08498  1.0000
  H   H577      1.0  0.43826  0.52032  0.12777  1.0000
  H   H578      1.0  0.53646  0.49001  0.30217  1.0000
  H   H579      1.0  0.60142  0.12950  0.15617  1.0000
  H   H580      1.0  0.44287  0.17941  0.05212  1.0000
  H   H581      1.0  0.57057  0.51334  0.32556  1.0000
  H   H582      1.0  0.64208  0.08363  0.14059  1.0000
  H   H583      1.0  0.50418  0.20454  0.06201  1.0000
  H   H584      1.0  0.63317  0.16207  0.15380  1.0000
  C   C334      1.0  0.37249  0.04623  0.01727  1.0000
  H   H585      1.0  0.42422  0.27856  0.02789  1.0000
  H   H586      1.0  0.61971  0.40512  0.03501  1.0000
  C   C335      1.0  0.65855  0.10106  0.12373  1.0000
  H   H587      1.0  0.64314  0.07580  0.05002  1.0000
  H   H588      1.0  0.68994  0.48034  0.20633  1.0000
  H   H589      1.0  0.54290  0.39376  0.26360  1.0000
  H   H590      1.0  0.64215  0.34853  0.05159  1.0000
  H   H591      1.0  0.37066  0.36312  0.07924  1.0000
  H   H592      1.0  0.49449  0.28662  0.20247  1.0000
  H   H593      1.0  0.56408  0.25218  0.07505  1.0000
  C   C336      1.0  0.68315  0.45827  0.18919  1.0000
  Fe  Fe44      1.0  0.55963  0.51248  0.02177  1.0000
  H   H594      1.0  0.59724  0.16285  0.12120  1.0000
  C   C337      1.0  0.40019  0.34502  0.44126  1.0000
  C   C338      1.0  0.54349  0.50670  0.32754  1.0000
  H   H595      1.0  0.41433  0.35979  0.41877  1.0000
  H   H596      1.0  0.50495  0.43699  0.19182  1.0000
  H   H597      1.0  0.44220  0.45192  0.27185  1.0000
  C   C339      1.0  0.51575  0.29183  0.22304  1.0000
  C   C340      1.0  0.56536  0.43343  0.22855  1.0000
  H   H598      1.0  0.38762  0.38978  0.49935  1.0000
  H   H599      1.0  0.61561  0.42256  0.25017  1.0000
  H   H600      1.0  0.42728  0.23881  0.05205  1.0000
  C   C341      1.0  0.53809  0.21324  0.01137  1.0000
  H   H601      1.0  0.50535  0.34680  0.13533  1.0000
  H   H602      1.0  0.38479  0.29164  0.44384  1.0000
  S   S86       1.0  0.55548  0.07647  0.11422  1.0000
  N   N20       1.0  0.52378  0.38757  0.20337  1.0000
  C   C342      1.0  0.49602  0.41279  0.20403  1.0000
  C   C343      1.0  0.53832  0.38614  0.16185  1.0000
  H   H603      1.0  0.49561  0.15857  0.02174  1.0000
  C   C344      1.0  0.51490  0.37213  0.12850  1.0000
  H   H604      1.0  0.47547  0.40479  0.18376  1.0000
  S   S87       1.0  0.46607  0.41870  0.03813  1.0000
  H   H605      1.0  0.54559  0.41154  0.15229  1.0000
  H   H606      1.0  0.56210  0.37185  0.16132  1.0000
  H   H607      1.0  0.54305  0.32100  0.18071  1.0000
  H   H608      1.0  0.40028  0.38510  0.16237  1.0000
  H   H609      1.0  0.68911  0.05074  0.01539  1.0000
  H   H610      1.0  0.51602  0.36006  0.06525  1.0000
  C   C345      1.0  0.52112  0.22449  0.05099  1.0000
  S   S88       1.0  0.67931  0.08283  0.48899  1.0000
  C   C346      1.0  0.55132  0.39731  0.23222  1.0000
  Fe  Fe45      1.0  0.52237  0.52206  0.44616  1.0000
  H   H611      1.0  0.41980  0.39164  0.11407  1.0000
  H   H612      1.0  0.67385  0.11493  0.14642  1.0000
  C   C347      1.0  0.47942  0.41948  0.24516  1.0000
  H   H613      1.0  0.68398  0.04772  0.33882  1.0000
  C   C348      1.0  0.45232  0.44589  0.24179  1.0000
  C   C349      1.0  0.61551  0.14635  0.13596  1.0000
  C   C350      1.0  0.50954  0.35419  0.21531  1.0000
  H   H614      1.0  0.38281  0.42490  0.41768  1.0000
  C   C351      1.0  0.69450  0.40153  0.16872  1.0000
  H   H615      1.0  0.43221  0.26948  0.40519  1.0000
  H   H616      1.0  0.55520  0.35306  0.09070  1.0000
  H   H617      1.0  0.68842  0.33461  0.26610  1.0000
  H   H618      1.0  0.37655  0.31429  0.04090  1.0000
  H   H619      1.0  0.54586  0.45207  0.23572  1.0000
  C   C352      1.0  0.44192  0.16311  0.02516  1.0000
  H   H620      1.0  0.56215  0.20864  0.08894  1.0000
  H   H621      1.0  0.67103  0.04526  0.16913  1.0000
  H   H622      1.0  0.39955  0.32377  0.14870  1.0000
  H   H623      1.0  0.46702  0.39663  0.25649  1.0000
  H   H624      1.0  0.57011  0.05198  0.49001  1.0000
  H   H625      1.0  0.65005  0.42136  0.41814  1.0000
  Fe  Fe46      1.0  0.37242  0.28190  0.31354  1.0000
  H   H626      1.0  0.60390  0.46565  0.25425  1.0000
  C   C353      1.0  0.67777  0.03632  0.04013  1.0000
  H   H627      1.0  0.41306  0.47074  0.45152  1.0000
  H   H628      1.0  0.41614  0.34484  0.46855  1.0000
  H   H629      1.0  0.44090  0.36808  0.15178  1.0000
  H   H630      1.0  0.53925  0.49286  0.35551  1.0000
  H   H631      1.0  0.42065  0.41067  0.44128  1.0000
  H   H632      1.0  0.68835  0.31982  0.06718  1.0000
  S   S89       1.0  0.50371  0.51571  0.03238  1.0000
  S   S90       1.0  0.55974  0.45652  0.02814  1.0000
  H   H633      1.0  0.47615  0.05201  0.49918  1.0000
  H   H634      1.0  0.43803  0.13705  0.03505  1.0000
  C   C354      1.0  0.54711  0.23131  0.08359  1.0000
  H   H635      1.0  0.51395  0.07539  0.48899  1.0000
  C   C355      1.0  0.40810  0.06029  0.07783  1.0000
  H   H636      1.0  0.64135  0.04565  0.08729  1.0000
  C   C356      1.0  0.65055  0.36132  0.02408  1.0000
  H   H637      1.0  0.37299  0.44043  0.18869  1.0000
  H   H638      1.0  0.42422  0.36098  0.02549  1.0000
  H   H639      1.0  0.54607  0.04262  0.44683  1.0000
  H   H640      1.0  0.38574  0.05716  0.09726  1.0000
  H   H641      1.0  0.39384  0.24567  0.01704  1.0000
  S   S91       1.0  0.57427  0.52177  0.08565  1.0000
  H   H642      1.0  0.37309  0.46376  0.47516  1.0000
  Fe  Fe47      1.0  0.36674  0.33389  0.24995  1.0000
  C   C357      1.0  0.67463  0.43441  0.42137  1.0000
  N   N21       1.0  0.36675  0.36086  0.45051  1.0000
  H   H643      1.0  0.67473  0.44800  0.45035  1.0000
  H   H644      1.0  0.67750  0.45297  0.39725  1.0000
  H   H645      1.0  0.36450  0.37793  0.38963  1.0000
  C   C358      1.0  0.36549  0.34720  0.10545  1.0000
  H   H646      1.0  0.36493  0.32368  0.49716  1.0000
  S   S92       1.0  0.55672  0.02771  0.03526  1.0000
  C   C359      1.0  0.62278  0.38518  0.01211  1.0000
  Fe  Fe48      1.0  0.39893  0.28649  0.88156  1.0000
  S   S93       1.0  0.40864  0.24902  0.92896  1.0000
  S   S94       1.0  0.42639  0.33632  0.88085  1.0000
  H   H647      1.0  0.64544  0.13805  0.52904  1.0000
  H   H648      1.0  0.47736  0.27025  0.98542  1.0000
  C   C360      1.0  0.63688  0.14589  0.98767  1.0000
  Fe  Fe49      1.0  0.41189  0.21160  0.87855  1.0000
  S   S95       1.0  0.45418  0.17416  0.87624  1.0000
  H   H649      1.0  0.47356  0.14730  0.97691  1.0000
  S   S96       1.0  0.40636  0.24972  0.83087  1.0000
  H   H650      1.0  0.46893  0.21951  0.00530  1.0000
  H   H651      1.0  0.61894  0.38315  0.51124  1.0000
  S   S97       1.0  0.56333  0.08682  0.61942  1.0000
  H   H652      1.0  0.51482  0.09835  0.55662  1.0000
  H   H653      1.0  0.64635  0.03116  0.53312  1.0000
  H   H654      1.0  0.40876  0.05976  0.66241  1.0000
  H   H655      1.0  0.65289  0.34241  0.99989  1.0000
  C   C361      1.0  0.49577  0.15771  0.62181  1.0000
  H   H656      1.0  0.47693  0.17000  0.56278  1.0000
  H   H657      1.0  0.67565  0.32011  0.62991  1.0000
  H   H658      1.0  0.52789  0.30883  0.93357  1.0000
  H   H659      1.0  0.60693  0.38900  0.56303  1.0000
  C   C362      1.0  0.41692  0.11125  0.64368  1.0000
  C   C363      1.0  0.66526  0.48203  0.61562  1.0000
  C   C364      1.0  0.64696  0.49088  0.58139  1.0000
  C   C365      1.0  0.66102  0.48661  0.54347  1.0000
  H   H660      1.0  0.60152  0.03195  0.58480  1.0000
  H   H661      1.0  0.63060  0.03970  0.78198  1.0000
  H   H662      1.0  0.65409  0.48521  0.64480  1.0000
  H   H663      1.0  0.62187  0.50060  0.58432  1.0000
  C   C366      1.0  0.52081  0.03153  0.52792  1.0000
  H   H664      1.0  0.39159  0.11631  0.97927  1.0000
  H   H665      1.0  0.68394  0.16315  0.96340  1.0000
  H   H666      1.0  0.55944  0.04659  0.80950  1.0000
  C   C367      1.0  0.61078  0.05504  0.57242  1.0000
  C   C368      1.0  0.59718  0.08532  0.58524  1.0000
  H   H667      1.0  0.60780  0.07849  0.78162  1.0000
  C   C369      1.0  0.62150  0.08869  0.97247  1.0000
  C   C370      1.0  0.50265  0.30387  0.94637  1.0000
  H   H668      1.0  0.56615  0.06461  0.91004  1.0000
  H   H669      1.0  0.43930  0.10427  0.70160  1.0000
  H   H670      1.0  0.43913  0.22254  0.69446  1.0000
  C   C371      1.0  0.45351  0.14147  0.84046  1.0000
  C   C372      1.0  0.48282  0.12321  0.83319  1.0000
  C   C373      1.0  0.48262  0.09598  0.80630  1.0000
  C   C374      1.0  0.45292  0.08658  0.78688  1.0000
  C   C375      1.0  0.42372  0.10504  0.79387  1.0000
  C   C376      1.0  0.42406  0.13259  0.82022  1.0000
  H   H671      1.0  0.50577  0.13020  0.84841  1.0000
  H   H672      1.0  0.50524  0.08199  0.80103  1.0000
  H   H673      1.0  0.40061  0.09778  0.77913  1.0000
  H   H674      1.0  0.40133  0.14643  0.82564  1.0000
  C   C377      1.0  0.43759  0.35851  0.92506  1.0000
  C   C378      1.0  0.45962  0.38602  0.92257  1.0000
  C   C379      1.0  0.46907  0.40435  0.95696  1.0000
  C   C380      1.0  0.45619  0.39556  0.99421  1.0000
  C   C381      1.0  0.43427  0.36791  0.99678  1.0000
  C   C382      1.0  0.42511  0.34935  0.96244  1.0000
  H   H675      1.0  0.46945  0.39323  0.89383  1.0000
  H   H676      1.0  0.48590  0.42557  0.95456  1.0000
  C   C383      1.0  0.42017  0.04999  0.87947  1.0000
  H   H677      1.0  0.40815  0.32824  0.96479  1.0000
  H   H678      1.0  0.38573  0.20378  0.75649  1.0000
  H   H679      1.0  0.49535  0.17979  0.71355  1.0000
  N   N22       1.0  0.51602  0.21043  0.97479  1.0000
  C   C384      1.0  0.65142  0.08513  0.95058  1.0000
  H   H680      1.0  0.38831  0.07058  0.61648  1.0000
  H   H681      1.0  0.52930  0.09120  0.95983  1.0000
  H   H682      1.0  0.50779  0.03735  0.93096  1.0000
  C   C385      1.0  0.49941  0.17488  0.58159  1.0000
  C   C386      1.0  0.57700  0.15845  0.90677  1.0000
  H   H683      1.0  0.39924  0.24506  0.74243  1.0000
  H   H684      1.0  0.37005  0.06595  0.89336  1.0000
  C   C387      1.0  0.66093  0.38937  0.55250  1.0000
  H   H685      1.0  0.51944  0.16261  0.63839  1.0000
  C   C388      1.0  0.63598  0.11489  0.54112  1.0000
  C   C389      1.0  0.66678  0.14231  0.96591  1.0000
  C   C390      1.0  0.66625  0.35137  0.55847  1.0000
  H   H686      1.0  0.62868  0.39689  0.98306  1.0000
  H   H687      1.0  0.52024  0.28068  0.99904  1.0000
  C   C391      1.0  0.41147  0.07417  0.63446  1.0000
  C   C392      1.0  0.60762  0.05325  0.83892  1.0000
  C   C393      1.0  0.39575  0.21899  0.73161  1.0000
  H   H688      1.0  0.50293  0.20221  0.58582  1.0000
  C   C394      1.0  0.36861  0.11561  0.96095  1.0000
  H   H689      1.0  0.41235  0.06875  0.95432  1.0000
  H   H690      1.0  0.54068  0.04152  0.54836  1.0000
  H   H691      1.0  0.54470  0.07803  0.86703  1.0000
  H   H692      1.0  0.64470  0.34166  0.57621  1.0000
  H   H693      1.0  0.63130  0.16957  0.00180  1.0000
  H   H694      1.0  0.66606  0.40415  0.57990  1.0000
  C   C395      1.0  0.56571  0.18876  0.93127  1.0000
  H   H695      1.0  0.65731  0.28492  0.56842  1.0000
  C   C396      1.0  0.49163  0.08571  0.54572  1.0000
  H   H696      1.0  0.55981  0.23019  0.00550  1.0000
  C   C397      1.0  0.68389  0.27778  0.57228  1.0000
  H   H697      1.0  0.66068  0.37833  0.63706  1.0000
  C   C398      1.0  0.67427  0.11190  0.94732  1.0000
  H   H698      1.0  0.49990  0.10373  0.72311  1.0000
  C   C399      1.0  0.51188  0.05889  0.91131  1.0000
  C   C400      1.0  0.57490  0.03273  0.83130  1.0000
  C   C401      1.0  0.64903  0.08458  0.52758  1.0000
  H   H699      1.0  0.51278  0.17991  0.92118  1.0000
  C   C402      1.0  0.39403  0.04830  0.94858  1.0000
  C   C403      1.0  0.61430  0.11907  0.99129  1.0000
  C   C404      1.0  0.63624  0.05468  0.54328  1.0000
  H   H700      1.0  0.58369  0.19272  0.95614  1.0000
  H   H701      1.0  0.57531  0.13538  0.92459  1.0000
  H   H702      1.0  0.48456  0.09048  0.95235  1.0000
  C   C405      1.0  0.68710  0.36535  0.68988  1.0000
  C   C406      1.0  0.60989  0.11519  0.56948  1.0000
  H   H703      1.0  0.65694  0.06161  0.93602  1.0000
  C   C407      1.0  0.50321  0.27391  0.97404  1.0000
  C   C408      1.0  0.54584  0.05725  0.88878  1.0000
  H   H704      1.0  0.43158  0.07506  0.88472  1.0000
  H   H705      1.0  0.67781  0.39899  0.52889  1.0000
  H   H706      1.0  0.68792  0.39872  0.00753  1.0000
  Fe  Fe50      1.0  0.49386  0.02890  0.72025  1.0000
  C   C409      1.0  0.38760  0.04635  0.90298  1.0000
  C   C410      1.0  0.69022  0.24684  0.54647  1.0000
  H   H707      1.0  0.42183  0.12388  0.61501  1.0000
  H   H708      1.0  0.36684  0.16962  0.96236  1.0000
  H   H709      1.0  0.44667  0.20546  0.74301  1.0000
  H   H710      1.0  0.49313  0.13066  0.61576  1.0000
  H   H711      1.0  0.64813  0.07652  0.80568  1.0000
  C   C411      1.0  0.46574  0.17171  0.64575  1.0000
  C   C412      1.0  0.42457  0.16935  0.69978  1.0000
  C   C413      1.0  0.69359  0.47365  0.54030  1.0000
  H   H712      1.0  0.47174  0.15260  0.74441  1.0000
  H   H713      1.0  0.46433  0.20248  0.95722  1.0000
  C   C414      1.0  0.44629  0.11705  0.67347  1.0000
  Fe  Fe51      1.0  0.54481  0.04177  0.65370  1.0000
  H   H714      1.0  0.50152  0.23934  0.92373  1.0000
  C   C415      1.0  0.48017  0.20117  0.98451  1.0000
  H   H715      1.0  0.52984  0.15922  0.96295  1.0000
  C   C416      1.0  0.48280  0.15483  0.71396  1.0000
  H   H716      1.0  0.56721  0.21038  0.91106  1.0000
  C   C417      1.0  0.54025  0.13739  0.73863  1.0000
  S   S98       1.0  0.45057  0.05098  0.75543  1.0000
  H   H717      1.0  0.41371  0.15375  0.72405  1.0000
  H   H718      1.0  0.47308  0.19776  0.65360  1.0000
  N   N23       1.0  0.45550  0.15297  0.68266  1.0000
  H   H719      1.0  0.60277  0.07675  0.85563  1.0000
  H   H720      1.0  0.55881  0.11696  0.73835  1.0000
  H   H721      1.0  0.62224  0.42371  0.53455  1.0000
  H   H722      1.0  0.60352  0.16199  0.89734  1.0000
  H   H723      1.0  0.49117  0.05932  0.88930  1.0000
  S   S99       1.0  0.48925  0.03196  0.65372  1.0000
  C   C418      1.0  0.51626  0.24259  0.95185  1.0000
  C   C419      1.0  0.50922  0.09040  0.93693  1.0000
  H   H724      1.0  0.40475  0.17122  0.67664  1.0000
  C   C420      1.0  0.51034  0.12772  0.71228  1.0000
  C   C421      1.0  0.68646  0.37059  0.64481  1.0000
  C   C422      1.0  0.52954  0.18351  0.94739  1.0000
  H   H725      1.0  0.53210  0.14194  0.76986  1.0000
  H   H726      1.0  0.49494  0.32640  0.96346  1.0000
  H   H727      1.0  0.54216  0.24944  0.94272  1.0000
  H   H728      1.0  0.66309  0.33972  0.52836  1.0000
  S   S100      1.0  0.54853  0.04257  0.72061  1.0000
  H   H729      1.0  0.39304  0.12052  0.65642  1.0000
  H   H730      1.0  0.59952  0.13873  0.57924  1.0000
  H   H731      1.0  0.44404  0.17416  0.62524  1.0000
  H   H732      1.0  0.68434  0.25173  0.51474  1.0000
  H   H733      1.0  0.46797  0.10298  0.66176  1.0000
  H   H734      1.0  0.67406  0.22587  0.55664  1.0000
  H   H735      1.0  0.43275  0.06424  0.61688  1.0000
  H   H736      1.0  0.48447  0.29952  0.92172  1.0000
  H   H737      1.0  0.66826  0.34620  0.69866  1.0000
  H   H738      1.0  0.56118  0.15533  0.87972  1.0000
  H   H739      1.0  0.60380  0.06817  0.97436  1.0000
  H   H740      1.0  0.55279  0.16021  0.72717  1.0000
  H   H741      1.0  0.51994  0.12294  0.68192  1.0000
  S   S101      1.0  0.53793  0.51779  0.51064  1.0000
  H   H742      1.0  0.52172  0.16496  0.56571  1.0000
  H   H743      1.0  0.51104  0.11290  0.91812  1.0000
  C   C423      1.0  0.62503  0.39654  0.53953  1.0000
  H   H744      1.0  0.68785  0.27051  0.60378  1.0000
  C   C424      1.0  0.47475  0.16576  0.00182  1.0000
  H   H745      1.0  0.41492  0.04701  0.84711  1.0000
  H   H746      1.0  0.68105  0.38917  0.70541  1.0000
  C   C425      1.0  0.42927  0.20517  0.71717  1.0000
  H   H747      1.0  0.47933  0.07259  0.57084  1.0000
  H   H748      1.0  0.37704  0.21912  0.70709  1.0000
  H   H749      1.0  0.47436  0.10499  0.53451  1.0000
  H   H750      1.0  0.39311  0.51024  0.68489  1.0000
  H   H751      1.0  0.37673  0.11543  0.92926  1.0000
  C   C426      1.0  0.62447  0.06251  0.79956  1.0000
  H   H752      1.0  0.42041  0.17041  0.00628  1.0000
  H   H753      1.0  0.62588  0.03848  0.85610  1.0000
  C   C427      1.0  0.69567  0.33831  0.62188  1.0000
  H   H754      1.0  0.59859  0.37139  0.00923  1.0000
  H   H755      1.0  0.43811  0.03038  0.88820  1.0000
  C   C428      1.0  0.50019  0.06126  0.51215  1.0000
  H   H756      1.0  0.40346  0.52614  0.73391  1.0000
  C   C429      1.0  0.46108  0.54286  0.25166  1.0000
  H   H757      1.0  0.60917  0.58988  0.06338  1.0000
  Fe  Fe52      1.0  0.64894  0.85417  0.27869  1.0000
  S   S102      1.0  0.64507  0.79915  0.26531  1.0000
  S   S103      1.0  0.60476  0.88730  0.26381  1.0000
  Fe  Fe53      1.0  0.66637  0.79113  0.32662  1.0000
  S   S104      1.0  0.64833  0.75867  0.37825  1.0000
  H   H758      1.0  0.39483  0.83223  0.01547  1.0000
  S   S105      1.0  0.66595  0.84608  0.34178  1.0000
  H   H759      1.0  0.66552  0.70932  0.49059  1.0000
  H   H760      1.0  0.58798  0.66330  0.07025  1.0000
  C   C430      1.0  0.46826  0.57324  0.27945  1.0000
  H   H761      1.0  0.57327  0.68960  0.01567  1.0000
  C   C431      1.0  0.46821  0.67019  0.49087  1.0000
  H   H762      1.0  0.37810  0.94608  0.06323  1.0000
  H   H763      1.0  0.51228  0.93988  0.07448  1.0000
  H   H764      1.0  0.43283  0.97616  0.05926  1.0000
  H   H765      1.0  0.53034  0.54091  0.26391  1.0000
  S   S106      1.0  0.49698  0.56439  0.13547  1.0000
  Fe  Fe54      1.0  0.57088  0.58108  0.43076  1.0000
  S   S107      1.0  0.58801  0.61068  0.37660  1.0000
  H   H766      1.0  0.56482  0.86734  0.04671  1.0000
  C   C432      1.0  0.63004  0.71813  0.37640  1.0000
  C   C433      1.0  0.61651  0.70463  0.41153  1.0000
  C   C434      1.0  0.60314  0.67196  0.41200  1.0000
  C   C435      1.0  0.60322  0.65240  0.37722  1.0000
  C   C436      1.0  0.61625  0.66605  0.34194  1.0000
  C   C437      1.0  0.62965  0.69873  0.34148  1.0000
  H   H767      1.0  0.61631  0.71957  0.43857  1.0000
  H   H768      1.0  0.59300  0.66182  0.43926  1.0000
  H   H769      1.0  0.61639  0.65110  0.31488  1.0000
  H   H770      1.0  0.63999  0.70877  0.31426  1.0000
  C   C438      1.0  0.60320  0.96371  0.16265  1.0000
  C   C439      1.0  0.63352  0.94895  0.17387  1.0000
  C   C440      1.0  0.63439  0.92540  0.20460  1.0000
  C   C441      1.0  0.60486  0.91645  0.22455  1.0000
  C   C442      1.0  0.57456  0.93126  0.21331  1.0000
  C   C443      1.0  0.57366  0.95472  0.18241  1.0000
  H   H771      1.0  0.65650  0.95580  0.15886  1.0000
  H   H772      1.0  0.65789  0.91436  0.21312  1.0000
  H   H773      1.0  0.55163  0.92457  0.22869  1.0000
  H   H774      1.0  0.55016  0.96590  0.17407  1.0000
  H   H775      1.0  0.57329  0.60874  0.04009  1.0000
  C   C444      1.0  0.36920  0.83654  0.07235  1.0000
  H   H776      1.0  0.65677  0.65915  0.46670  1.0000
  H   H777      1.0  0.42328  0.74106  0.50235  1.0000
  C   C445      1.0  0.42115  0.96632  0.03244  1.0000
  C   C446      1.0  0.52552  0.91999  0.05761  1.0000
  C   C447      1.0  0.66925  0.75294  0.10711  1.0000
  C   C448      1.0  0.40700  0.71851  0.49855  1.0000
  C   C449      1.0  0.58900  0.71260  0.01542  1.0000
  H   H778      1.0  0.49563  0.52991  0.33074  1.0000
  C   C450      1.0  0.38564  0.57888  0.16795  1.0000
  C   C451      1.0  0.40888  0.60502  0.17266  1.0000
  C   C452      1.0  0.44267  0.60048  0.16155  1.0000
  C   C453      1.0  0.45357  0.56997  0.14523  1.0000
  H   H779      1.0  0.36601  0.88477  0.10185  1.0000
  H   H780      1.0  0.38322  0.81649  0.16779  1.0000
  H   H781      1.0  0.46048  0.62075  0.16556  1.0000
  H   H782      1.0  0.67398  0.01635  0.12779  1.0000
  C   C454      1.0  0.50623  0.67524  0.48805  1.0000
  N   N24       1.0  0.50410  0.58585  0.28057  1.0000
  H   H783      1.0  0.67545  0.93057  0.42851  1.0000
  C   C455      1.0  0.50763  0.61471  0.30988  1.0000
  C   C456      1.0  0.51241  0.59879  0.23951  1.0000
  H   H784      1.0  0.69233  0.73781  0.05268  1.0000
  C   C457      1.0  0.42395  0.53289  0.25301  1.0000
  H   H785      1.0  0.67387  0.90072  0.11308  1.0000
  C   C458      1.0  0.54671  0.61723  0.23516  1.0000
  C   C459      1.0  0.36649  0.75970  0.46921  1.0000
  C   C460      1.0  0.49534  0.64202  0.37708  1.0000
  C   C461      1.0  0.36974  0.85842  0.11084  1.0000
  H   H786      1.0  0.53383  0.97935  0.41625  1.0000
  C   C462      1.0  0.65169  0.70173  0.06682  1.0000
  H   H787      1.0  0.45132  0.59380  0.27049  1.0000
  C   C463      1.0  0.68735  0.72357  0.47885  1.0000
  H   H788      1.0  0.53438  0.61822  0.31873  1.0000
  H   H789      1.0  0.50037  0.63849  0.29548  1.0000
  H   H790      1.0  0.49257  0.61612  0.22935  1.0000
  H   H791      1.0  0.46321  0.64294  0.49291  1.0000
  H   H792      1.0  0.49599  0.01520  0.45378  1.0000
  H   H793      1.0  0.55440  0.56910  0.29328  1.0000
  H   H794      1.0  0.62801  0.70356  0.08395  1.0000
  C   C464      1.0  0.43023  0.54400  0.14004  1.0000
  H   H795      1.0  0.66754  0.63001  0.40063  1.0000
  H   H796      1.0  0.61185  0.83113  0.04102  1.0000
  H   H797      1.0  0.39905  0.88656  0.17974  1.0000
  H   H798      1.0  0.54806  0.63979  0.25461  1.0000
  S   S108      1.0  0.50226  0.01310  0.10688  1.0000
  C   C465      1.0  0.66379  0.77881  0.50247  1.0000
  H   H799      1.0  0.52188  0.64022  0.38670  1.0000
  H   H800      1.0  0.48777  0.98479  0.49009  1.0000
  H   H801      1.0  0.60107  0.82863  0.17498  1.0000
  H   H802      1.0  0.38067  0.78181  0.48064  1.0000
  H   H803      1.0  0.55989  0.91153  0.10552  1.0000
  N   N25       1.0  0.53624  0.00931  0.49632  1.0000
  H   H804      1.0  0.46726  0.54845  0.22034  1.0000
  H   H805      1.0  0.39768  0.91061  0.24762  1.0000
  N   N26       1.0  0.64637  0.68434  0.02707  1.0000
  C   C466      1.0  0.65343  0.01081  0.02163  1.0000
  C   C467      1.0  0.52210  0.53812  0.32777  1.0000
  C   C468      1.0  0.51796  0.96816  0.43981  1.0000
  C   C469      1.0  0.50818  0.99509  0.47094  1.0000
  C   C470      1.0  0.58113  0.89003  0.04961  1.0000
  H   H806      1.0  0.69589  0.94541  0.04377  1.0000
  H   H807      1.0  0.65239  0.63130  0.03754  1.0000
  H   H808      1.0  0.42177  0.84440  0.05641  1.0000
  H   H809      1.0  0.53171  0.64502  0.18259  1.0000
  H   H810      1.0  0.58499  0.99084  0.43671  1.0000
  H   H811      1.0  0.47914  0.64068  0.40394  1.0000
  S   S109      1.0  0.59013  0.58167  0.49372  1.0000
  C   C471      1.0  0.62895  0.85332  0.04047  1.0000
  C   C472      1.0  0.69394  0.93898  0.07581  1.0000
  H   H812      1.0  0.65981  0.84745  0.11963  1.0000
  H   H813      1.0  0.38368  0.85696  0.21551  1.0000
  H   H814      1.0  0.56781  0.60076  0.24291  1.0000
  N   N27       1.0  0.61480  0.88073  0.06665  1.0000
  H   H815      1.0  0.53141  0.94720  0.45357  1.0000
  H   H816      1.0  0.65324  0.84442  0.05211  1.0000
  H   H817      1.0  0.49157  0.66647  0.36266  1.0000
  H   H818      1.0  0.57641  0.64235  0.19002  1.0000
  H   H819      1.0  0.41257  0.70921  0.46795  1.0000
  H   H820      1.0  0.66409  0.78897  0.47175  1.0000
  C   C473      1.0  0.59140  0.01387  0.45363  1.0000
  H   H821      1.0  0.64244  0.99462  0.04500  1.0000
  H   H822      1.0  0.39324  0.87408  0.03512  1.0000
  H   H823      1.0  0.60909  0.00730  0.47780  1.0000
  H   H824      1.0  0.62216  0.64531  0.09688  1.0000
  H   H825      1.0  0.57363  0.94179  0.06971  1.0000
  H   H826      1.0  0.39948  0.65499  0.48602  1.0000
  H   H827      1.0  0.47011  0.94116  0.44157  1.0000
  H   H828      1.0  0.68569  0.73766  0.12622  1.0000
  H   H829      1.0  0.52927  0.55315  0.35446  1.0000
  H   H830      1.0  0.37583  0.75304  0.43896  1.0000
  Fe  Fe55      1.0  0.50055  0.02341  0.04106  1.0000
  C   C474      1.0  0.69197  0.75370  0.50752  1.0000
  H   H831      1.0  0.51650  0.65938  0.46368  1.0000
  H   H832      1.0  0.40799  0.55438  0.24528  1.0000
  H   H833      1.0  0.64415  0.75488  0.12126  1.0000
  C   C475      1.0  0.60775  0.64422  0.06853  1.0000
  C   C476      1.0  0.63194  0.64957  0.03275  1.0000
  C   C477      1.0  0.67527  0.61956  0.42967  1.0000
  C   C478      1.0  0.48620  0.61341  0.34848  1.0000
  S   S110      1.0  0.51681  0.57782  0.44899  1.0000
  H   H834      1.0  0.58969  0.72387  0.04570  1.0000
  C   C479      1.0  0.39013  0.94926  0.03459  1.0000
  C   C480      1.0  0.59043  0.61009  0.06611  1.0000
  H   H835      1.0  0.67886  0.73277  0.44945  1.0000
  H   H836      1.0  0.45717  0.67900  0.46269  1.0000
  C   C481      1.0  0.63303  0.84087  0.12401  1.0000
  S   S111      1.0  0.60345  0.99251  0.12310  1.0000
  H   H837      1.0  0.48927  0.58967  0.36438  1.0000
  C   C482      1.0  0.37019  0.73034  0.49751  1.0000
  H   H838      1.0  0.40091  0.62858  0.18529  1.0000
  H   H839      1.0  0.62628  0.93069  0.08740  1.0000
  H   H840      1.0  0.38246  0.02065  0.02077  1.0000
  H   H841      1.0  0.64304  0.81250  0.17703  1.0000
  H   H842      1.0  0.37745  0.77908  0.22720  1.0000
  C   C483      1.0  0.39650  0.84758  0.04320  1.0000
  C   C484      1.0  0.55226  0.62846  0.19222  1.0000
  H   H843      1.0  0.63619  0.85604  0.18645  1.0000
  H   H844      1.0  0.58392  0.90003  0.01901  1.0000
  H   H845      1.0  0.69757  0.02205  0.05518  1.0000
  C   C485      1.0  0.67347  0.90685  0.08092  1.0000
  H   H846      1.0  0.39585  0.85777  0.12245  1.0000
  C   C486      1.0  0.68125  0.64736  0.46053  1.0000
  H   H847      1.0  0.68629  0.88700  0.06367  1.0000
  C   C487      1.0  0.60920  0.86836  0.10879  1.0000
  H   H848      1.0  0.62777  0.81709  0.10778  1.0000
  H   H849      1.0  0.45921  0.61613  0.34107  1.0000
  H   H850      1.0  0.55327  0.60652  0.17173  1.0000
  C   C488      1.0  0.63687  0.91150  0.06700  1.0000
  C   C489      1.0  0.56137  0.91703  0.07324  1.0000
  H   H851      1.0  0.56899  0.96635  0.49587  1.0000
  C   C490      1.0  0.62782  0.83423  0.16829  1.0000
  H   H852      1.0  0.68981  0.63530  0.48823  1.0000
  H   H853      1.0  0.37369  0.81000  0.07917  1.0000
  H   H854      1.0  0.51146  0.89620  0.06152  1.0000
  H   H855      1.0  0.51248  0.70168  0.48158  1.0000
  C   C491      1.0  0.66662  0.73765  0.06534  1.0000
  H   H856      1.0  0.61007  0.88951  0.13063  1.0000
  H   H857      1.0  0.58351  0.85742  0.11205  1.0000
  H   H858      1.0  0.63705  0.92346  0.03726  1.0000
  H   H859      1.0  0.65066  0.75423  0.04738  1.0000
  H   H860      1.0  0.37879  0.52810  0.14777  1.0000
  C   C492      1.0  0.48677  0.95343  0.41942  1.0000
  H   H861      1.0  0.47256  0.97319  0.40407  1.0000
  H   H862      1.0  0.65496  0.60258  0.44009  1.0000
  C   C493      1.0  0.52862  0.55860  0.28970  1.0000
  H   H863      1.0  0.68048  0.77835  0.10531  1.0000
  H   H864      1.0  0.51277  0.57807  0.21726  1.0000
  C   C494      1.0  0.37399  0.90792  0.23039  1.0000
  H   H865      1.0  0.66855  0.68658  0.08576  1.0000
  H   H866      1.0  0.52550  0.92669  0.02557  1.0000
  C   C495      1.0  0.39653  0.54842  0.15157  1.0000
  H   H867      1.0  0.57526  0.60587  0.09344  1.0000
  H   H868      1.0  0.69474  0.00334  0.38585  1.0000
  H   H869      1.0  0.69581  0.68363  0.41737  1.0000
  C   C496      1.0  0.37755  0.88003  0.19927  1.0000
  Fe  Fe56      1.0  0.55813  0.02139  0.10175  1.0000
  H   H870      1.0  0.45946  0.56565  0.30939  1.0000
  H   H871      1.0  0.49436  0.93447  0.39685  1.0000
  H   H872      1.0  0.68218  0.95996  0.09236  1.0000
  H   H873      1.0  0.69540  0.89904  0.39839  1.0000
  H   H874      1.0  0.36888  0.93206  0.21579  1.0000
  H   H875      1.0  0.63342  0.02528  0.41471  1.0000
  H   H876      1.0  0.63900  0.76685  0.50808  1.0000
  H   H877      1.0  0.37145  0.87517  0.59542  1.0000
  C   C497      1.0  0.55991  0.64096  0.69943  1.0000
  Fe  Fe57      1.0  0.62797  0.78769  0.84832  1.0000
  S   S112      1.0  0.62249  0.73940  0.81470  1.0000
  S   S113      1.0  0.58778  0.82517  0.83385  1.0000
  Fe  Fe58      1.0  0.62588  0.71360  0.87350  1.0000
  S   S114      1.0  0.58492  0.67779  0.89405  1.0000
  H   H878      1.0  0.42307  0.84242  0.70991  1.0000
  S   S115      1.0  0.62747  0.76199  0.90729  1.0000
  C   C498      1.0  0.52955  0.67819  0.78711  1.0000
  H   H879      1.0  0.46228  0.67471  0.55452  1.0000
  S   S116      1.0  0.50307  0.97367  0.71930  1.0000
  S   S117      1.0  0.47364  0.93748  0.61827  1.0000
  Fe  Fe59      1.0  0.55765  0.98736  0.71416  1.0000
  S   S118      1.0  0.60124  0.96492  0.74777  1.0000
  S   S119      1.0  0.55781  0.98761  0.64704  1.0000
  N   N28       1.0  0.41586  0.69261  0.52900  1.0000
  C   C499      1.0  0.40433  0.87968  0.66884  1.0000
  S   S120      1.0  0.51300  0.60612  0.56079  1.0000
  H   H880      1.0  0.65065  0.88477  0.99294  1.0000
  H   H881      1.0  0.38170  0.74820  0.62775  1.0000
  H   H882      1.0  0.53643  0.72986  0.76858  1.0000
  C   C500      1.0  0.58908  0.63946  0.91908  1.0000
  C   C501      1.0  0.56145  0.62659  0.94015  1.0000
  C   C502      1.0  0.56296  0.59524  0.95850  1.0000
  C   C503      1.0  0.59207  0.57627  0.95553  1.0000
  C   C504      1.0  0.61978  0.58925  0.93458  1.0000
  C   C505      1.0  0.61837  0.62074  0.91654  1.0000
  H   H883      1.0  0.53855  0.64076  0.94193  1.0000
  H   H884      1.0  0.54132  0.58538  0.97412  1.0000
  H   H885      1.0  0.64226  0.57455  0.93178  1.0000
  H   H886      1.0  0.63960  0.63005  0.89981  1.0000
  C   C506      1.0  0.59766  0.92545  0.77026  1.0000
  C   C507      1.0  0.62571  0.91177  0.78916  1.0000
  C   C508      1.0  0.62340  0.88061  0.80798  1.0000
  C   C509      1.0  0.59284  0.86317  0.80837  1.0000
  C   C510      1.0  0.56488  0.87688  0.78946  1.0000
  C   C511      1.0  0.56733  0.90771  0.77013  1.0000
  H   H887      1.0  0.64922  0.92549  0.78953  1.0000
  H   H888      1.0  0.64487  0.87061  0.82322  1.0000
  H   H889      1.0  0.54111  0.86360  0.78987  1.0000
  H   H890      1.0  0.54562  0.91790  0.75557  1.0000
  C   C512      1.0  0.57493  0.00287  0.89428  1.0000
  C   C513      1.0  0.63428  0.63519  0.80348  1.0000
  C   C514      1.0  0.43783  0.98020  0.57054  1.0000
  C   C515      1.0  0.44260  0.94744  0.58294  1.0000
  C   C516      1.0  0.57979  0.96471  0.95365  1.0000
  H   H891      1.0  0.45001  0.73415  0.58855  1.0000
  H   H892      1.0  0.57518  0.99405  0.53660  1.0000
  H   H893      1.0  0.45289  0.00019  0.58320  1.0000
  H   H894      1.0  0.59842  0.57043  0.80453  1.0000
  C   C517      1.0  0.42127  0.95781  0.96099  1.0000
  C   C518      1.0  0.40409  0.59003  0.60169  1.0000
  C   C519      1.0  0.42344  0.61633  0.61738  1.0000
  C   C520      1.0  0.45689  0.62077  0.60489  1.0000
  C   C521      1.0  0.47108  0.59935  0.57617  1.0000
  C   C522      1.0  0.45159  0.57327  0.56020  1.0000
  C   C523      1.0  0.41835  0.56845  0.57325  1.0000
  H   H895      1.0  0.47185  0.64091  0.61750  1.0000
  C   C524      1.0  0.52256  0.00712  0.85348  1.0000
  H   H896      1.0  0.67573  0.84088  0.77010  1.0000
  H   H897      1.0  0.56659  0.95564  0.98065  1.0000
  H   H898      1.0  0.37875  0.70603  0.57380  1.0000
  H   H899      1.0  0.43317  0.96120  0.93229  1.0000
  H   H900      1.0  0.53872  0.97835  0.80070  1.0000
  H   H901      1.0  0.67910  0.83061  0.98721  1.0000
  H   H902      1.0  0.56332  0.59429  0.72970  1.0000
  H   H903      1.0  0.61970  0.64658  0.74352  1.0000
  C   C525      1.0  0.64690  0.86930  0.65903  1.0000
  H   H904      1.0  0.41580  0.72529  0.64945  1.0000
  C   C526      1.0  0.69583  0.83394  0.74869  1.0000
  H   H905      1.0  0.56911  0.72705  0.95765  1.0000
  H   H906      1.0  0.57856  0.68483  0.75939  1.0000
  H   H907      1.0  0.51860  0.66813  0.51629  1.0000
  H   H908      1.0  0.66735  0.79987  0.52390  1.0000
  C   C527      1.0  0.54015  0.62557  0.66464  1.0000
  H   H909      1.0  0.57308  0.62306  0.83759  1.0000
  H   H910      1.0  0.52796  0.61777  0.74402  1.0000
  C   C528      1.0  0.56273  0.61226  0.80945  1.0000
  H   H911      1.0  0.41638  0.75729  0.56641  1.0000
  C   C529      1.0  0.40936  0.74514  0.62802  1.0000
  C   C530      1.0  0.37441  0.93658  0.99998  1.0000
  H   H912      1.0  0.58618  0.98203  0.87676  1.0000
  N   N29       1.0  0.68247  0.83288  0.70653  1.0000
  N   N30       1.0  0.57403  0.63243  0.77412  1.0000
  H   H913      1.0  0.54942  0.60021  0.65723  1.0000
  H   H914      1.0  0.53414  0.97335  0.92220  1.0000
  H   H915      1.0  0.51301  0.62393  0.67193  1.0000
  H   H916      1.0  0.37861  0.93079  0.93634  1.0000
  H   H917      1.0  0.60300  0.97806  0.96324  1.0000
  H   H918      1.0  0.62929  0.61675  0.82716  1.0000
  H   H919      1.0  0.53506  0.61362  0.81307  1.0000
  H   H920      1.0  0.66464  0.86944  0.63356  1.0000
  C   C531      1.0  0.62683  0.80658  0.73232  1.0000
  H   H921      1.0  0.53936  0.72362  0.82184  1.0000
  C   C532      1.0  0.39029  0.94065  0.96315  1.0000
  H   H922      1.0  0.57915  0.67675  0.81078  1.0000
  C   C533      1.0  0.63510  0.86187  0.99603  1.0000
  C   C534      1.0  0.60132  0.77879  0.72334  1.0000
  C   C535      1.0  0.56698  0.66871  0.78254  1.0000
  C   C536      1.0  0.55596  0.93029  0.55954  1.0000
  H   H923      1.0  0.51814  0.66559  0.81316  1.0000
  H   H924      1.0  0.49745  0.93300  0.80551  1.0000
  H   H925      1.0  0.64503  0.92378  0.66199  1.0000
  H   H926      1.0  0.50546  0.00154  0.87868  1.0000
  Fe  Fe60      1.0  0.68325  0.75899  0.90047  1.0000
  H   H927      1.0  0.40358  0.54797  0.56107  1.0000
  H   H928      1.0  0.50322  0.01726  0.54707  1.0000
  C   C537      1.0  0.65750  0.80434  0.70393  1.0000
  H   H929      1.0  0.57777  0.94043  0.57654  1.0000
  H   H930      1.0  0.63478  0.80383  0.76378  1.0000
  H   H931      1.0  0.61368  0.83063  0.72933  1.0000
  C   C538      1.0  0.55537  0.98244  0.51739  1.0000
  H   H932      1.0  0.54956  0.00824  0.95169  1.0000
  H   H933      1.0  0.68273  0.81872  0.62268  1.0000
  H   H934      1.0  0.61691  0.60366  0.75440  1.0000
  H   H935      1.0  0.61463  0.90443  0.62908  1.0000
  C   C539      1.0  0.61119  0.62885  0.76680  1.0000
  H   H936      1.0  0.63066  0.66046  0.81631  1.0000
  H   H937      1.0  0.67303  0.63442  0.97285  1.0000
  C   C540      1.0  0.39986  0.65914  0.51890  1.0000
  C   C541      1.0  0.45359  0.68863  0.52799  1.0000
  H   H938      1.0  0.58057  0.78007  0.74544  1.0000
  H   H939      1.0  0.59057  0.78172  0.69307  1.0000
  H   H940      1.0  0.61325  0.75397  0.72540  1.0000
  H   H941      1.0  0.47628  0.97252  0.80680  1.0000
  H   H942      1.0  0.60852  0.90285  0.68220  1.0000
  H   H943      1.0  0.42667  0.89632  0.57540  1.0000
  S   S121      1.0  0.68435  0.78961  0.84443  1.0000
  H   H944      1.0  0.63284  0.02351  0.00591  1.0000
  H   H945      1.0  0.41042  0.90611  0.66235  1.0000
  H   H946      1.0  0.42245  0.88455  0.73002  1.0000
  H   H947      1.0  0.54320  0.64126  0.63778  1.0000
  H   H948      1.0  0.38513  0.81852  0.56323  1.0000
  C   C542      1.0  0.52602  0.71573  0.79413  1.0000
  H   H949      1.0  0.54348  0.95637  0.84683  1.0000
  H   H950      1.0  0.58654  0.94285  0.93474  1.0000
  H   H951      1.0  0.58665  0.64216  0.69040  1.0000
  C   C543      1.0  0.53440  0.95857  0.54388  1.0000
  C   C544      1.0  0.55532  0.62001  0.73769  1.0000
  S   S122      1.0  0.68180  0.70886  0.86965  1.0000
  H   H952      1.0  0.68574  0.88631  0.69828  1.0000
  Fe  Fe61      1.0  0.50214  0.97787  0.65259  1.0000
  H   H953      1.0  0.45382  0.87284  0.69399  1.0000
  H   H954      1.0  0.42103  0.76893  0.63850  1.0000
  H   H955      1.0  0.58289  0.00953  0.81563  1.0000
  C   C545      1.0  0.42236  0.73632  0.58633  1.0000
  H   H956      1.0  0.55081  0.66676  0.70389  1.0000
  C   C546      1.0  0.41369  0.98705  0.54128  1.0000
  C   C547      1.0  0.39775  0.92872  0.53805  1.0000
  H   H957      1.0  0.62025  0.69055  0.97118  1.0000
  H   H958      1.0  0.41533  0.63859  0.53101  1.0000
  C   C548      1.0  0.49360  0.95616  0.82335  1.0000
  H   H959      1.0  0.51318  0.94702  0.52721  1.0000
  H   H960      1.0  0.40782  0.02539  0.95656  1.0000
  H   H961      1.0  0.64931  0.87309  0.72341  1.0000
  H   H962      1.0  0.65611  0.83929  0.94240  1.0000
  H   H963      1.0  0.67662  0.60720  0.77971  1.0000
  H   H964      1.0  0.49911  0.72202  0.79754  1.0000
  H   H965      1.0  0.68712  0.63678  0.81876  1.0000
  S   S123      1.0  0.59433  0.53555  0.97512  1.0000
  H   H966      1.0  0.41085  0.86436  0.64230  1.0000
  H   H967      1.0  0.38958  0.55432  0.69601  1.0000
  N   N31       1.0  0.55419  0.02466  0.86773  1.0000
  C   C549      1.0  0.55678  0.98800  0.93085  1.0000
  H   H968      1.0  0.52428  0.97209  0.57012  1.0000
  C   C550      1.0  0.43663  0.97111  0.99551  1.0000
  H   H969      1.0  0.46641  0.71338  0.52999  1.0000
  H   H970      1.0  0.62821  0.84894  0.65483  1.0000
  H   H971      1.0  0.58569  0.76134  0.98754  1.0000
  H   H972      1.0  0.46228  0.55658  0.53812  1.0000
  H   H973      1.0  0.69100  0.70593  0.00041  1.0000
  H   H974      1.0  0.64745  0.80120  0.67333  1.0000
  H   H975      1.0  0.37661  0.02163  0.89476  1.0000
  H   H976      1.0  0.51484  0.67136  0.76014  1.0000
  H   H977      1.0  0.41283  0.63281  0.63970  1.0000
  H   H978      1.0  0.56507  0.91442  0.53453  1.0000
  H   H979      1.0  0.66630  0.67196  0.94516  1.0000
  C   C551      1.0  0.40628  0.70328  0.57076  1.0000
  Fe  Fe62      1.0  0.67876  0.73957  0.81397  1.0000
  C   C552      1.0  0.42719  0.86915  0.70288  1.0000
  C   C553      1.0  0.42266  0.92175  0.56638  1.0000
  C   C554      1.0  0.62769  0.90210  0.65812  1.0000
  C   C555      1.0  0.52733  0.97378  0.83034  1.0000
  H   H980      1.0  0.41300  0.68336  0.59210  1.0000
  C   C556      1.0  0.67124  0.63243  0.79198  1.0000
  C   C557      1.0  0.66646  0.86609  0.69857  1.0000
  H   H981      1.0  0.48190  0.94922  0.85220  1.0000
  H   H982      1.0  0.41048  0.01236  0.53131  1.0000
  C   C558      1.0  0.57112  0.57457  0.80785  1.0000
  H   H983      1.0  0.59677  0.01720  0.90638  1.0000
  C   C559      1.0  0.62446  0.70425  0.99972  1.0000
  H   H984      1.0  0.54073  0.91448  0.57981  1.0000
  C   C560      1.0  0.68189  0.66042  0.96841  1.0000
  C   C561      1.0  0.65355  0.83361  0.97461  1.0000
  Fe  Fe63      1.0  0.53582  0.57396  0.51158  1.0000
  C   C562      1.0  0.38622  0.52885  0.70820  1.0000
  H   H985      1.0  0.61099  0.86527  0.98016  1.0000
  H   H986      1.0  0.63742  0.72775  0.99088  1.0000
  H   H987      1.0  0.63949  0.80970  0.97747  1.0000
  H   H988      1.0  0.67037  0.78043  0.71021  1.0000
  C   C563      1.0  0.39343  0.96140  0.52508  1.0000
  H   H989      1.0  0.37152  0.81989  0.63421  1.0000
  H   H990      1.0  0.50812  0.02393  0.83374  1.0000
  H   H991      1.0  0.36506  0.59870  0.52243  1.0000
  H   H992      1.0  0.66694  0.99487  0.99976  1.0000
  H   H993      1.0  0.54590  0.74235  0.99991  1.0000
  H   H994      1.0  0.69131  0.74505  0.53885  1.0000
  S   S124      1.0  0.47413  0.99488  0.99072  1.0000
  C   C564      1.0  0.57150  0.73738  0.98840  1.0000
  H   H995      1.0  0.38255  0.90876  0.52539  1.0000
  H   H996      1.0  0.55801  0.56198  0.78261  1.0000
  C   C565      1.0  0.55982  0.55731  0.84603  1.0000
  H   H997      1.0  0.57288  0.56838  0.87228  1.0000
  C   C566      1.0  0.36680  0.87545  0.68040  1.0000
  H   H998      1.0  0.53231  0.55967  0.85032  1.0000
  H   H999      1.0  0.36955  0.92693  0.62686  1.0000
  H   H1000     1.0  0.67805  0.65148  0.76949  1.0000
  H   H1001     1.0  0.56599  0.53039  0.84435  1.0000
  H   H1002     1.0  0.36552  0.64817  0.56827  1.0000
  C   C567      1.0  0.68048  0.68104  0.00779  1.0000
  H   H1003     1.0  0.61889  0.64081  0.00509  1.0000
  Fe  Fe64      1.0  0.79093  0.12357  0.44830  1.0000
  S   S125      1.0  0.74148  0.12417  0.41695  1.0000
  S   S126      1.0  0.82573  0.08376  0.42458  1.0000
  C   C568      1.0  0.00486  0.33298  0.20289  1.0000
  C   C569      1.0  0.70053  0.10748  0.07097  1.0000
  H   H1004     1.0  0.76860  0.36879  0.04259  1.0000
  H   H1005     1.0  0.70257  0.35263  0.09861  1.0000
  H   H1006     1.0  0.76084  0.30004  0.39003  1.0000
  Fe  Fe65      1.0  0.74547  0.17977  0.42297  1.0000
  S   S127      1.0  0.73171  0.21130  0.36984  1.0000
  N   N32       1.0  0.96293  0.32902  0.09739  1.0000
  S   S128      1.0  0.79683  0.17935  0.45052  1.0000
  Fe  Fe66      1.0  0.82946  0.34263  0.24389  1.0000
  S   S129      1.0  0.87151  0.35470  0.20157  1.0000
  S   S130      1.0  0.84209  0.30409  0.29023  1.0000
  Fe  Fe67      1.0  0.78543  0.39860  0.21345  1.0000
  S   S131      1.0  0.82459  0.41526  0.16989  1.0000
  Fe  Fe68      1.0  0.99021  0.03334  0.25573  1.0000
  Fe  Fe69      1.0  0.83078  0.36080  0.15637  1.0000
  S   S132      1.0  0.83824  0.34865  0.09105  1.0000
  Fe  Fe70      1.0  0.86229  0.40802  0.21851  1.0000
  S   S133      1.0  0.90576  0.44483  0.22465  1.0000
  S   S134      1.0  0.78892  0.34404  0.19694  1.0000
  S   S135      1.0  0.82278  0.39589  0.26375  1.0000
  Fe  Fe71      1.0  0.99770  0.08592  0.32162  1.0000
  S   S136      1.0  0.99324  0.08948  0.25508  1.0000
  S   S137      1.0  0.97089  0.12264  0.36208  1.0000
  H   H1007     1.0  0.92255  0.43814  0.12361  1.0000
  H   H1008     1.0  0.99408  0.06425  0.12821  1.0000
  S   S138      1.0  0.97132  0.47076  0.39456  1.0000
  C   C570      1.0  0.92372  0.45209  0.27201  1.0000
  C   C571      1.0  0.91263  0.43453  0.30533  1.0000
  C   C572      1.0  0.92743  0.44066  0.34273  1.0000
  C   C573      1.0  0.95337  0.46432  0.34710  1.0000
  C   C574      1.0  0.96429  0.48219  0.31391  1.0000
  C   C575      1.0  0.94955  0.47599  0.27641  1.0000
  H   H1009     1.0  0.89279  0.41608  0.30222  1.0000
  H   H1010     1.0  0.91885  0.42679  0.36833  1.0000
  H   H1011     1.0  0.74614  0.38919  0.10714  1.0000
  H   H1012     1.0  0.98594  0.04214  0.05964  1.0000
  C   C576      1.0  0.81808  0.24254  0.04527  1.0000
  H   H1013     1.0  0.81988  0.30629  0.49912  1.0000
  C   C577      1.0  0.83121  0.30073  0.03310  1.0000
  C   C578      1.0  0.83073  0.30760  0.07418  1.0000
  C   C579      1.0  0.82439  0.28184  0.10090  1.0000
  C   C580      1.0  0.81832  0.24930  0.08643  1.0000
  H   H1014     1.0  0.99321  0.28764  0.03512  1.0000
  C   C581      1.0  0.91440  0.41203  0.11730  1.0000
  H   H1015     1.0  0.82422  0.28696  0.13263  1.0000
  H   H1016     1.0  0.81359  0.22933  0.10713  1.0000
  C   C582      1.0  0.76299  0.23607  0.34710  1.0000
  C   C583      1.0  0.79435  0.24102  0.36495  1.0000
  C   C584      1.0  0.81835  0.26196  0.34718  1.0000
  C   C585      1.0  0.81122  0.27813  0.31143  1.0000
  C   C586      1.0  0.78015  0.27284  0.29312  1.0000
  C   C587      1.0  0.75598  0.25204  0.31108  1.0000
  H   H1017     1.0  0.79992  0.22938  0.39291  1.0000
  H   H1018     1.0  0.84237  0.26601  0.36150  1.0000
  H   H1019     1.0  0.77498  0.28447  0.26495  1.0000
  H   H1020     1.0  0.73182  0.24823  0.29701  1.0000
  C   C588      1.0  0.86576  0.09529  0.40697  1.0000
  C   C589      1.0  0.87940  0.12697  0.41469  1.0000
  C   C590      1.0  0.91180  0.13506  0.40101  1.0000
  C   C591      1.0  0.93054  0.11164  0.37928  1.0000
  C   C592      1.0  0.91674  0.08008  0.37134  1.0000
  C   C593      1.0  0.88454  0.07188  0.38535  1.0000
  H   H1021     1.0  0.86515  0.14510  0.43154  1.0000
  H   H1022     1.0  0.92233  0.15954  0.40719  1.0000
  H   H1023     1.0  0.93077  0.06201  0.35426  1.0000
  H   H1024     1.0  0.89792  0.24501  0.09313  1.0000
  H   H1025     1.0  0.79397  0.34505  0.34012  1.0000
  C   C594      1.0  0.01379  0.42074  0.48653  1.0000
  H   H1026     1.0  0.89409  0.24399  0.03969  1.0000
  H   H1027     1.0  0.96946  0.44962  0.49423  1.0000
  H   H1028     1.0  0.83231  0.38833  0.40165  1.0000
  C   C595      1.0  0.71475  0.34351  0.26290  1.0000
  H   H1029     1.0  0.94974  0.21354  0.36220  1.0000
  C   C596      1.0  0.73638  0.30314  0.40490  1.0000
  H   H1030     1.0  0.79899  0.41360  0.08040  1.0000
  H   H1031     1.0  0.93637  0.25638  0.36201  1.0000
  C   C597      1.0  0.77542  0.42813  0.08079  1.0000
  H   H1032     1.0  0.00298  0.35595  0.12796  1.0000
  H   H1033     1.0  0.71013  0.28090  0.12022  1.0000
  H   H1034     1.0  0.95602  0.34454  0.18068  1.0000
  C   C598      1.0  0.73248  0.29750  0.12338  1.0000
  H   H1035     1.0  0.95801  0.48979  0.25071  1.0000
  H   H1036     1.0  0.91839  0.34445  0.12977  1.0000
  H   H1037     1.0  0.87638  0.05929  0.48649  1.0000
  C   C599      1.0  0.82799  0.37819  0.37110  1.0000
  H   H1038     1.0  0.99285  0.36190  0.06068  1.0000
  H   H1039     1.0  0.76286  0.33051  0.08876  1.0000
  C   C600      1.0  0.79528  0.35792  0.36950  1.0000
  C   C601      1.0  0.70432  0.39023  0.38007  1.0000
  H   H1040     1.0  0.86853  0.50918  0.36084  1.0000
  H   H1041     1.0  0.84565  0.23134  0.18146  1.0000
  H   H1042     1.0  0.02560  0.31529  0.19704  1.0000
  H   H1043     1.0  0.79702  0.33941  0.39355  1.0000
  C   C602      1.0  0.73973  0.31542  0.08430  1.0000
  C   C603      1.0  0.97928  0.33755  0.05815  1.0000
  H   H1044     1.0  0.00875  0.31245  0.12511  1.0000
  H   H1045     1.0  0.70791  0.40969  0.35706  1.0000
  H   H1046     1.0  0.84933  0.36184  0.36298  1.0000
  Fe  Fe72      1.0  0.01506  0.50589  0.40587  1.0000
  N   N33       1.0  0.71492  0.35925  0.03654  1.0000
  C   C604      1.0  0.74465  0.38261  0.04183  1.0000
  H   H1047     1.0  0.75679  0.29617  0.46458  1.0000
  H   H1048     1.0  0.88302  0.25674  0.17767  1.0000
  H   H1049     1.0  0.87404  0.04739  0.37913  1.0000
  H   H1050     1.0  0.70469  0.13095  0.08855  1.0000
  H   H1051     1.0  0.93829  0.50838  0.47337  1.0000
  H   H1052     1.0  0.85328  0.26493  0.21686  1.0000
  H   H1053     1.0  0.71714  0.29044  0.38595  1.0000
  H   H1054     1.0  0.75345  0.09577  0.08162  1.0000
  H   H1055     1.0  0.02544  0.30812  0.06377  1.0000
  H   H1056     1.0  0.95641  0.23887  0.31846  1.0000
  H   H1057     1.0  0.77099  0.13259  0.32526  1.0000
  H   H1058     1.0  0.91804  0.09354  0.22659  1.0000
  H   H1059     1.0  0.69877  0.33216  0.33924  1.0000
  C   C605      1.0  0.97643  0.32705  0.17302  1.0000
  H   H1060     1.0  0.96939  0.27540  0.09589  1.0000
  C   C606      1.0  0.93459  0.35299  0.10476  1.0000
  H   H1061     1.0  0.74670  0.39929  0.01558  1.0000
  H   H1062     1.0  0.87516  0.08018  0.23553  1.0000
  H   H1063     1.0  0.96004  0.34118  0.03461  1.0000
  C   C607      1.0  0.94880  0.29398  0.09682  1.0000
  H   H1064     1.0  0.87500  0.50595  0.28702  1.0000
  H   H1065     1.0  0.82746  0.39918  0.34991  1.0000
  S   S139      1.0  0.76737  0.12032  0.50887  1.0000
  C   C608      1.0  0.00515  0.31214  0.04193  1.0000
  H   H1066     1.0  0.80059  0.24715  0.49991  1.0000
  H   H1067     1.0  0.72377  0.04917  0.10198  1.0000
  H   H1068     1.0  0.74210  0.35025  0.43691  1.0000
  C   C609      1.0  0.00951  0.44158  0.16292  1.0000
  H   H1069     1.0  0.83183  0.50532  0.30270  1.0000
  H   H1070     1.0  0.71274  0.28507  0.45922  1.0000
  H   H1071     1.0  0.89532  0.51638  0.48782  1.0000
  H   H1072     1.0  0.91753  0.35339  0.07853  1.0000
  H   H1073     1.0  0.80801  0.12358  0.35378  1.0000
  C   C610      1.0  0.72389  0.34459  0.33762  1.0000
  H   H1074     1.0  0.01420  0.42493  0.30464  1.0000
  H   H1075     1.0  0.75430  0.28201  0.13147  1.0000
  H   H1076     1.0  0.90862  0.06534  0.26647  1.0000
  H   H1077     1.0  0.79029  0.16486  0.35540  1.0000
  C   C611      1.0  0.75056  0.12445  0.02855  1.0000
  H   H1078     1.0  0.77626  0.11741  0.01918  1.0000
  H   H1079     1.0  0.79378  0.02906  0.46299  1.0000
  C   C612      1.0  0.92370  0.28567  0.06268  1.0000
  H   H1080     1.0  0.01634  0.41524  0.15676  1.0000
  C   C613      1.0  0.94508  0.38974  0.11330  1.0000
  H   H1081     1.0  0.74459  0.25831  0.43908  1.0000
  H   H1082     1.0  0.89940  0.41149  0.08941  1.0000
  H   H1083     1.0  0.93504  0.28897  0.12501  1.0000
  H   H1084     1.0  0.89589  0.20197  0.20627  1.0000
  N   N34       1.0  0.87524  0.17815  0.28252  1.0000
  C   C614      1.0  0.88314  0.14817  0.25663  1.0000
  C   C615      1.0  0.86017  0.20466  0.25669  1.0000
  C   C616      1.0  0.90728  0.19026  0.30196  1.0000
  C   C617      1.0  0.85038  0.16945  0.31479  1.0000
  C   C618      1.0  0.81715  0.15281  0.30051  1.0000
  C   C619      1.0  0.89461  0.11653  0.27886  1.0000
  C   C620      1.0  0.90460  0.22265  0.32749  1.0000
  C   C621      1.0  0.88413  0.22097  0.22584  1.0000
  C   C622      1.0  0.86527  0.24490  0.19891  1.0000
  C   C623      1.0  0.79537  0.14289  0.33597  1.0000
  C   C624      1.0  0.89932  0.08723  0.24993  1.0000
  C   C625      1.0  0.93897  0.23343  0.34345  1.0000
  H   H1085     1.0  0.90373  0.15424  0.23545  1.0000
  H   H1086     1.0  0.86135  0.14129  0.23739  1.0000
  H   H1087     1.0  0.83854  0.19414  0.23958  1.0000
  H   H1088     1.0  0.84929  0.22501  0.27531  1.0000
  H   H1089     1.0  0.92737  0.19382  0.27927  1.0000
  H   H1090     1.0  0.91711  0.17097  0.32231  1.0000
  H   H1091     1.0  0.86207  0.15328  0.33752  1.0000
  H   H1092     1.0  0.84290  0.19227  0.33157  1.0000
  H   H1093     1.0  0.82167  0.12988  0.28266  1.0000
  H   H1094     1.0  0.80250  0.17040  0.28230  1.0000
  H   H1095     1.0  0.91905  0.12118  0.29375  1.0000
  H   H1096     1.0  0.87610  0.10851  0.30158  1.0000
  H   H1097     1.0  0.88807  0.21861  0.35365  1.0000
  H   H1098     1.0  0.89451  0.24360  0.31006  1.0000
  H   H1099     1.0  0.90433  0.23550  0.24104  1.0000
  H   H1100     1.0  0.69961  0.39268  0.44599  1.0000
  H   H1101     1.0  0.02529  0.44660  0.04085  1.0000
  H   H1102     1.0  0.70985  0.37955  0.16989  1.0000
  Fe  Fe73      1.0  0.71785  0.12415  0.47771  1.0000
  H   H1103     1.0  0.93652  0.05084  0.47470  1.0000
  H   H1104     1.0  0.95922  0.39188  0.14161  1.0000
  C   C626      1.0  0.02864  0.06233  0.42438  1.0000
  H   H1105     1.0  0.89831  0.40371  0.14235  1.0000
  H   H1106     1.0  0.93303  0.23213  0.06239  1.0000
  H   H1107     1.0  0.98467  0.44243  0.17798  1.0000
  C   C627      1.0  0.91157  0.24946  0.06476  1.0000
  C   C628      1.0  0.70340  0.40958  0.42050  1.0000
  H   H1108     1.0  0.92469  0.41763  0.48894  1.0000
  H   H1109     1.0  0.00757  0.45447  0.13389  1.0000
  H   H1110     1.0  0.93515  0.28936  0.03293  1.0000
  S   S140      1.0  0.73901  0.43031  0.22285  1.0000
  H   H1111     1.0  0.77496  0.44366  0.10843  1.0000
  S   S141      1.0  0.81078  0.20148  0.02813  1.0000
  H   H1112     1.0  0.72249  0.42082  0.08225  1.0000
  H   H1113     1.0  0.76900  0.39387  0.40460  1.0000
  H   H1114     1.0  0.73575  0.07378  0.03945  1.0000
  H   H1115     1.0  0.86636  0.42454  0.46637  1.0000
  H   H1116     1.0  0.02677  0.15298  0.21610  1.0000
  H   H1117     1.0  0.77511  0.44499  0.05478  1.0000
  C   C629      1.0  0.73766  0.28472  0.44450  1.0000
  H   H1118     1.0  0.96695  0.30122  0.17728  1.0000
  H   H1119     1.0  0.72811  0.31580  0.14791  1.0000
  S   S142      1.0  0.99051  0.03054  0.32255  1.0000
  H   H1120     1.0  0.97619  0.05056  0.41997  1.0000
  H   H1121     1.0  0.98395  0.50079  0.31720  1.0000
  C   C630      1.0  0.98918  0.33169  0.12969  1.0000
  H   H1122     1.0  0.96091  0.39982  0.08899  1.0000
  C   C631      1.0  0.76456  0.38055  0.37584  1.0000
  H   H1123     1.0  0.90130  0.30166  0.06496  1.0000
  H   H1124     1.0  0.02873  0.48497  0.19269  1.0000
  C   C632      1.0  0.85492  0.52101  0.30120  1.0000
  H   H1125     1.0  0.02585  0.08573  0.40741  1.0000
  H   H1126     1.0  0.74208  0.32416  0.33319  1.0000
  H   H1127     1.0  0.76547  0.40023  0.35268  1.0000
  H   H1128     1.0  0.71659  0.35842  0.23540  1.0000
  H   H1129     1.0  0.95241  0.07282  0.11052  1.0000
  H   H1130     1.0  0.74420  0.29589  0.06128  1.0000
  H   H1131     1.0  0.01524  0.20647  0.18222  1.0000
  C   C633      1.0  0.74487  0.40480  0.08011  1.0000
  H   H1132     1.0  0.01463  0.44572  0.24460  1.0000
  S   S143      1.0  0.71673  0.18027  0.48093  1.0000
  H   H1133     1.0  0.01467  0.35891  0.20075  1.0000
  H   H1134     1.0  0.99541  0.32903  0.23364  1.0000
  H   H1135     1.0  0.01941  0.41143  0.37563  1.0000
  H   H1136     1.0  0.02444  0.43751  0.46357  1.0000
  C   C634      1.0  0.73599  0.09780  0.05598  1.0000
  C   C635      1.0  0.96970  0.05271  0.11939  1.0000
  H   H1137     1.0  0.00025  0.39999  0.47106  1.0000
  H   H1138     1.0  0.75210  0.14903  0.04411  1.0000
  C   C636      1.0  0.99524  0.05326  0.44403  1.0000
  H   H1139     1.0  0.90652  0.45603  0.50740  1.0000
  H   H1140     1.0  0.98786  0.07452  0.46329  1.0000
  H   H1141     1.0  0.73144  0.32177  0.25961  1.0000
  C   C637      1.0  0.72717  0.34038  0.41130  1.0000
  H   H1142     1.0  0.75082  0.37485  0.29331  1.0000
  H   H1143     1.0  0.74358  0.04936  0.49575  1.0000
  H   H1144     1.0  0.71940  0.07891  0.14076  1.0000
  H   H1145     1.0  0.95916  0.03969  0.14569  1.0000
  H   H1146     1.0  0.76875  0.39451  0.48267  1.0000
  C   C638      1.0  0.70372  0.43003  0.19068  1.0000
  C   C639      1.0  0.70980  0.33731  0.07225  1.0000
  H   H1147     1.0  0.70062  0.33936  0.42179  1.0000
  H   H1148     1.0  0.72975  0.03173  0.18871  1.0000
  H   H1149     1.0  0.75374  0.04875  0.41282  1.0000
  N   N35       1.0  0.73064  0.36349  0.37604  1.0000
  Fe  Fe74      1.0  0.76810  0.17643  0.50821  1.0000
  C   C640      1.0  0.87163  0.41609  0.49711  1.0000
  C   C641      1.0  0.82444  0.26836  0.01861  1.0000
  H   H1150     1.0  0.70756  0.38636  0.29950  1.0000
  H   H1151     1.0  0.72695  0.42400  0.42541  1.0000
  C   C642      1.0  0.72507  0.36513  0.29873  1.0000
  H   H1152     1.0  0.87047  0.38840  0.49725  1.0000
  C   C643      1.0  0.70475  0.06195  0.12058  1.0000
  H   H1153     1.0  0.71668  0.36181  0.50315  1.0000
  H   H1154     1.0  0.83638  0.32058  0.01237  1.0000
  H   H1155     1.0  0.92475  0.52372  0.40429  1.0000
  H   H1156     1.0  0.72041  0.07086  0.35550  1.0000
  C   C644      1.0  0.87334  0.03172  0.48495  1.0000
  H   H1157     1.0  0.92144  0.02853  0.07257  1.0000
  H   H1158     1.0  0.71804  0.03523  0.44032  1.0000
  C   C645      1.0  0.70043  0.05309  0.36486  1.0000
  C   C646      1.0  0.97503  0.02815  0.08481  1.0000
  H   H1159     1.0  0.76892  0.31822  0.01009  1.0000
  H   H1160     1.0  0.95372  0.05841  0.01038  1.0000
  Fe  Fe75      1.0  0.82033  0.16643  0.88155  1.0000
  S   S144      1.0  0.76802  0.16933  0.85683  1.0000
  S   S145      1.0  0.86384  0.15617  0.83907  1.0000
  H   H1161     1.0  0.86497  0.39687  0.88810  1.0000
  S   S146      1.0  0.74443  0.19885  0.94411  1.0000
  S   S147      1.0  0.77998  0.20461  0.56537  1.0000
  Fe  Fe76      1.0  0.75053  0.14852  0.91546  1.0000
  H   H1162     1.0  0.99352  0.29642  0.60399  1.0000
  Fe  Fe77      1.0  0.76600  0.21939  0.88737  1.0000
  S   S148      1.0  0.74074  0.26162  0.85504  1.0000
  H   H1163     1.0  0.73494  0.12687  0.00141  1.0000
  S   S149      1.0  0.81929  0.21824  0.90873  1.0000
  Fe  Fe78      1.0  0.81804  0.39089  0.70712  1.0000
  S   S150      1.0  0.86000  0.39452  0.66256  1.0000
  S   S151      1.0  0.83316  0.36528  0.76393  1.0000
  Fe  Fe79      1.0  0.77162  0.43439  0.65695  1.0000
  S   S152      1.0  0.81071  0.44175  0.60963  1.0000
  H   H1164     1.0  0.92058  0.47630  0.58658  1.0000
  Fe  Fe80      1.0  0.81976  0.38693  0.61674  1.0000
  S   S153      1.0  0.82760  0.35571  0.56117  1.0000
  Fe  Fe81      1.0  0.84738  0.44861  0.66021  1.0000
  S   S154      1.0  0.88754  0.48916  0.66117  1.0000
  S   S155      1.0  0.77853  0.37873  0.66129  1.0000
  S   S156      1.0  0.80759  0.44573  0.70737  1.0000
  H   H1165     1.0  0.95620  0.06243  0.60298  1.0000
  S   S157      1.0  0.99233  0.05655  0.71436  1.0000
  S   S158      1.0  0.96030  0.03115  0.82247  1.0000
  H   H1166     1.0  0.85190  0.42601  0.51732  1.0000
  H   H1167     1.0  0.99494  0.26813  0.64562  1.0000
  S   S159      1.0  0.99500  0.48441  0.80085  1.0000
  C   C647      1.0  0.91755  0.48813  0.69985  1.0000
  H   H1168     1.0  0.89720  0.48329  0.79153  1.0000
  H   H1169     1.0  0.71233  0.35750  0.69980  1.0000
  C   C648      1.0  0.96593  0.48695  0.76130  1.0000
  C   C649      1.0  0.95128  0.45730  0.74660  1.0000
  C   C650      1.0  0.92663  0.45791  0.71677  1.0000
  H   H1170     1.0  0.78012  0.29772  0.94205  1.0000
  H   H1171     1.0  0.70477  0.47052  0.51116  1.0000
  H   H1172     1.0  0.95868  0.43373  0.75884  1.0000
  H   H1173     1.0  0.91485  0.43496  0.70666  1.0000
  C   C651      1.0  0.79185  0.24693  0.56323  1.0000
  H   H1174     1.0  0.72242  0.39025  0.57744  1.0000
  C   C652      1.0  0.81200  0.29518  0.52688  1.0000
  C   C653      1.0  0.81299  0.31415  0.56227  1.0000
  C   C654      1.0  0.80262  0.29969  0.59797  1.0000
  C   C655      1.0  0.79255  0.26604  0.59854  1.0000
  H   H1175     1.0  0.70428  0.39101  0.63818  1.0000
  H   H1176     1.0  0.73362  0.29976  0.57184  1.0000
  H   H1177     1.0  0.80292  0.31421  0.62528  1.0000
  H   H1178     1.0  0.78524  0.25474  0.62641  1.0000
  C   C656      1.0  0.76573  0.29178  0.83095  1.0000
  C   C657      1.0  0.79742  0.30058  0.84560  1.0000
  C   C658      1.0  0.81750  0.32374  0.82512  1.0000
  C   C659      1.0  0.80603  0.33823  0.78988  1.0000
  C   C660      1.0  0.77400  0.33009  0.77566  1.0000
  C   C661      1.0  0.75379  0.30710  0.79639  1.0000
  H   H1179     1.0  0.80659  0.28921  0.87247  1.0000
  H   H1180     1.0  0.84220  0.33008  0.83635  1.0000
  H   H1181     1.0  0.76492  0.34124  0.74859  1.0000
  C   C662      1.0  0.00424  0.24380  0.58799  1.0000
  C   C663      1.0  0.88975  0.12070  0.83518  1.0000
  C   C664      1.0  0.91623  0.12123  0.80756  1.0000
  C   C665      1.0  0.93774  0.09388  0.80320  1.0000
  C   C666      1.0  0.93295  0.06556  0.82647  1.0000
  C   C667      1.0  0.90626  0.06483  0.85393  1.0000
  C   C668      1.0  0.88476  0.09234  0.85841  1.0000
  H   H1182     1.0  0.92027  0.14302  0.78958  1.0000
  H   H1183     1.0  0.95824  0.09488  0.78214  1.0000
  H   H1184     1.0  0.90208  0.04286  0.87165  1.0000
  H   H1185     1.0  0.86432  0.09157  0.87962  1.0000
  C   C669      1.0  0.97877  0.07137  0.58662  1.0000
  H   H1186     1.0  0.84434  0.51534  0.82370  1.0000
  C   C670      1.0  0.84502  0.43752  0.85130  1.0000
  C   C671      1.0  0.98980  0.44028  0.51332  1.0000
  H   H1187     1.0  0.82459  0.26326  0.98688  1.0000
  H   H1188     1.0  0.99822  0.21974  0.60264  1.0000
  H   H1189     1.0  0.82003  0.48488  0.79635  1.0000
  C   C672      1.0  0.87314  0.47173  0.80125  1.0000
  C   C673      1.0  0.80109  0.26172  0.52725  1.0000
  C   C674      1.0  0.84479  0.49783  0.79797  1.0000
  H   H1190     1.0  0.97161  0.39292  0.53623  1.0000
  H   H1191     1.0  0.73924  0.41812  0.51190  1.0000
  C   C675      1.0  0.93360  0.37906  0.81720  1.0000
  H   H1192     1.0  0.99793  0.47528  0.59224  1.0000
  C   C676      1.0  0.88347  0.48220  0.87363  1.0000
  C   C677      1.0  0.75404  0.30359  0.95112  1.0000
  H   H1193     1.0  0.93084  0.35743  0.79643  1.0000
  N   N36       1.0  0.87705  0.45608  0.84162  1.0000
  H   H1194     1.0  0.72912  0.30056  0.78514  1.0000
  H   H1195     1.0  0.92549  0.51971  0.92546  1.0000
  C   C678      1.0  0.97293  0.48587  0.59886  1.0000
  C   C679      1.0  0.02141  0.32467  0.00355  1.0000
  H   H1196     1.0  0.91745  0.06170  0.94974  1.0000
  H   H1197     1.0  0.99877  0.41561  0.56839  1.0000
  C   C680      1.0  0.71197  0.46509  0.57451  1.0000
  H   H1198     1.0  0.84906  0.50277  0.73355  1.0000
  N   N37       1.0  0.86567  0.23801  0.76363  1.0000
  C   C681      1.0  0.83495  0.21689  0.75438  1.0000
  C   C682      1.0  0.89726  0.21875  0.75429  1.0000
  C   C683      1.0  0.86542  0.24570  0.80782  1.0000
  C   C684      1.0  0.86542  0.27076  0.74201  1.0000
  C   C685      1.0  0.86407  0.26895  0.69601  1.0000
  C   C686      1.0  0.80065  0.23179  0.76659  1.0000
  C   C687      1.0  0.89647  0.26479  0.82481  1.0000
  C   C688      1.0  0.89578  0.19329  0.71899  1.0000
  C   C689      1.0  0.93086  0.18197  0.70680  1.0000
  C   C690      1.0  0.86246  0.30393  0.67854  1.0000
  C   C691      1.0  0.77154  0.21039  0.75077  1.0000
  C   C692      1.0  0.89484  0.26702  0.87030  1.0000
  H   H1199     1.0  0.83688  0.19245  0.76971  1.0000
  H   H1200     1.0  0.83333  0.21067  0.72217  1.0000
  H   H1201     1.0  0.91866  0.23626  0.74916  1.0000
  H   H1202     1.0  0.90471  0.20353  0.78045  1.0000
  H   H1203     1.0  0.86222  0.22238  0.82491  1.0000
  H   H1204     1.0  0.84355  0.26102  0.81582  1.0000
  H   H1205     1.0  0.84436  0.28650  0.75262  1.0000
  H   H1206     1.0  0.88837  0.28555  0.74930  1.0000
  H   H1207     1.0  0.84172  0.25481  0.68529  1.0000
  H   H1208     1.0  0.88718  0.25737  0.68414  1.0000
  H   H1209     1.0  0.79816  0.23252  0.79954  1.0000
  H   H1210     1.0  0.79757  0.25726  0.75485  1.0000
  H   H1211     1.0  0.89736  0.29070  0.81360  1.0000
  H   H1212     1.0  0.92024  0.25230  0.81676  1.0000
  H   H1213     1.0  0.88124  0.17080  0.72814  1.0000
  H   H1214     1.0  0.88353  0.20343  0.69226  1.0000
  H   H1215     1.0  0.92883  0.16249  0.68308  1.0000
  H   H1216     1.0  0.94573  0.20328  0.69506  1.0000
  H   H1217     1.0  0.94425  0.17121  0.73258  1.0000
  H   H1218     1.0  0.88408  0.31950  0.68876  1.0000
  H   H1219     1.0  0.86323  0.30230  0.64548  1.0000
  H   H1220     1.0  0.83882  0.31631  0.68772  1.0000
  H   H1221     1.0  0.91425  0.38992  0.55175  1.0000
  H   H1222     1.0  0.77335  0.18448  0.76186  1.0000
  H   H1223     1.0  0.93954  0.27070  0.58214  1.0000
  H   H1224     1.0  0.89510  0.24165  0.88330  1.0000
  H   H1225     1.0  0.91690  0.28123  0.88184  1.0000
  H   H1226     1.0  0.87171  0.27996  0.88010  1.0000
  C   C693      1.0  0.97623  0.06199  0.54238  1.0000
  H   H1227     1.0  0.89123  0.47020  0.90186  1.0000
  C   C694      1.0  0.90297  0.40141  0.81371  1.0000
  C   C695      1.0  0.90677  0.43308  0.84038  1.0000
  H   H1228     1.0  0.91344  0.42493  0.87094  1.0000
  H   H1229     1.0  0.95694  0.39292  0.80953  1.0000
  H   H1230     1.0  0.70366  0.31482  0.00105  1.0000
  H   H1231     1.0  0.93772  0.38116  0.68233  1.0000
  C   C696      1.0  0.71854  0.33840  0.99872  1.0000
  H   H1232     1.0  0.92783  0.42899  0.63182  1.0000
  C   C697      1.0  0.69782  0.46908  0.61239  1.0000
  C   C698      1.0  0.95532  0.36956  0.66069  1.0000
  H   H1233     1.0  0.73713  0.45561  0.57165  1.0000
  H   H1234     1.0  0.82398  0.45533  0.85481  1.0000
  C   C699      1.0  0.91093  0.50866  0.86396  1.0000
  H   H1235     1.0  0.74746  0.22099  0.76144  1.0000
  H   H1236     1.0  0.74157  0.28002  0.96038  1.0000
  C   C700      1.0  0.84878  0.51886  0.76061  1.0000
  H   H1237     1.0  0.88099  0.38618  0.82266  1.0000
  S   S160      1.0  0.00944  0.52622  0.90285  1.0000
  H   H1238     1.0  0.75046  0.35742  0.58492  1.0000
  H   H1239     1.0  0.77142  0.20998  0.71765  1.0000
  H   H1240     1.0  0.90389  0.52375  0.83782  1.0000
  H   H1241     1.0  0.70987  0.30693  0.52825  1.0000
  S   S161      1.0  0.80327  0.14127  0.93767  1.0000
  H   H1242     1.0  0.93742  0.28617  0.63265  1.0000
  C   C701      1.0  0.73857  0.36481  0.52321  1.0000
  H   H1243     1.0  0.86757  0.45235  0.77808  1.0000
  H   H1244     1.0  0.97221  0.42644  0.62786  1.0000
  S   S162      1.0  0.71187  0.10641  0.92013  1.0000
  H   H1245     1.0  0.71679  0.23915  0.54890  1.0000
  S   S163      1.0  0.71973  0.45774  0.65621  1.0000
  C   C702      1.0  0.97430  0.52333  0.59129  1.0000
  H   H1246     1.0  0.92945  0.44663  0.82954  1.0000
  Fe  Fe82      1.0  0.79800  0.19321  0.96298  1.0000
  H   H1247     1.0  0.02035  0.17805  0.56936  1.0000
  H   H1248     1.0  0.76827  0.35151  0.97493  1.0000
  H   H1249     1.0  0.77712  0.40290  0.53453  1.0000
  C   C703      1.0  0.94905  0.26711  0.61291  1.0000
  C   C704      1.0  0.94664  0.37964  0.61813  1.0000
  C   C705      1.0  0.94371  0.05280  0.94805  1.0000
  H   H1250     1.0  0.94550  0.47961  0.54366  1.0000
  C   C706      1.0  0.93313  0.51778  0.71334  1.0000
  H   H1251     1.0  0.71940  0.32860  0.63474  1.0000
  C   C707      1.0  0.81180  0.39918  0.89667  1.0000
  H   H1252     1.0  0.93581  0.36953  0.84803  1.0000
  H   H1253     1.0  0.00215  0.32866  0.98025  1.0000
  H   H1254     1.0  0.90010  0.40812  0.78193  1.0000
  H   H1255     1.0  0.81314  0.38339  0.92359  1.0000
  C   C708      1.0  0.75704  0.39709  0.51254  1.0000
  H   H1256     1.0  0.99874  0.07255  0.52752  1.0000
  H   H1257     1.0  0.95340  0.07389  0.53059  1.0000
  H   H1258     1.0  0.92088  0.37013  0.61192  1.0000
  C   C709      1.0  0.94839  0.41810  0.61341  1.0000
  C   C710      1.0  0.95465  0.03805  0.98772  1.0000
  C   C711      1.0  0.91434  0.41763  0.55315  1.0000
  C   C712      1.0  0.72778  0.36433  0.56766  1.0000
  C   C713      1.0  0.84564  0.41650  0.88982  1.0000
  H   H1259     1.0  0.85098  0.43252  0.91629  1.0000
  H   H1260     1.0  0.75574  0.34371  0.51716  1.0000
  N   N38       1.0  0.94662  0.43088  0.57123  1.0000
  H   H1261     1.0  0.98138  0.37737  0.66830  1.0000
  H   H1262     1.0  0.96436  0.36697  0.59759  1.0000
  H   H1263     1.0  0.95327  0.34208  0.66347  1.0000
  H   H1264     1.0  0.94581  0.03391  0.92368  1.0000
  C   C714      1.0  0.94505  0.46845  0.57364  1.0000
  H   H1265     1.0  0.80508  0.38295  0.87075  1.0000
  C   C715      1.0  0.98727  0.27089  0.61408  1.0000
  C   C716      1.0  0.97678  0.41847  0.54823  1.0000
  H   H1266     1.0  0.94114  0.24205  0.62341  1.0000
  H   H1267     1.0  0.74071  0.31368  0.92489  1.0000
  H   H1268     1.0  0.79176  0.41786  0.90123  1.0000
  H   H1269     1.0  0.83731  0.42096  0.82592  1.0000
  H   H1270     1.0  0.70785  0.35161  0.97263  1.0000
  C   C717      1.0  0.75455  0.32900  0.98545  1.0000
  H   H1271     1.0  0.89267  0.42462  0.57255  1.0000
  H   H1272     1.0  0.75569  0.04025  0.56592  1.0000
  H   H1273     1.0  0.96769  0.48258  0.63114  1.0000
  H   H1274     1.0  0.93532  0.49670  0.85756  1.0000
  H   H1275     1.0  0.98053  0.09889  0.59016  1.0000
  C   C718      1.0  0.70819  0.30677  0.56131  1.0000
  H   H1276     1.0  0.86004  0.49557  0.88155  1.0000
  C   C719      1.0  0.77206  0.02869  0.54289  1.0000
  H   H1277     1.0  0.96020  0.07431  0.94044  1.0000
  H   H1278     1.0  0.00369  0.46238  0.52523  1.0000
  C   C720      1.0  0.95682  0.51731  0.74455  1.0000
  H   H1279     1.0  0.98088  0.02987  0.98378  1.0000
  N   N39       1.0  0.69901  0.34094  0.57716  1.0000
  H   H1280     1.0  0.00655  0.28922  0.52743  1.0000
  H   H1281     1.0  0.79411  0.04541  0.53830  1.0000
  H   H1282     1.0  0.99104  0.24238  0.55877  1.0000
  H   H1283     1.0  0.00141  0.06023  0.60017  1.0000
  Fe  Fe83      1.0  0.99808  0.02903  0.77164  1.0000
  Fe  Fe84      1.0  0.01827  0.52739  0.83657  1.0000
  C   C721      1.0  0.90635  0.42857  0.51012  1.0000
  S   S164      1.0  0.76317  0.87223  0.34662  1.0000
  H   H1284     1.0  0.93619  0.99384  0.09967  1.0000
  Fe  Fe85      1.0  0.89542  0.79749  0.10222  1.0000
  S   S165      1.0  0.88503  0.84970  0.08220  1.0000
  S   S166      1.0  0.87254  0.77636  0.15819  1.0000
  Fe  Fe86      1.0  0.94654  0.78377  0.03613  1.0000
  H   H1285     1.0  0.85033  0.65801  0.40369  1.0000
  C   C722      1.0  0.94182  0.00977  0.07340  1.0000
  Fe  Fe87      1.0  0.94102  0.85351  0.07493  1.0000
  S   S167      1.0  0.97681  0.89603  0.09041  1.0000
  C   C723      1.0  0.88040  0.97104  0.05296  1.0000
  H   H1286     1.0  0.91077  0.62233  0.43978  1.0000
  S   S168      1.0  0.95163  0.80286  0.09902  1.0000
  S   S169      1.0  0.89126  0.77353  0.04152  1.0000
  S   S170      1.0  0.70136  0.86026  0.25552  1.0000
  H   H1287     1.0  0.98301  0.95971  0.05633  1.0000
  H   H1288     1.0  0.72979  0.65939  0.43504  1.0000
  H   H1289     1.0  0.91099  0.64474  0.39435  1.0000
  H   H1290     1.0  0.97641  0.75707  0.46812  1.0000
  H   H1291     1.0  0.84840  0.93178  0.39230  1.0000
  H   H1292     1.0  0.71977  0.83656  0.39985  1.0000
  H   H1293     1.0  0.78875  0.98874  0.48373  1.0000
  C   C724      1.0  0.97058  0.67668  0.46834  1.0000
  C   C725      1.0  0.98209  0.64393  0.47283  1.0000
  H   H1294     1.0  0.92587  0.62240  0.33281  1.0000
  H   H1295     1.0  0.83242  0.84337  0.46251  1.0000
  S   S171      1.0  0.94784  0.00513  0.22446  1.0000
  H   H1296     1.0  0.71965  0.93549  0.08766  1.0000
  H   H1297     1.0  0.73158  0.00174  0.14787  1.0000
  C   C726      1.0  0.89527  0.62868  0.41374  1.0000
  C   C727      1.0  0.96860  0.92483  0.12936  1.0000
  C   C728      1.0  0.93634  0.92873  0.14499  1.0000
  C   C729      1.0  0.93033  0.95325  0.17442  1.0000
  C   C730      1.0  0.95656  0.97381  0.18863  1.0000
  C   C731      1.0  0.98882  0.96980  0.17309  1.0000
  C   C732      1.0  0.99473  0.94556  0.14336  1.0000
  H   H1298     1.0  0.91599  0.91316  0.13398  1.0000
  H   H1299     1.0  0.90527  0.95638  0.18615  1.0000
  H   H1300     1.0  0.99391  0.00980  0.09463  1.0000
  C   C733      1.0  0.70718  0.67340  0.44488  1.0000
  C   C734      1.0  0.78155  0.82546  0.46829  1.0000
  C   C735      1.0  0.80777  0.84239  0.44909  1.0000
  C   C736      1.0  0.80191  0.85789  0.41225  1.0000
  C   C737      1.0  0.77026  0.85529  0.39399  1.0000
  C   C738      1.0  0.74426  0.83862  0.41346  1.0000
  C   C739      1.0  0.74969  0.82454  0.45079  1.0000
  H   H1301     1.0  0.90123  0.57481  0.46774  1.0000
  H   H1302     1.0  0.82215  0.87082  0.39732  1.0000
  C   C740      1.0  0.77467  0.00963  0.47036  1.0000
  H   H1303     1.0  0.73934  0.66119  0.50710  1.0000
  C   C741      1.0  0.75931  0.78510  0.17694  1.0000
  C   C742      1.0  0.78015  0.77537  0.20808  1.0000
  C   C743      1.0  0.81473  0.77192  0.20154  1.0000
  C   C744      1.0  0.82888  0.77958  0.16446  1.0000
  C   C745      1.0  0.80812  0.78965  0.13335  1.0000
  C   C746      1.0  0.77328  0.79176  0.13939  1.0000
  H   H1304     1.0  0.76949  0.76965  0.23688  1.0000
  H   H1305     1.0  0.83059  0.76328  0.22527  1.0000
  H   H1306     1.0  0.81883  0.79534  0.10455  1.0000
  H   H1307     1.0  0.75721  0.79910  0.11513  1.0000
  H   H1308     1.0  0.74428  0.95454  0.46871  1.0000
  C   C747      1.0  0.80969  0.96376  0.41646  1.0000
  H   H1309     1.0  0.70211  0.99589  0.18798  1.0000
  C   C748      1.0  0.74667  0.71957  0.45528  1.0000
  H   H1310     1.0  0.93560  0.71428  0.48846  1.0000
  H   H1311     1.0  0.94481  0.56827  0.45454  1.0000
  H   H1312     1.0  0.00912  0.98571  0.18355  1.0000
  C   C749      1.0  0.98312  0.78165  0.48160  1.0000
  H   H1313     1.0  0.98222  0.64407  0.31461  1.0000
  H   H1314     1.0  0.72823  0.72110  0.39270  1.0000
  H   H1315     1.0  0.95182  0.59058  0.31144  1.0000
  H   H1316     1.0  0.81523  0.79839  0.02553  1.0000
  H   H1317     1.0  0.86168  0.70189  0.05075  1.0000
  H   H1318     1.0  0.88288  0.53390  0.41771  1.0000
  H   H1319     1.0  0.86837  0.98573  0.02922  1.0000
  H   H1320     1.0  0.00170  0.61506  0.34773  1.0000
  C   C750      1.0  0.83557  0.70031  0.03924  1.0000
  S   S172      1.0  0.94005  0.83498  0.01161  1.0000
  H   H1321     1.0  0.72293  0.75914  0.42068  1.0000
  H   H1322     1.0  0.85728  0.92409  0.03286  1.0000
  H   H1323     1.0  0.72911  0.81220  0.46560  1.0000
  C   C751      1.0  0.73380  0.96887  0.44341  1.0000
  H   H1324     1.0  0.82221  0.68003  0.05520  1.0000
  H   H1325     1.0  0.02137  0.96374  0.49435  1.0000
  C   C752      1.0  0.71586  0.02073  0.37946  1.0000
  H   H1326     1.0  0.91341  0.94625  0.01218  1.0000
  H   H1327     1.0  0.70739  0.90421  0.44979  1.0000
  C   C753      1.0  0.85833  0.94025  0.06002  1.0000
  H   H1328     1.0  0.95164  0.59880  0.40210  1.0000
  H   H1329     1.0  0.87152  0.60706  0.36206  1.0000
  H   H1330     1.0  0.98183  0.69244  0.44593  1.0000
  H   H1331     1.0  0.86086  0.58647  0.40651  1.0000
  C   C754      1.0  0.91641  0.96080  0.04044  1.0000
  H   H1332     1.0  0.78627  0.76710  0.41949  1.0000
  N   N40       1.0  0.85444  0.86530  0.26297  1.0000
  C   C755      1.0  0.86175  0.90160  0.27214  1.0000
  C   C756      1.0  0.82251  0.86288  0.23887  1.0000
  C   C757      1.0  0.84797  0.84810  0.30217  1.0000
  C   C758      1.0  0.88308  0.84799  0.24184  1.0000
  C   C759      1.0  0.90531  0.86933  0.21363  1.0000
  C   C760      1.0  0.89023  0.90840  0.30282  1.0000
  C   C761      1.0  0.83617  0.81112  0.29928  1.0000
  C   C762      1.0  0.82331  0.87823  0.19675  1.0000
  C   C763      1.0  0.78799  0.88000  0.17927  1.0000
  C   C764      1.0  0.93202  0.84799  0.19336  1.0000
  C   C765      1.0  0.90353  0.94421  0.30033  1.0000
  C   C766      1.0  0.83780  0.79399  0.33965  1.0000
  H   H1333     1.0  0.83882  0.91388  0.28416  1.0000
  H   H1334     1.0  0.86787  0.91548  0.24464  1.0000
  H   H1335     1.0  0.81517  0.83647  0.23347  1.0000
  H   H1336     1.0  0.80135  0.87406  0.25610  1.0000
  H   H1337     1.0  0.82889  0.86189  0.31986  1.0000
  H   H1338     1.0  0.87108  0.84841  0.32074  1.0000
  H   H1339     1.0  0.90065  0.83707  0.26380  1.0000
  H   H1340     1.0  0.87338  0.82624  0.22417  1.0000
  H   H1341     1.0  0.91881  0.88937  0.23028  1.0000
  H   H1342     1.0  0.89032  0.88116  0.19012  1.0000
  H   H1343     1.0  0.88050  0.90462  0.33351  1.0000
  H   H1344     1.0  0.91154  0.89123  0.29823  1.0000
  H   H1345     1.0  0.85206  0.79682  0.27820  1.0000
  H   H1346     1.0  0.80965  0.80949  0.28923  1.0000
  H   H1347     1.0  0.83386  0.90385  0.19676  1.0000
  H   H1348     1.0  0.83838  0.86218  0.17646  1.0000
  H   H1349     1.0  0.78934  0.88874  0.14802  1.0000
  H   H1350     1.0  0.77564  0.85507  0.17930  1.0000
  H   H1351     1.0  0.77239  0.89761  0.19690  1.0000
  H   H1352     1.0  0.94803  0.83576  0.21583  1.0000
  H   H1353     1.0  0.92003  0.82863  0.17419  1.0000
  H   H1354     1.0  0.94836  0.86371  0.17431  1.0000
  H   H1355     1.0  0.91867  0.53532  0.33312  1.0000
  C   C767      1.0  0.77246  0.75122  0.39756  1.0000
  N   N41       1.0  0.90805  0.57059  0.38094  1.0000
  H   H1356     1.0  0.86380  0.79443  0.35147  1.0000
  H   H1357     1.0  0.82087  0.80643  0.36129  1.0000
  H   H1358     1.0  0.82949  0.76760  0.33621  1.0000
  H   H1359     1.0  0.85049  0.63539  0.45022  1.0000
  N   N42       1.0  0.75661  0.99791  0.43303  1.0000
  H   H1360     1.0  0.91551  0.94848  0.27088  1.0000
  H   H1361     1.0  0.97521  0.64761  0.36754  1.0000
  C   C768      1.0  0.97870  0.62968  0.34240  1.0000
  C   C769      1.0  0.90835  0.54480  0.41336  1.0000
  S   S173      1.0  0.01524  0.62968  0.44195  1.0000
  H   H1362     1.0  0.79824  0.94317  0.43377  1.0000
  H   H1363     1.0  0.76665  0.76661  0.37121  1.0000
  H   H1364     1.0  0.95938  0.96312  0.46611  1.0000
  H   H1365     1.0  0.99342  0.79782  0.45779  1.0000
  H   H1366     1.0  0.92272  0.94879  0.32379  1.0000
  H   H1367     1.0  0.81138  0.93390  0.36175  1.0000
  H   H1368     1.0  0.88293  0.96233  0.30460  1.0000
  H   H1369     1.0  0.75693  0.73907  0.47573  1.0000
  H   H1370     1.0  0.87611  0.67224  0.44482  1.0000
  S   S174      1.0  0.72009  0.79202  0.30539  1.0000
  C   C770      1.0  0.94808  0.60668  0.33826  1.0000
  H   H1371     1.0  0.82836  0.97670  0.43595  1.0000
  H   H1372     1.0  0.02753  0.84472  0.04028  1.0000
  C   C771      1.0  0.82872  0.94867  0.38117  1.0000
  H   H1373     1.0  0.84091  0.96862  0.36341  1.0000
  C   C772      1.0  0.86613  0.64978  0.42890  1.0000
  H   H1374     1.0  0.00425  0.60533  0.07049  1.0000
  C   C773      1.0  0.89845  0.55277  0.34250  1.0000
  N   N43       1.0  0.96888  0.01095  0.49463  1.0000
  H   H1375     1.0  0.86823  0.92561  0.08523  1.0000
  H   H1376     1.0  0.76774  0.70193  0.45041  1.0000
  C   C774      1.0  0.73986  0.73771  0.41549  1.0000
  H   H1377     1.0  0.76028  0.76906  0.02077  1.0000
  C   C775      1.0  0.71468  0.01485  0.16907  1.0000
  C   C776      1.0  0.96650  0.97333  0.49606  1.0000
  N   N44       1.0  0.71720  0.70124  0.47352  1.0000
  H   H1378     1.0  0.78879  0.73039  0.38789  1.0000
  H   H1379     1.0  0.96125  0.56364  0.37282  1.0000
  S   S175      1.0  0.71575  0.78850  0.18416  1.0000
  H   H1380     1.0  0.02331  0.92422  0.01571  1.0000
  H   H1381     1.0  0.77148  0.97902  0.37471  1.0000
  H   H1382     1.0  0.79692  0.01192  0.39314  1.0000
  H   H1383     1.0  0.84967  0.54288  0.28229  1.0000
  C   C777      1.0  0.94309  0.58444  0.37548  1.0000
  C   C778      1.0  0.92066  0.52774  0.48425  1.0000
  C   C779      1.0  0.88258  0.59735  0.39006  1.0000
  H   H1384     1.0  0.88040  0.98604  0.08096  1.0000
  C   C780      1.0  0.00968  0.60590  0.03803  1.0000
  H   H1385     1.0  0.70925  0.97824  0.45453  1.0000
  C   C781      1.0  0.96729  0.62376  0.50182  1.0000
  H   H1386     1.0  0.01968  0.94288  0.13114  1.0000
  C   C782      1.0  0.97559  0.97326  0.02906  1.0000
  H   H1387     1.0  0.96022  0.79355  0.49380  1.0000
  C   C783      1.0  0.78300  0.98900  0.40251  1.0000
  S   S176      1.0  0.01147  0.53182  0.46527  1.0000
  H   H1388     1.0  0.99455  0.91170  0.47052  1.0000
  H   H1389     1.0  0.00129  0.00059  0.44374  1.0000
  C   C784      1.0  0.91948  0.55681  0.45529  1.0000
  C   C785      1.0  0.94452  0.68918  0.49246  1.0000
  C   C786      1.0  0.69951  0.91769  0.42268  1.0000
  H   H1390     1.0  0.84453  0.54694  0.35635  1.0000
  H   H1391     1.0  0.99551  0.99240  0.02523  1.0000
  C   C787      1.0  0.73670  0.02693  0.41779  1.0000
  H   H1392     1.0  0.82263  0.72417  0.04589  1.0000
  H   H1393     1.0  0.97612  0.59866  0.50598  1.0000
  H   H1394     1.0  0.92561  0.94280  0.06283  1.0000
  H   H1395     1.0  0.89606  0.57090  0.31783  1.0000
  Fe  Fe88      1.0  0.71827  0.84713  0.31717  1.0000
  Fe  Fe89      1.0  0.88506  0.82609  0.02086  1.0000
  H   H1396     1.0  0.74949  0.92806  0.40332  1.0000
  H   H1397     1.0  0.71594  0.76700  0.50241  1.0000
  H   H1398     1.0  0.01145  0.63224  0.02823  1.0000
  H   H1399     1.0  0.71850  0.95394  0.38180  1.0000
  H   H1400     1.0  0.73121  0.01053  0.35475  1.0000
  C   C788      1.0  0.72663  0.94257  0.40998  1.0000
  H   H1401     1.0  0.85066  0.02476  0.50231  1.0000
  N   N45       1.0  0.94167  0.98886  0.03545  1.0000
  H   H1402     1.0  0.98843  0.59374  0.02188  1.0000
  H   H1403     1.0  0.83242  0.94803  0.06755  1.0000
  C   C789      1.0  0.86527  0.53219  0.34321  1.0000
  H   H1404     1.0  0.93239  0.70562  0.01348  1.0000
  H   H1405     1.0  0.69849  0.66973  0.02901  1.0000
  H   H1406     1.0  0.89881  0.98757  0.50168  1.0000
  H   H1407     1.0  0.02183  0.02077  0.48431  1.0000
  C   C790      1.0  0.99524  0.91748  0.50298  1.0000
  C   C791      1.0  0.90406  0.01479  0.50232  1.0000
  H   H1408     1.0  0.69837  0.60474  0.42522  1.0000
  Fe  Fe90      1.0  0.69886  0.80494  0.24550  1.0000
  C   C792      1.0  0.99781  0.02013  0.46734  1.0000
  C   C793      1.0  0.93613  0.02336  0.47801  1.0000
  H   H1409     1.0  0.86945  0.02390  0.45341  1.0000
  H   H1410     1.0  0.93243  0.01331  0.44715  1.0000
  C   C794      1.0  0.75238  0.02428  0.50408  1.0000
  C   C795      1.0  0.72722  0.68575  0.51265  1.0000
  H   H1411     1.0  0.98861  0.74597  0.63526  1.0000
  Fe  Fe91      1.0  0.85472  0.78424  0.63067  1.0000
  S   S177      1.0  0.85668  0.82940  0.59198  1.0000
  S   S178      1.0  0.83781  0.79289  0.69454  1.0000
  Fe  Fe92      1.0  0.88443  0.73860  0.56445  1.0000
  H   H1412     1.0  0.73091  0.81103  0.69337  1.0000
  H   H1413     1.0  0.71814  0.88460  0.75079  1.0000
  Fe  Fe93      1.0  0.90731  0.81110  0.57313  1.0000
  S   S179      1.0  0.95643  0.84015  0.57425  1.0000
  H   H1414     1.0  0.00804  0.79745  0.60703  1.0000
  N   N46       1.0  0.01969  0.74885  0.58222  1.0000
  S   S180      1.0  0.90698  0.76819  0.61544  1.0000
  S   S181      1.0  0.83193  0.75097  0.58384  1.0000
  S   S182      1.0  0.78710  0.80416  0.51338  1.0000
  S   S183      1.0  0.96938  0.99001  0.63535  1.0000
  S   S184      1.0  0.00716  0.97918  0.74215  1.0000
  H   H1415     1.0  0.77812  0.70438  0.52575  1.0000
  S   S185      1.0  0.96482  0.60790  0.93344  1.0000
  C   C796      1.0  0.94673  0.66266  0.97797  1.0000
  C   C797      1.0  0.00496  0.69893  0.96095  1.0000
  H   H1416     1.0  0.75749  0.87544  0.80557  1.0000
  C   C798      1.0  0.77423  0.71722  0.85684  1.0000
  C   C799      1.0  0.97135  0.64842  0.95327  1.0000
  H   H1417     1.0  0.76770  0.69108  0.86451  1.0000
  H   H1418     1.0  0.75677  0.73440  0.87248  1.0000
  H   H1419     1.0  0.80463  0.92178  0.66351  1.0000
  S   S186      1.0  0.88783  0.78050  0.52070  1.0000
  H   H1420     1.0  0.97294  0.76884  0.56125  1.0000
  H   H1421     1.0  0.88031  0.71975  0.98184  1.0000
  C   C800      1.0  0.95829  0.88085  0.59487  1.0000
  C   C801      1.0  0.93180  0.90303  0.59029  1.0000
  C   C802      1.0  0.93533  0.93634  0.60342  1.0000
  C   C803      1.0  0.96490  0.94743  0.62233  1.0000
  C   C804      1.0  0.99093  0.92495  0.62814  1.0000
  C   C805      1.0  0.98785  0.89196  0.61375  1.0000
  H   H1422     1.0  0.90912  0.89486  0.57523  1.0000
  H   H1423     1.0  0.91517  0.95367  0.59864  1.0000
  H   H1424     1.0  0.01394  0.93334  0.64234  1.0000
  H   H1425     1.0  0.00862  0.87509  0.61695  1.0000
  C   C806      1.0  0.81313  0.81738  0.96583  1.0000
  C   C807      1.0  0.79429  0.81849  0.93055  1.0000
  C   C808      1.0  0.76324  0.80168  0.92767  1.0000
  C   C809      1.0  0.75086  0.78395  0.96027  1.0000
  H   H1426     1.0  0.96807  0.54031  0.75549  1.0000
  H   H1427     1.0  0.97069  0.96002  0.96518  1.0000
  H   H1428     1.0  0.80374  0.83242  0.90543  1.0000
  H   H1429     1.0  0.74881  0.80269  0.90044  1.0000
  C   C810      1.0  0.73466  0.80940  0.61062  1.0000
  C   C811      1.0  0.76977  0.78273  0.99545  1.0000
  C   C812      1.0  0.73968  0.74494  0.73844  1.0000
  C   C813      1.0  0.75814  0.76652  0.76331  1.0000
  C   C814      1.0  0.78815  0.78116  0.74955  1.0000
  C   C815      1.0  0.79989  0.77435  0.71083  1.0000
  C   C816      1.0  0.78128  0.75297  0.68593  1.0000
  C   C817      1.0  0.75131  0.73832  0.69969  1.0000
  H   H1430     1.0  0.74943  0.77166  0.79326  1.0000
  H   H1431     1.0  0.80242  0.79760  0.76907  1.0000
  H   H1432     1.0  0.79011  0.74742  0.65618  1.0000
  H   H1433     1.0  0.73722  0.72159  0.68030  1.0000
  H   H1434     1.0  0.72753  0.68448  0.94636  1.0000
  H   H1435     1.0  0.98420  0.68635  0.57682  1.0000
  H   H1436     1.0  0.75709  0.79871  0.62510  1.0000
  H   H1437     1.0  0.94644  0.96519  0.51697  1.0000
  H   H1438     1.0  0.94948  0.53466  0.59748  1.0000
  H   H1439     1.0  0.88960  0.63091  0.87146  1.0000
  Fe  Fe94      1.0  0.00626  0.58211  0.89873  1.0000
  C   C818      1.0  0.00237  0.72895  0.61452  1.0000
  C   C819      1.0  0.73655  0.85741  0.80044  1.0000
  H   H1440     1.0  0.77094  0.71994  0.82421  1.0000
  S   S187      1.0  0.89711  0.68390  0.55271  1.0000
  H   H1441     1.0  0.93514  0.55199  0.89032  1.0000
  H   H1442     1.0  0.99965  0.01463  0.54770  1.0000
  C   C820      1.0  0.80089  0.79930  0.99820  1.0000
  H   H1443     1.0  0.71549  0.86420  0.82058  1.0000
  H   H1444     1.0  0.71797  0.64448  0.92383  1.0000
  C   C821      1.0  0.00054  0.66663  0.94491  1.0000
  H   H1445     1.0  0.77390  0.70358  0.59902  1.0000
  H   H1446     1.0  0.98552  0.66630  0.64714  1.0000
  H   H1447     1.0  0.90632  0.02084  0.00605  1.0000
  H   H1448     1.0  0.92974  0.62046  0.54815  1.0000
  N   N47       1.0  0.85261  0.71929  0.92643  1.0000
  C   C822      1.0  0.81641  0.72051  0.91349  1.0000
  C   C823      1.0  0.85396  0.72081  0.97138  1.0000
  C   C824      1.0  0.87002  0.75037  0.91129  1.0000
  C   C825      1.0  0.87087  0.68908  0.91046  1.0000
  C   C826      1.0  0.85013  0.65635  0.90488  1.0000
  C   C827      1.0  0.81049  0.72555  0.86828  1.0000
  C   C828      1.0  0.90690  0.75592  0.92504  1.0000
  C   C829      1.0  0.92974  0.66906  0.52145  1.0000
  H   H1449     1.0  0.98555  0.73283  0.53507  1.0000
  H   H1450     1.0  0.74764  0.85243  0.73822  1.0000
  C   C830      1.0  0.71774  0.65895  0.95227  1.0000
  C   C831      1.0  0.92321  0.78530  0.90355  1.0000
  H   H1451     1.0  0.80340  0.74121  0.92939  1.0000
  H   H1452     1.0  0.80250  0.69772  0.92232  1.0000
  H   H1453     1.0  0.93470  0.98678  0.74950  1.0000
  S   S188      1.0  0.70192  0.72601  0.75449  1.0000
  H   H1454     1.0  0.85574  0.77301  0.92024  1.0000
  H   H1455     1.0  0.87059  0.75020  0.87813  1.0000
  H   H1456     1.0  0.88209  0.69427  0.88069  1.0000
  H   H1457     1.0  0.89275  0.68360  0.92982  1.0000
  H   H1458     1.0  0.83332  0.65829  0.87868  1.0000
  H   H1459     1.0  0.83418  0.65068  0.93093  1.0000
  H   H1460     1.0  0.81527  0.75205  0.86049  1.0000
  H   H1461     1.0  0.82742  0.70981  0.84999  1.0000
  H   H1462     1.0  0.92228  0.73348  0.91922  1.0000
  H   H1463     1.0  0.90804  0.76201  0.95732  1.0000
  H   H1464     1.0  0.89249  0.54592  0.90641  1.0000
  C   C832      1.0  0.96422  0.68101  0.63573  1.0000
  H   H1465     1.0  0.92629  0.54127  0.70024  1.0000
  H   H1466     1.0  0.84864  0.66889  0.98998  1.0000
  H   H1467     1.0  0.76292  0.66331  0.57834  1.0000
  H   H1468     1.0  0.73446  0.64656  0.97388  1.0000
  H   H1469     1.0  0.80891  0.69015  0.98527  1.0000
  H   H1470     1.0  0.02652  0.70002  0.52019  1.0000
  H   H1471     1.0  0.90635  0.02334  0.53376  1.0000
  S   S189      1.0  0.71199  0.76292  0.95820  1.0000
  H   H1472     1.0  0.94921  0.78906  0.91478  1.0000
  C   C833      1.0  0.97518  0.02370  0.53647  1.0000
  H   H1473     1.0  0.92428  0.78040  0.87092  1.0000
  H   H1474     1.0  0.90895  0.80851  0.90947  1.0000
  N   N48       1.0  0.89262  0.89147  0.72260  1.0000
  C   C834      1.0  0.88848  0.88241  0.76590  1.0000
  C   C835      1.0  0.91047  0.92480  0.72043  1.0000
  C   C836      1.0  0.85830  0.89268  0.70380  1.0000
  C   C837      1.0  0.91306  0.86589  0.70022  1.0000
  C   C838      1.0  0.94790  0.85803  0.71813  1.0000
  C   C839      1.0  0.87480  0.84672  0.77401  1.0000
  C   C840      1.0  0.85695  0.90653  0.66084  1.0000
  C   C841      1.0  0.89105  0.95498  0.73804  1.0000
  C   C842      1.0  0.91074  0.98753  0.73281  1.0000
  C   C843      1.0  0.96415  0.82886  0.69594  1.0000
  C   C844      1.0  0.87265  0.84009  0.81876  1.0000
  C   C845      1.0  0.82107  0.90575  0.64483  1.0000
  H   H1475     1.0  0.87074  0.89974  0.78088  1.0000
  H   H1476     1.0  0.91251  0.88597  0.78238  1.0000
  H   H1477     1.0  0.93475  0.92403  0.73673  1.0000
  H   H1478     1.0  0.91755  0.93055  0.68912  1.0000
  H   H1479     1.0  0.84076  0.90738  0.72272  1.0000
  H   H1480     1.0  0.84700  0.86720  0.70221  1.0000
  H   H1481     1.0  0.89862  0.84210  0.69654  1.0000
  H   H1482     1.0  0.91806  0.87424  0.66929  1.0000
  H   H1483     1.0  0.94615  0.85105  0.74991  1.0000
  H   H1484     1.0  0.96495  0.88000  0.71564  1.0000
  H   H1485     1.0  0.84920  0.84347  0.76159  1.0000
  H   H1486     1.0  0.89111  0.82734  0.76066  1.0000
  H   H1487     1.0  0.87241  0.89135  0.64026  1.0000
  H   H1488     1.0  0.86614  0.93269  0.65970  1.0000
  H   H1489     1.0  0.86645  0.95804  0.72328  1.0000
  H   H1490     1.0  0.88673  0.95192  0.77047  1.0000
  H   H1491     1.0  0.01582  0.91868  0.96301  1.0000
  C   C846      1.0  0.83549  0.69288  0.99440  1.0000
  C   C847      1.0  0.70434  0.80818  0.63860  1.0000
  H   H1492     1.0  0.96762  0.83475  0.66396  1.0000
  H   H1493     1.0  0.98908  0.82382  0.70913  1.0000
  H   H1494     1.0  0.94833  0.80599  0.69839  1.0000
  H   H1495     1.0  0.86260  0.81452  0.82366  1.0000
  H   H1496     1.0  0.89788  0.84204  0.83268  1.0000
  H   H1497     1.0  0.85561  0.85812  0.83362  1.0000
  H   H1498     1.0  0.82085  0.91520  0.61384  1.0000
  H   H1499     1.0  0.81091  0.87982  0.64443  1.0000
  C   C848      1.0  0.94108  0.63622  0.52579  1.0000
  H   H1500     1.0  0.02613  0.60622  0.56644  1.0000
  S   S190      1.0  0.85201  0.83844  0.96858  1.0000
  H   H1501     1.0  0.01587  0.80323  0.52511  1.0000
  C   C849      1.0  0.75272  0.70526  0.53943  1.0000
  H   H1502     1.0  0.74619  0.73177  0.54362  1.0000
  C   C850      1.0  0.97550  0.70289  0.60114  1.0000
  Fe  Fe95      1.0  0.00440  0.00726  0.68501  1.0000
  C   C851      1.0  0.91615  0.53293  0.89884  1.0000
  C   C852      1.0  0.71175  0.82674  0.67860  1.0000
  H   H1503     1.0  0.84392  0.74516  0.98209  1.0000
  C   C853      1.0  0.72549  0.85857  0.75686  1.0000
  C   C854      1.0  0.87304  0.62656  0.89759  1.0000
  H   H1504     1.0  0.94430  0.66341  0.62524  1.0000
  C   C855      1.0  0.75505  0.68975  0.58074  1.0000
  C   C856      1.0  0.00929  0.77773  0.51440  1.0000
  H   H1505     1.0  0.73052  0.69107  0.59637  1.0000
  H   H1506     1.0  0.01963  0.65591  0.92592  1.0000
  H   H1507     1.0  0.72489  0.85066  0.67179  1.0000
  H   H1508     1.0  0.95371  0.69655  0.66027  1.0000
  C   C857      1.0  0.98024  0.71332  0.98532  1.0000
  C   C858      1.0  0.99546  0.75608  0.54891  1.0000
  H   H1509     1.0  0.88890  0.62215  0.92420  1.0000
  H   H1510     1.0  0.92432  0.64849  0.98504  1.0000
  H   H1511     1.0  0.70443  0.68032  0.53084  1.0000
  H   H1512     1.0  0.85768  0.60378  0.89172  1.0000
  Fe  Fe96      1.0  0.83677  0.79520  0.54374  1.0000
  H   H1513     1.0  0.69865  0.78147  0.64447  1.0000
  H   H1514     1.0  0.74042  0.83547  0.60192  1.0000
  H   H1515     1.0  0.95310  0.71602  0.59018  1.0000
  H   H1516     1.0  0.98166  0.52819  0.55994  1.0000
  H   H1517     1.0  0.02419  0.85798  0.98943  1.0000
  S   S191      1.0  0.01090  0.58280  0.83181  1.0000
  H   H1518     1.0  0.74547  0.83215  0.80800  1.0000
  H   H1519     1.0  0.91603  0.99209  0.70081  1.0000
  H   H1520     1.0  0.95634  0.01310  0.55734  1.0000
  H   H1521     1.0  0.72925  0.79465  0.58308  1.0000
  H   H1522     1.0  0.00227  0.95920  0.54265  1.0000
  H   H1523     1.0  0.02758  0.71292  0.95429  1.0000
  C   C859      1.0  0.95113  0.69503  0.99394  1.0000
  H   H1524     1.0  0.73022  0.00812  0.50997  1.0000
  C   C860      1.0  0.93099  0.00913  0.00013  1.0000
  H   H1525     1.0  0.82745  0.53628  0.75817  1.0000
  S   S192      1.0  0.98699  0.75395  0.00474  1.0000
  H   H1526     1.0  0.89601  0.00875  0.74484  1.0000
  H   H1527     1.0  0.78061  0.00423  0.55394  1.0000
  H   H1528     1.0  0.87245  0.53370  0.76192  1.0000
  H   H1529     1.0  0.99309  0.53531  0.61137  1.0000
  H   H1530     1.0  0.92662  0.99268  0.97364  1.0000
  H   H1531     1.0  0.02121  0.71605  0.63318  1.0000
  C   C861      1.0  0.01457  0.93675  0.98829  1.0000
  H   H1532     1.0  0.97208  0.90751  0.51707  1.0000
  H   H1533     1.0  0.92934  0.53698  0.51386  1.0000
  H   H1534     1.0  0.70404  0.80864  0.75757  1.0000
  H   H1535     1.0  0.01708  0.90471  0.51622  1.0000
  C   C862      1.0  0.97849  0.94840  0.99347  1.0000
  C   C863      1.0  0.03050  0.78203  0.60020  1.0000
  H   H1536     1.0  0.96293  0.92573  0.99859  1.0000
  C   C864      1.0  0.99851  0.95508  0.51014  1.0000
