data_image0
_chemical_formula_structural       SH5FeCHC2H4C2H2CH5CH7CHC2HNSC2H2SH3CH2CNHCH4CH6CH8C2HSCH2CSC2HCHS2C2HCH2C2H2C2HCH6CH2CH2CFeH3SHFeSHFeS2FeSFeS4H3SCH2C2H4FeS2FeS2HFeHCHC2H5C2SCH4C3H4C2H4NHSH2CSHC2H2C6H4C6H4C6H4CHCH3C3H5C2HCHFeH9CHCNC8HC2H17CH8C2NC12H26CSHSH2CHCHNCHC2H4CH2C5H2CH4CH8NHC3HSHCH4C2HCNC10HCH22C2H3CHCHCHCH9CH2CH6SH6S2CFeHCHCH2FeCH4CHCH3CH2C5H2CH4SC2H6CHCHFeS2FeS2FeSFeS4HS2H2CSH2CFeSHFeS2FeS2FeSFeS3CH2C2H3CH2CHC2H3CHSFeH4C2H4SNC2H8C7H4C6H4C6H5CNC8HCH12CH2SH6SC6H4C3HCH3SCH4CH3SCH4CSH3CSC3H2C2HCFeCHFeH4CHCHCH2C3HNC10NCH16CH5CH5NC9HC2H25CHSC2H2CH5CHFeCH6CH5CSCHC2HC2HCH2C3HFeHC2H2CH2CH3CH3CHCH2CHSC2HCHNHC2H2C2HCH7CHCHCH4CH6SNHCH2CHC2HC3H5CH7CH3CHC2HCH2CHFeH4CH2CH3CH2CHFe2HSHCH2CHCH2C3H7CH4CH5CNC5H2FeH2SH2CFeHC2H3C4H2CHSHCNCH3SH3CH3CSH3CHCH2CH2CH2CHCHC2HFeCH4C2HCH2C2H2CHCH2C3H8SHCFeH9CH5CSH4CH4CHSHCHCH5CSHNSH3CH2C4HNHCH4CH11CH2CHCH4C2HCHC2H3CHCH2C2H5FeS2FeH2SHC2HFeS2FeS2FeSFeS3FeS2FeS2FeSFeS3FeS2FeS2FeSFeS3C6H4C6H4C6H6CH2CH3CHC2H3CHC6H7CHC2H2C7H6CHCH5FeC2HSH3CHCH6CHCH5CHCNHNC12H19CH5CH3CNHCHCH12CH2C2H2CH3FeH7NC10H23NC4HCH2NHFeH4CHC4H2C3HSH3CH3C3H3CH2FeCSH3SH10C2NC4H4C4HCH2SH2CH3C2H3NC2H4CHC3HC2HCHC4H5CH2CH15CSC2H4C2H5CHCFeSH6CH2C2HCHC2H5C2HCHCNHCHCNH4CHCHCHC2H2CFeCH5CHCHC3SHCSC2H3C2S2FeSCHC2H3C4H4CHS2HC2H2FeSHSHS2CHC4H9CH2CH2C2H2CHSNH2CH4C7H5NCH3CH2CSHCHCHCH3CFeHC5H4CHC3H10CH4CHC5FeCH3S2H2SHSHC2SHCH4NC3H3C2HC3NS3H2C2H3CSCH4CH6CHCHCSH4CHCHC2HC2HCH3C2H3FeH3FeHC2NH4CFeCH3C2HCH5SHNC2HCH2C2H3CH4CH2C2FeNH5FeCHFeHCHC2HC2HCH3CH2C2H2CH2CH3CH2CH4SHCHCFeS2H3C3SCHC2H4CFeH3C2FeHCHCH5C3SCH4FeCHC2HCH2C2H4CSC2HCH3C6H4C3H7Fe2H3SH7CH4C2SHSHCHC2H2CH2SCHSHSHCHCH8SH2CHCH9CHNC2SC2HC2HNH6SCHNH2CHSH4CHCH2CHC3H2CHC2SH4CHCHCHCH4CSH2CHC3HNH2CHNH4C3HC2H2FeCH2C3H4FeSC2SHSCH2CHC2H2SH4FeS2H2CHFeCH3CHSFeS2FeSFeSFeS3FeSFeS3FeS2FeS2FeSFeS3HC2H3CHC8H7CHC7H4CH2C4H3CH2SH4S2H3C2HFeCNC6H6SHCH2CHCHCH7CH2CH2CH3NH3C2H4FeCH6NC9H20NC3HCH2SH7CH2CH2CH3FeH3C4HNC12H21NC3FeHCSH3CH2C3H4CH5C3HC3H2SC3HCHSH2NC2H3C2H2CH5SHCFeH4CFeHCH2SC3H2FeCHC2H4CH2C2HSH2CH2C3H3C2H3CSC2H3FeHC3HCH2CFeHSHCH2SH8CH2C2SCHSH5C3HCH9CH5CHCHNCH4CSHCH2FeH2CHS2HS2CHFeS2FeS2FeS2FeSFeS3HNFeCHCHC2HCHC6H4C2SH2C6H5C3H4CHCHC4HFeH2FeH2CFeCHNC7H2C3H17CH10C3NCH3SCSCH2FeHCHC2FeC2NH3CH2CNC3H10CHC2H5CH2CH5SCSCH4CH5S2C3S2C2HCH3C2H4C3HC2H3CHFeHCH2CSH2CHC2FeC2H3CHC2HFeC2SH6NC8HC3H18CFeH3SH4CHNCS3HFeCH4FeH5FeCH3CH6CH3CH8CH5SFeHSHCSH6C2S2H3CHFeH2C2H4SHSH2C4S2H3CHSCSHCHCH2C2H2CSNHC2H3CHC5HCHCH4CH2C6H4CH3CH2C2H8CH3CHCHNHCHCHFeC6HSHFe2H3CHFeHCH2CH4C3HNC12H28CH2FeH2FeH2SH4C2H2SCHSHC2H3SH2CH3SHFeSH6CNH4CHCNH3CH2CHCH3CSHC2SHC2HCNH3CH2S2C2HC3HCH2CH2CSC2H2C2SH2CH2SHCNH6CHCH3FeCHC3HFeS2H5FeS2H2CFeSH2C2HSHC2H2CH2CFeS2FeS2FeSFeS2C2H2CH6SHCHCHCH4CH2CH2C5H3CH3SC6H3SHFeH2SC3H4C2SC2H2FeCHFeH8CH7CHCH3NHCHFeH4C2NH3SCH3CH2CHC3HCHC2H3C7HSC2H4CH2CH5CH5CH4C3HC2H2CHCH4C2SH2C2H7C2H3C5HN2H4C2H4CSC2HNCHC4HC3H4C2NH5SHCFeCHC2H3C2HSH2CH4CFeHC2H2CHCHCSC2H2SH3CHCH4NCHCHCSH2CHC3H4SH3SHFeH7CH2FeSHFeSFeH2CSHSCFeSCFeHFeSCSFeSCFeSHFeSFeS3FeSHFeS3HC6H4CHCHC6H4CH6CH2C4HCH2CHC6H4CHC4H2C2HFeH5CH3CSHCHC3SH5CH5C3HCH2NC2H6CHCHSHCHCSHCH3CNH2CFeSHC3H2SHNC7H16SH2CHCHC2SCH5FeC2H2SHCSFeC3HCH2NH2CH3C2HSH4CHNH8CH2C2HC2H3C2HSH8CHCH2SH2C2H5CH4CH7FeCHSCH2C2H2FeH2C3H2CH2C2SHSH4NHCH6SFeC3SH3CH7FeH4CHCHNC2H9C3H2CH2CHC2H15C2HCH2C3H2C4H3NHC2FeHCHCSCHC2H3SH2CHCHCHC2H4CH2CH2C2H12CHSH10CHCSHSHC4H4C2HSH10C2H7FeS2HFeS3FeS2FeS2FeSFeS3FeSFeS2FeHFeS3FeSHFeS2FeSH2SH2SCHFeSH2CHCHFe2HCH2C2HC4HC3SH2CH3CHCH2SC6H4C6H4C6H4C6H4SCH4C3H2NC12H28NCHNCH2CSC3H2SH2SH2CFe2H4CH2NC10H21CHFeHCHCNCH2FeC2HCH7CH2FeCH2CH5SH3C2H2CHCHSH2C2H7CH2CH7SHCH3CH4C2NC2SC2HCH2CHCFeHC2H3CH4CH3CH6C2HCHFeHCHNH2C4H4C2HCH3CH2CH3SCH2CH4CHCH2C2H2C2SC2HC2H2C3H9FeH3SCSCH3C2HCNH3C2H2CH3CH4CH5SC2H2C2H2CH2C2H4CH4CHC3H5CHCH2CHCHNHCH4FeHSHCH4SFeS2FeSHFeSFeS3CHCH2C2HC2FeS2FeS2CH3CH4C4HC4H4C6H4SHCHCHFeH3C6H5CH3NCH3C6H7SHCH4NHCHC2HC6H7CH8SC3HCHS2H2CH7NC9HC2H6CH18CH2CH4CH2CNC4HC4HCSH6CHCH3SH6CHCH3CH5SH13CHCH3CHNC10HCH9FeH2CH4FeCHCH3C2H2CHCHC2H2CHCH7C2H3CH6FeHC2H2CH2CHCHNHCH3SH3CH2NC3H4C4H2CH6C2H2C7H2CH2CHSCHCHCH3CH4C2HC3H7CH2NH2CH3NHFeH4CH10CH7C3HCH7C2HSCH3SCHCHC3HCH2
_chemical_formula_sum              "S384 H3072 Fe192 C1728 N96"
_cell_length_a       54.5045
_cell_length_b       54.2989
_cell_length_c       71.6746
_cell_angle_alpha    81.236
_cell_angle_beta     81.035
_cell_angle_gamma    106.594

_space_group_name_H-M_alt    "P 1"
_space_group_IT_number       1

loop_
  _space_group_symop_operation_xyz
  'x, y, z'

loop_
  _atom_site_type_symbol
  _atom_site_label
  _atom_site_symmetry_multiplicity
  _atom_site_fract_x
  _atom_site_fract_y
  _atom_site_fract_z
  _atom_site_occupancy
  S   S1        1.0  0.39598  0.06052  0.21485  1.0000
  H   H1        1.0  0.42639  0.19038  0.12478  1.0000
  H   H2        1.0  0.44563  0.36860  0.01119  1.0000
  H   H3        1.0  0.34094  0.04765  0.22667  1.0000
  H   H4        1.0  0.44654  0.17261  0.15047  1.0000
  H   H5        1.0  0.44189  0.16632  0.02426  1.0000
  Fe  Fe1       1.0  0.43758  0.06025  0.21045  1.0000
  C   C1        1.0  0.41676  0.13034  0.18405  1.0000
  H   H6        1.0  0.42109  0.10639  0.12987  1.0000
  C   C2        1.0  0.36057  0.11811  0.18328  1.0000
  C   C3        1.0  0.43830  0.15974  0.14083  1.0000
  H   H7        1.0  0.43048  0.39104  0.12182  1.0000
  H   H8        1.0  0.33197  0.08229  0.20133  1.0000
  H   H9        1.0  0.42563  0.31890  0.99679  1.0000
  H   H10       1.0  0.46426  0.33445  0.01412  1.0000
  C   C4        1.0  0.43094  0.30516  0.05644  1.0000
  C   C5        1.0  0.43876  0.17767  0.12207  1.0000
  H   H11       1.0  0.43881  0.17870  0.04622  1.0000
  H   H12       1.0  0.46535  0.32830  0.09750  1.0000
  C   C6        1.0  0.47790  0.32109  0.05341  1.0000
  H   H13       1.0  0.45013  0.11664  0.18775  1.0000
  H   H14       1.0  0.41199  0.14874  0.18525  1.0000
  H   H15       1.0  0.42570  0.06378  0.12563  1.0000
  H   H16       1.0  0.42507  0.27174  0.00271  1.0000
  H   H17       1.0  0.39418  0.07948  0.14498  1.0000
  C   C7        1.0  0.45507  0.44613  0.15470  1.0000
  H   H18       1.0  0.46975  0.44932  0.16400  1.0000
  H   H19       1.0  0.37636  0.08570  0.18415  1.0000
  H   H20       1.0  0.46968  0.36780  0.10129  1.0000
  H   H21       1.0  0.31985  0.10979  0.19711  1.0000
  H   H22       1.0  0.41146  0.33449  0.05537  1.0000
  H   H23       1.0  0.39315  0.45006  0.03971  1.0000
  H   H24       1.0  0.45193  0.35514  0.12563  1.0000
  C   C8        1.0  0.37876  0.10410  0.17365  1.0000
  H   H25       1.0  0.44899  0.47687  0.01499  1.0000
  C   C9        1.0  0.43124  0.47801  0.02445  1.0000
  C   C10       1.0  0.44611  0.13560  0.18471  1.0000
  H   H26       1.0  0.46942  0.28572  0.09208  1.0000
  N   N1        1.0  0.47236  0.36323  0.98762  1.0000
  S   S2        1.0  0.46807  0.08953  0.22020  1.0000
  C   C11       1.0  0.43005  0.33086  0.05484  1.0000
  C   C12       1.0  0.44978  0.37244  0.99508  1.0000
  H   H27       1.0  0.41304  0.28909  0.05820  1.0000
  H   H28       1.0  0.47880  0.14305  0.01823  1.0000
  S   S3        1.0  0.45070  0.38363  0.04989  1.0000
  H   H29       1.0  0.43044  0.28759  0.02258  1.0000
  H   H30       1.0  0.40305  0.44679  0.01505  1.0000
  H   H31       1.0  0.42540  0.43107  0.05018  1.0000
  C   C13       1.0  0.44923  0.40407  0.11230  1.0000
  H   H32       1.0  0.46805  0.31958  0.13342  1.0000
  H   H33       1.0  0.41787  0.08462  0.17307  1.0000
  C   C14       1.0  0.45300  0.35180  0.05252  1.0000
  N   N2        1.0  0.40747  0.11996  0.16704  1.0000
  H   H34       1.0  0.36709  0.12510  0.19599  1.0000
  C   C15       1.0  0.47025  0.16170  0.04181  1.0000
  H   H35       1.0  0.46528  0.41369  0.99710  1.0000
  H   H36       1.0  0.25611  0.47758  0.17436  1.0000
  H   H37       1.0  0.35994  0.13515  0.17287  1.0000
  H   H38       1.0  0.37039  0.09767  0.16136  1.0000
  C   C16       1.0  0.47702  0.34699  0.05187  1.0000
  H   H39       1.0  0.45917  0.19043  0.11575  1.0000
  H   H40       1.0  0.47756  0.36286  0.15053  1.0000
  H   H41       1.0  0.43701  0.48006  0.03849  1.0000
  H   H42       1.0  0.45714  0.14216  0.05017  1.0000
  H   H43       1.0  0.41586  0.40014  0.00436  1.0000
  H   H44       1.0  0.45751  0.28235  0.00759  1.0000
  C   C17       1.0  0.45297  0.17682  0.03401  1.0000
  H   H45       1.0  0.40002  0.13446  0.13937  1.0000
  H   H46       1.0  0.42422  0.05399  0.15107  1.0000
  H   H47       1.0  0.43137  0.36091  0.99161  1.0000
  H   H48       1.0  0.41464  0.00169  0.16043  1.0000
  H   H49       1.0  0.36935  0.47299  0.03136  1.0000
  H   H50       1.0  0.40505  0.40964  0.03797  1.0000
  H   H51       1.0  0.46506  0.19690  0.02597  1.0000
  H   H52       1.0  0.44892  0.40226  0.09708  1.0000
  C   C18       1.0  0.42027  0.42900  0.03597  1.0000
  C   C19       1.0  0.45332  0.15001  0.20079  1.0000
  H   H53       1.0  0.44332  0.11099  0.15747  1.0000
  S   S4        1.0  0.46132  0.06788  0.18051  1.0000
  C   C20       1.0  0.42779  0.40779  0.98945  1.0000
  H   H54       1.0  0.45112  0.42475  0.11321  1.0000
  H   H55       1.0  0.43976  0.42693  0.16113  1.0000
  C   C21       1.0  0.43016  0.07110  0.13877  1.0000
  S   S5        1.0  0.46707  0.45660  0.20709  1.0000
  C   C22       1.0  0.41009  0.14217  0.15065  1.0000
  C   C23       1.0  0.40985  0.45100  0.02836  1.0000
  H   H56       1.0  0.39984  0.15569  0.15570  1.0000
  C   C24       1.0  0.43912  0.28738  0.00760  1.0000
  H   H57       1.0  0.45125  0.14802  0.13718  1.0000
  S   S6        1.0  0.45474  0.26754  0.05658  1.0000
  S   S7        1.0  0.45022  0.02619  0.22126  1.0000
  C   C25       1.0  0.42179  0.10153  0.16084  1.0000
  C   C26       1.0  0.44260  0.46806  0.15346  1.0000
  H   H58       1.0  0.43793  0.42929  0.02570  1.0000
  C   C27       1.0  0.41530  0.09034  0.14288  1.0000
  H   H59       1.0  0.43336  0.48598  0.21787  1.0000
  H   H60       1.0  0.43240  0.46708  0.16836  1.0000
  C   C28       1.0  0.33254  0.09940  0.19035  1.0000
  C   C29       1.0  0.45480  0.30014  0.05559  1.0000
  H   H61       1.0  0.32456  0.09225  0.17812  1.0000
  H   H62       1.0  0.45937  0.14731  0.17099  1.0000
  C   C30       1.0  0.47240  0.39706  0.11852  1.0000
  C   C31       1.0  0.47165  0.29166  0.10601  1.0000
  H   H63       1.0  0.40608  0.11608  0.19784  1.0000
  C   C32       1.0  0.47098  0.36853  0.11656  1.0000
  H   H64       1.0  0.43188  0.16590  0.11141  1.0000
  H   H65       1.0  0.39613  0.48186  0.00043  1.0000
  H   H66       1.0  0.44109  0.13838  0.21502  1.0000
  H   H67       1.0  0.45063  0.16967  0.19810  1.0000
  H   H68       1.0  0.47420  0.15275  0.20123  1.0000
  H   H69       1.0  0.45241  0.28311  0.11627  1.0000
  C   C33       1.0  0.44408  0.31398  0.99436  1.0000
  H   H70       1.0  0.42820  0.46387  0.14409  1.0000
  H   H71       1.0  0.46471  0.44528  0.14009  1.0000
  C   C34       1.0  0.46727  0.33539  0.99824  1.0000
  H   H72       1.0  0.45163  0.08086  0.13630  1.0000
  H   H73       1.0  0.47216  0.39963  0.13361  1.0000
  C   C35       1.0  0.45383  0.40213  0.98799  1.0000
  Fe  Fe2       1.0  0.47695  0.03622  0.19223  1.0000
  H   H74       1.0  0.43151  0.42934  0.98564  1.0000
  H   H75       1.0  0.40275  0.48602  0.16212  1.0000
  H   H76       1.0  0.44278  0.48142  0.98476  1.0000
  S   S8        1.0  0.47891  0.00632  0.17399  1.0000
  H   H77       1.0  0.48033  0.17223  0.05190  1.0000
  Fe  Fe3       1.0  0.16597  0.22967  0.45336  1.0000
  S   S9        1.0  0.20210  0.23214  0.43224  1.0000
  H   H78       1.0  0.30271  0.37423  0.42132  1.0000
  Fe  Fe4       1.0  0.12879  0.20339  0.42959  1.0000
  S   S10       1.0  0.16151  0.20478  0.40577  1.0000
  S   S11       1.0  0.08626  0.17996  0.43377  1.0000
  Fe  Fe5       1.0  0.17937  0.19120  0.42996  1.0000
  S   S12       1.0  0.19534  0.15733  0.42807  1.0000
  Fe  Fe6       1.0  0.18145  0.24555  0.40986  1.0000
  S   S13       1.0  0.20083  0.28247  0.38639  1.0000
  S   S14       1.0  0.14568  0.18773  0.45349  1.0000
  S   S15       1.0  0.14641  0.24533  0.43130  1.0000
  S   S16       1.0  0.10752  0.04680  0.44205  1.0000
  H   H79       1.0  0.14157  0.30468  0.41729  1.0000
  H   H80       1.0  0.44305  0.48702  0.28981  1.0000
  H   H81       1.0  0.05139  0.19104  0.46695  1.0000
  S   S17       1.0  0.01137  0.23210  0.39563  1.0000
  C   C36       1.0  0.34765  0.03754  0.23802  1.0000
  H   H82       1.0  0.18275  0.32541  0.44264  1.0000
  H   H83       1.0  0.08110  0.19656  0.47593  1.0000
  C   C37       1.0  0.27919  0.24545  0.43609  1.0000
  C   C38       1.0  0.44760  0.07890  0.29233  1.0000
  H   H84       1.0  0.12714  0.99049  0.48091  1.0000
  H   H85       1.0  0.08448  0.24322  0.47459  1.0000
  H   H86       1.0  0.00848  0.40532  0.25973  1.0000
  H   H87       1.0  0.01225  0.24478  0.43856  1.0000
  Fe  Fe7       1.0  0.35093  0.37037  0.34739  1.0000
  S   S18       1.0  0.36883  0.36529  0.31837  1.0000
  S   S19       1.0  0.32439  0.33461  0.36984  1.0000
  Fe  Fe8       1.0  0.36962  0.40673  0.30756  1.0000
  S   S20       1.0  0.35856  0.41854  0.27938  1.0000
  S   S21       1.0  0.34847  0.41040  0.33599  1.0000
  H   H88       1.0  0.42966  0.01745  0.28072  1.0000
  Fe  Fe9       1.0  0.38927  0.42642  0.34088  1.0000
  H   H89       1.0  0.20482  0.31071  0.33540  1.0000
  C   C39       1.0  0.26690  0.00886  0.42954  1.0000
  H   H90       1.0  0.28550  0.02534  0.42676  1.0000
  C   C40       1.0  0.45187  0.36091  0.30109  1.0000
  C   C41       1.0  0.46008  0.37138  0.26606  1.0000
  H   H91       1.0  0.24835  0.41633  0.26079  1.0000
  H   H92       1.0  0.07048  0.29991  0.42959  1.0000
  H   H93       1.0  0.29344  0.40786  0.35239  1.0000
  H   H94       1.0  0.18042  0.08965  0.46377  1.0000
  H   H95       1.0  0.27390  0.34204  0.45228  1.0000
  C   C42       1.0  0.01780  0.26641  0.43698  1.0000
  C   C43       1.0  0.45096  0.99298  0.34483  1.0000
  S   S22       1.0  0.40359  0.00223  0.34644  1.0000
  C   C44       1.0  0.25913  0.42885  0.26969  1.0000
  H   H96       1.0  0.42776  0.47489  0.38439  1.0000
  H   H97       1.0  0.99524  0.27872  0.37579  1.0000
  H   H98       1.0  0.05234  0.47899  0.28875  1.0000
  H   H99       1.0  0.22305  0.11086  0.43600  1.0000
  C   C45       1.0  0.21448  0.31377  0.45215  1.0000
  C   C46       1.0  0.36114  0.45198  0.27364  1.0000
  C   C47       1.0  0.34634  0.46242  0.28604  1.0000
  H   H100      1.0  0.19613  0.99166  0.35650  1.0000
  H   H101      1.0  0.41209  0.27798  0.28850  1.0000
  H   H102      1.0  0.44905  0.16205  0.31730  1.0000
  H   H103      1.0  0.28505  0.99731  0.36862  1.0000
  C   C48       1.0  0.44831  0.37457  0.28406  1.0000
  C   C49       1.0  0.06227  0.16178  0.36809  1.0000
  H   H104      1.0  0.04511  0.14993  0.36325  1.0000
  H   H105      1.0  0.27598  0.43132  0.34982  1.0000
  H   H106      1.0  0.45073  0.06643  0.28178  1.0000
  H   H107      1.0  0.03066  0.40212  0.31991  1.0000
  N   N3        1.0  0.05504  0.27066  0.45633  1.0000
  H   H108      1.0  0.27027  0.99606  0.45843  1.0000
  S   S23       1.0  0.20565  0.01825  0.39169  1.0000
  H   H109      1.0  0.98674  0.41168  0.27876  1.0000
  H   H110      1.0  0.27220  0.44752  0.26001  1.0000
  C   C50       1.0  0.98813  0.29256  0.34751  1.0000
  S   S24       1.0  0.43931  0.36578  0.32379  1.0000
  H   H111      1.0  0.47296  0.15195  0.32856  1.0000
  C   C51       1.0  0.32955  0.02164  0.25454  1.0000
  C   C52       1.0  0.99644  0.35008  0.32985  1.0000
  H   H112      1.0  0.99861  0.25831  0.35855  1.0000
  H   H113      1.0  0.18005  0.29149  0.44308  1.0000
  C   C53       1.0  0.23523  0.29677  0.38150  1.0000
  C   C54       1.0  0.24681  0.32283  0.37114  1.0000
  C   C55       1.0  0.27420  0.33468  0.36714  1.0000
  C   C56       1.0  0.29013  0.32044  0.37340  1.0000
  C   C57       1.0  0.27855  0.29436  0.38365  1.0000
  C   C58       1.0  0.25124  0.28255  0.38765  1.0000
  H   H114      1.0  0.23448  0.33398  0.36649  1.0000
  H   H115      1.0  0.28292  0.35497  0.35973  1.0000
  H   H116      1.0  0.29075  0.28324  0.38859  1.0000
  H   H117      1.0  0.24256  0.26236  0.39537  1.0000
  C   C59       1.0  0.17113  0.12632  0.43235  1.0000
  C   C60       1.0  0.14706  0.12091  0.44499  1.0000
  C   C61       1.0  0.12805  0.09613  0.44836  1.0000
  C   C62       1.0  0.13266  0.07678  0.43875  1.0000
  C   C63       1.0  0.15683  0.08191  0.42634  1.0000
  C   C64       1.0  0.17605  0.10661  0.42320  1.0000
  H   H118      1.0  0.14322  0.13562  0.45248  1.0000
  H   H119      1.0  0.10968  0.09196  0.45840  1.0000
  H   H120      1.0  0.16057  0.06705  0.41886  1.0000
  H   H121      1.0  0.19450  0.11067  0.41325  1.0000
  C   C65       1.0  0.06567  0.19511  0.42357  1.0000
  C   C66       1.0  0.07576  0.21977  0.41118  1.0000
  C   C67       1.0  0.05884  0.23099  0.40273  1.0000
  C   C68       1.0  0.03184  0.21767  0.40675  1.0000
  C   C69       1.0  0.02175  0.19319  0.41942  1.0000
  C   C70       1.0  0.03866  0.18190  0.42777  1.0000
  H   H122      1.0  0.09660  0.22998  0.40786  1.0000
  H   H123      1.0  0.06669  0.24993  0.39290  1.0000
  H   H124      1.0  0.00098  0.18285  0.42260  1.0000
  H   H125      1.0  0.03081  0.16283  0.43740  1.0000
  C   C71       1.0  0.21881  0.30503  0.32525  1.0000
  H   H126      1.0  0.25029  0.01645  0.43339  1.0000
  C   C72       1.0  0.03153  0.47446  0.28934  1.0000
  H   H127      1.0  0.46286  0.40210  0.37038  1.0000
  H   H128      1.0  0.20416  0.22215  0.47597  1.0000
  H   H129      1.0  0.23084  0.29617  0.33362  1.0000
  C   C73       1.0  0.23126  0.09550  0.44174  1.0000
  C   C74       1.0  0.25035  0.00681  0.37948  1.0000
  C   C75       1.0  0.46654  0.34362  0.30013  1.0000
  H   H130      1.0  0.06719  0.30589  0.46758  1.0000
  H   H131      1.0  0.24057  0.00784  0.29136  1.0000
  H   H132      1.0  0.44225  0.12498  0.30074  1.0000
  H   H133      1.0  0.00872  0.33963  0.32265  1.0000
  H   H134      1.0  0.00542  0.43764  0.25817  1.0000
  C   C76       1.0  0.47979  0.06735  0.30908  1.0000
  C   C77       1.0  0.10381  0.29144  0.43723  1.0000
  H   H135      1.0  0.04213  0.23159  0.45041  1.0000
  C   C78       1.0  0.46391  0.41642  0.35722  1.0000
  H   H136      1.0  0.41294  0.99997  0.30483  1.0000
  Fe  Fe10      1.0  0.16435  0.00000  0.40899  1.0000
  H   H137      1.0  0.98606  0.26865  0.42281  1.0000
  H   H138      1.0  0.23436  0.01590  0.32149  1.0000
  H   H139      1.0  0.20342  0.31703  0.42406  1.0000
  H   H140      1.0  0.31880  0.35126  0.41384  1.0000
  H   H141      1.0  0.27610  0.01042  0.30559  1.0000
  H   H142      1.0  0.08618  0.23422  0.45124  1.0000
  H   H143      1.0  0.99357  0.16216  0.46496  1.0000
  H   H144      1.0  0.99256  0.21197  0.46957  1.0000
  H   H145      1.0  0.30900  0.01962  0.25582  1.0000
  C   C79       1.0  0.27333  0.27149  0.43473  1.0000
  H   H146      1.0  0.29587  0.32455  0.44665  1.0000
  C   C80       1.0  0.27641  0.33454  0.42368  1.0000
  N   N4        1.0  0.27192  0.37409  0.30553  1.0000
  C   C81       1.0  0.29105  0.36613  0.29206  1.0000
  C   C82       1.0  0.25795  0.38856  0.29356  1.0000
  C   C83       1.0  0.28685  0.39130  0.31739  1.0000
  C   C84       1.0  0.25196  0.35044  0.31918  1.0000
  C   C85       1.0  0.23628  0.32888  0.30978  1.0000
  C   C86       1.0  0.30434  0.34744  0.30176  1.0000
  C   C87       1.0  0.27098  0.40506  0.32972  1.0000
  C   C88       1.0  0.27552  0.41498  0.28001  1.0000
  H   H147      1.0  0.47527  0.10411  0.25708  1.0000
  C   C89       1.0  0.32405  0.34171  0.28677  1.0000
  C   C90       1.0  0.28755  0.42099  0.34175  1.0000
  H   H148      1.0  0.30715  0.38380  0.28357  1.0000
  H   H149      1.0  0.28159  0.35692  0.28105  1.0000
  H   H150      1.0  0.24836  0.37616  0.28408  1.0000
  H   H151      1.0  0.24163  0.39222  0.30296  1.0000
  H   H152      1.0  0.30452  0.40660  0.30805  1.0000
  H   H153      1.0  0.29479  0.37963  0.32755  1.0000
  H   H154      1.0  0.26142  0.34108  0.32963  1.0000
  H   H155      1.0  0.23708  0.35644  0.32821  1.0000
  H   H156      1.0  0.24932  0.32191  0.29990  1.0000
  H   H157      1.0  0.22343  0.33642  0.30148  1.0000
  H   H158      1.0  0.31499  0.35629  0.31230  1.0000
  H   H159      1.0  0.28972  0.32837  0.30940  1.0000
  H   H160      1.0  0.25372  0.39054  0.33993  1.0000
  H   H161      1.0  0.26408  0.41884  0.32044  1.0000
  H   H162      1.0  0.28652  0.42872  0.28803  1.0000
  H   H163      1.0  0.28993  0.41159  0.26874  1.0000
  H   H164      1.0  0.98385  0.38386  0.31909  1.0000
  C   C91       1.0  0.02941  0.27530  0.45427  1.0000
  H   H165      1.0  0.24036  0.08865  0.42942  1.0000
  H   H166      1.0  0.33339  0.32840  0.29404  1.0000
  H   H167      1.0  0.31416  0.33212  0.27612  1.0000
  H   H168      1.0  0.33972  0.36017  0.27903  1.0000
  H   H169      1.0  0.32618  0.46818  0.35837  1.0000
  H   H170      1.0  0.30529  0.43594  0.33231  1.0000
  H   H171      1.0  0.98142  0.37704  0.35715  1.0000
  H   H172      1.0  0.27566  0.31867  0.41564  1.0000
  C   C92       1.0  0.15872  0.03974  0.48286  1.0000
  C   C93       1.0  0.02480  0.39319  0.30767  1.0000
  N   N5        1.0  0.37005  0.28029  0.35153  1.0000
  C   C94       1.0  0.36078  0.25063  0.35648  1.0000
  C   C95       1.0  0.39272  0.29043  0.33421  1.0000
  C   C96       1.0  0.37961  0.28977  0.36872  1.0000
  C   C97       1.0  0.34812  0.29111  0.34823  1.0000
  C   C98       1.0  0.33384  0.28268  0.33210  1.0000
  C   C99       1.0  0.33774  0.23760  0.37420  1.0000
  C   C100      1.0  0.39626  0.31919  0.36510  1.0000
  C   C101      1.0  0.39188  0.27459  0.31787  1.0000
  C   C102      1.0  0.41356  0.28935  0.30014  1.0000
  C   C103      1.0  0.30836  0.28949  0.33371  1.0000
  C   C104      1.0  0.33005  0.20766  0.37769  1.0000
  C   C105      1.0  0.39906  0.32825  0.38405  1.0000
  H   H173      1.0  0.37744  0.24348  0.35915  1.0000
  H   H174      1.0  0.35444  0.24220  0.34423  1.0000
  H   H175      1.0  0.39532  0.31128  0.32770  1.0000
  H   H176      1.0  0.41143  0.29076  0.33880  1.0000
  H   H177      1.0  0.39184  0.27827  0.37437  1.0000
  H   H178      1.0  0.36276  0.28650  0.38085  1.0000
  H   H179      1.0  0.33322  0.28645  0.36185  1.0000
  H   H180      1.0  0.35548  0.31288  0.34447  1.0000
  H   H181      1.0  0.32867  0.26129  0.33267  1.0000
  H   H182      1.0  0.34641  0.29355  0.31781  1.0000
  H   H183      1.0  0.34309  0.24347  0.38756  1.0000
  H   H184      1.0  0.32013  0.24306  0.37189  1.0000
  H   H185      1.0  0.38759  0.33211  0.35677  1.0000
  H   H186      1.0  0.41629  0.32226  0.35689  1.0000
  H   H187      1.0  0.39500  0.25554  0.32295  1.0000
  H   H188      1.0  0.37303  0.27030  0.31318  1.0000
  H   H189      1.0  0.43306  0.29192  0.30381  1.0000
  H   H190      1.0  0.29932  0.28498  0.32126  1.0000
  H   H191      1.0  0.29424  0.27775  0.34721  1.0000
  H   H192      1.0  0.34680  0.20095  0.38058  1.0000
  H   H193      1.0  0.31357  0.19884  0.39043  1.0000
  H   H194      1.0  0.32355  0.20049  0.36499  1.0000
  H   H195      1.0  0.37967  0.32747  0.39223  1.0000
  H   H196      1.0  0.40766  0.31580  0.39304  1.0000
  H   H197      1.0  0.41221  0.34889  0.38089  1.0000
  H   H198      1.0  0.28043  0.99531  0.32842  1.0000
  C   C106      1.0  0.98705  0.27059  0.36395  1.0000
  S   S25       1.0  0.13159  0.01268  0.39963  1.0000
  H   H199      1.0  0.45216  0.99784  0.25901  1.0000
  S   S26       1.0  0.32976  0.99187  0.34078  1.0000
  H   H200      1.0  0.45788  0.38245  0.25288  1.0000
  H   H201      1.0  0.02080  0.44760  0.31681  1.0000
  C   C107      1.0  0.24179  0.00109  0.32923  1.0000
  H   H202      1.0  0.03374  0.23295  0.47492  1.0000
  C   C108      1.0  0.22485  0.99727  0.39071  1.0000
  H   H203      1.0  0.00703  0.35805  0.34080  1.0000
  N   N6        1.0  0.25540  0.29990  0.45607  1.0000
  C   C109      1.0  0.99729  0.37327  0.31401  1.0000
  H   H204      1.0  0.03160  0.29659  0.45296  1.0000
  C   C110      1.0  0.28580  0.03657  0.32456  1.0000
  C   C111      1.0  0.07413  0.28214  0.43708  1.0000
  H   H205      1.0  0.06072  0.18179  0.36791  1.0000
  H   H206      1.0  0.04676  0.09927  0.47539  1.0000
  H   H207      1.0  0.29537  0.24562  0.44382  1.0000
  H   H208      1.0  0.42726  0.04373  0.31483  1.0000
  C   C112      1.0  0.01370  0.45665  0.30518  1.0000
  H   H209      1.0  0.28511  0.24226  0.42133  1.0000
  H   H210      1.0  0.25825  0.02721  0.37215  1.0000
  C   C113      1.0  0.43344  0.47640  0.35380  1.0000
  C   C114      1.0  0.12046  0.29792  0.41680  1.0000
  C   C115      1.0  0.46968  0.10742  0.31310  1.0000
  C   C116      1.0  0.23035  0.29470  0.44862  1.0000
  C   C117      1.0  0.37426  0.04023  0.23605  1.0000
  H   H211      1.0  0.99202  0.36597  0.30107  1.0000
  H   H212      1.0  0.10975  0.27658  0.44614  1.0000
  C   C118      1.0  0.27177  0.00937  0.32135  1.0000
  H   H213      1.0  0.28947  0.31620  0.48060  1.0000
  H   H214      1.0  0.11666  0.28022  0.41032  1.0000
  H   H215      1.0  0.99744  0.29568  0.43430  1.0000
  H   H216      1.0  0.38260  0.03983  0.31180  1.0000
  C   C119      1.0  0.19383  0.08165  0.47116  1.0000
  H   H217      1.0  0.26546  0.00137  0.41606  1.0000
  H   H218      1.0  0.24249  0.31866  0.47865  1.0000
  H   H219      1.0  0.32063  0.48394  0.33610  1.0000
  H   H220      1.0  0.41966  0.07249  0.31994  1.0000
  H   H221      1.0  0.20684  0.09903  0.47518  1.0000
  H   H222      1.0  0.00908  0.30381  0.34151  1.0000
  H   H223      1.0  0.28369  0.03650  0.34021  1.0000
  H   H224      1.0  0.37108  0.00083  0.27897  1.0000
  N   N7        1.0  0.47280  0.09015  0.29887  1.0000
  H   H225      1.0  0.43903  0.13129  0.33448  1.0000
  C   C120      1.0  0.27600  0.32547  0.44541  1.0000
  C   C121      1.0  0.30106  0.35750  0.41387  1.0000
  C   C122      1.0  0.33783  0.00836  0.26938  1.0000
  H   H226      1.0  0.40194  0.04366  0.28817  1.0000
  S   S27       1.0  0.15485  0.00577  0.43922  1.0000
  H   H227      1.0  0.21697  0.27454  0.45555  1.0000
  C   C123      1.0  0.45510  0.14487  0.32270  1.0000
  H   H228      1.0  0.19667  0.06183  0.44684  1.0000
  H   H229      1.0  0.21970  0.05869  0.46162  1.0000
  H   H230      1.0  0.46599  0.05809  0.32327  1.0000
  H   H231      1.0  0.39307  0.07110  0.29509  1.0000
  C   C124      1.0  0.06379  0.20317  0.47524  1.0000
  C   C125      1.0  0.24859  0.30104  0.47715  1.0000
  H   H232      1.0  0.44548  0.40971  0.35203  1.0000
  C   C126      1.0  0.20991  0.07229  0.45546  1.0000
  N   N8        1.0  0.07270  0.10970  0.40731  1.0000
  C   C127      1.0  0.06345  0.12053  0.38999  1.0000
  C   C128      1.0  0.06861  0.08076  0.40834  1.0000
  C   C129      1.0  0.05522  0.11209  0.42507  1.0000
  C   C130      1.0  0.10092  0.12416  0.40720  1.0000
  C   C131      1.0  0.12002  0.13532  0.38716  1.0000
  C   C132      1.0  0.06276  0.14920  0.38854  1.0000
  C   C133      1.0  0.06095  0.10212  0.44488  1.0000
  C   C134      1.0  0.08480  0.07327  0.39167  1.0000
  C   C135      1.0  0.07704  0.04343  0.39380  1.0000
  C   C136      1.0  0.14844  0.13988  0.38894  1.0000
  H   H233      1.0  0.47740  0.05157  0.30061  1.0000
  C   C137      1.0  0.04310  0.10757  0.46135  1.0000
  H   H234      1.0  0.04323  0.10805  0.39008  1.0000
  H   H235      1.0  0.07532  0.11947  0.37631  1.0000
  H   H236      1.0  0.07393  0.07199  0.42154  1.0000
  H   H237      1.0  0.04749  0.07008  0.40947  1.0000
  H   H238      1.0  0.03428  0.10178  0.42526  1.0000
  H   H239      1.0  0.05674  0.13296  0.42476  1.0000
  H   H240      1.0  0.10236  0.14128  0.41428  1.0000
  H   H241      1.0  0.10904  0.11122  0.41625  1.0000
  H   H242      1.0  0.11819  0.15444  0.38061  1.0000
  H   H243      1.0  0.11621  0.12227  0.37681  1.0000
  H   H244      1.0  0.04471  0.14926  0.39819  1.0000
  H   H245      1.0  0.07979  0.16184  0.39300  1.0000
  H   H246      1.0  0.08147  0.11232  0.44550  1.0000
  H   H247      1.0  0.05745  0.08062  0.44776  1.0000
  H   H248      1.0  0.08185  0.08150  0.37739  1.0000
  H   H249      1.0  0.10593  0.08026  0.39206  1.0000
  H   H250      1.0  0.08930  0.03851  0.38194  1.0000
  H   H251      1.0  0.08018  0.03409  0.40776  1.0000
  H   H252      1.0  0.05616  0.03513  0.39305  1.0000
  H   H253      1.0  0.15316  0.15137  0.40017  1.0000
  H   H254      1.0  0.15190  0.12075  0.39282  1.0000
  H   H255      1.0  0.16182  0.15082  0.37496  1.0000
  C   C138      1.0  0.07311  0.23214  0.46532  1.0000
  C   C139      1.0  0.26564  0.27695  0.45503  1.0000
  H   H256      1.0  0.44150  0.09450  0.28436  1.0000
  H   H257      1.0  0.01382  0.26486  0.46737  1.0000
  H   H258      1.0  0.40335  0.02909  0.24951  1.0000
  C   C140      1.0  0.99565  0.48042  0.27508  1.0000
  H   H259      1.0  0.04714  0.12907  0.46011  1.0000
  C   C141      1.0  0.42368  0.06187  0.30838  1.0000
  H   H260      1.0  0.45609  0.09558  0.32683  1.0000
  C   C142      1.0  0.37696  0.46800  0.25618  1.0000
  H   H261      1.0  0.20391  0.30865  0.46750  1.0000
  C   C143      1.0  0.39888  0.05370  0.30029  1.0000
  H   H262      1.0  0.45882  0.01300  0.34636  1.0000
  H   H263      1.0  0.24494  0.43360  0.28031  1.0000
  H   H264      1.0  0.33414  0.45026  0.29950  1.0000
  H   H265      1.0  0.28365  0.27969  0.46101  1.0000
  H   H266      1.0  0.25751  0.27017  0.42664  1.0000
  H   H267      1.0  0.98080  0.41450  0.23645  1.0000
  H   H268      1.0  0.44530  0.48142  0.32300  1.0000
  H   H269      1.0  0.26146  0.22883  0.44379  1.0000
  H   H270      1.0  0.20742  0.28992  0.31833  1.0000
  C   C144      1.0  0.42986  0.00256  0.29311  1.0000
  H   H271      1.0  0.29136  0.28719  0.42640  1.0000
  H   H272      1.0  0.02506  0.40918  0.29588  1.0000
  C   C145      1.0  0.04966  0.24143  0.46183  1.0000
  H   H273      1.0  0.38842  0.45997  0.24653  1.0000
  H   H274      1.0  0.31222  0.31069  0.33378  1.0000
  H   H275      1.0  0.99181  0.48172  0.33737  1.0000
  H   H276      1.0  0.16883  0.02951  0.47346  1.0000
  H   H277      1.0  0.41191  0.30894  0.29455  1.0000
  H   H278      1.0  0.27788  0.05148  0.31763  1.0000
  S   S28       1.0  0.41028  0.42550  0.31171  1.0000
  H   H279      1.0  0.07087  0.26786  0.42737  1.0000
  H   H280      1.0  0.47048  0.42739  0.31739  1.0000
  H   H281      1.0  0.46950  0.33321  0.31327  1.0000
  H   H282      1.0  0.14737  0.04838  0.47360  1.0000
  H   H283      1.0  0.23394  0.29472  0.43297  1.0000
  H   H284      1.0  0.02219  0.09829  0.46112  1.0000
  S   S29       1.0  0.39996  0.46078  0.35521  1.0000
  S   S30       1.0  0.38983  0.38707  0.35495  1.0000
  C   C146      1.0  0.19397  0.31179  0.43966  1.0000
  Fe  Fe11      1.0  0.40747  0.38448  0.32527  1.0000
  H   H285      1.0  0.03176  0.27556  0.42296  1.0000
  C   C147      1.0  0.36454  0.01109  0.26759  1.0000
  H   H286      1.0  0.08056  0.16355  0.35790  1.0000
  C   C148      1.0  0.98680  0.45030  0.30597  1.0000
  H   H287      1.0  0.24669  0.10437  0.44940  1.0000
  H   H288      1.0  0.22743  0.33444  0.44907  1.0000
  Fe  Fe12      1.0  0.12016  0.01483  0.43069  1.0000
  C   C149      1.0  0.44167  0.48158  0.37070  1.0000
  H   H289      1.0  0.11608  0.31374  0.40747  1.0000
  H   H290      1.0  0.25930  0.34122  0.42200  1.0000
  H   H291      1.0  0.44794  0.00973  0.29862  1.0000
  H   H292      1.0  0.30701  0.04210  0.31806  1.0000
  C   C150      1.0  0.38279  0.02701  0.25087  1.0000
  H   H293      1.0  0.10876  0.30962  0.44314  1.0000
  C   C151      1.0  0.46053  0.13106  0.30618  1.0000
  H   H294      1.0  0.30021  0.36428  0.39863  1.0000
  H   H295      1.0  0.03924  0.38371  0.30223  1.0000
  H   H296      1.0  0.43713  0.38811  0.28471  1.0000
  C   C152      1.0  0.45155  0.48538  0.33610  1.0000
  H   H297      1.0  0.08461  0.28379  0.47308  1.0000
  H   H298      1.0  0.46581  0.43586  0.36107  1.0000
  C   C153      1.0  0.99453  0.41630  0.26291  1.0000
  C   C154      1.0  0.06484  0.28457  0.47176  1.0000
  C   C155      1.0  0.33187  0.48700  0.34768  1.0000
  C   C156      1.0  0.34682  0.48853  0.28080  1.0000
  C   C157      1.0  0.99318  0.27414  0.43574  1.0000
  H   H299      1.0  0.46943  0.45228  0.28961  1.0000
  H   H300      1.0  0.25097  0.25869  0.46420  1.0000
  C   C158      1.0  0.99268  0.15452  0.48042  1.0000
  H   H301      1.0  0.36530  0.47950  0.33288  1.0000
  H   H302      1.0  0.23892  0.00363  0.34441  1.0000
  H   H303      1.0  0.09302  0.15840  0.47744  1.0000
  H   H304      1.0  0.20824  0.99435  0.48088  1.0000
  S   S31       1.0  0.16256  0.24556  0.48040  1.0000
  C   C159      1.0  0.47475  0.35401  0.26513  1.0000
  C   C160      1.0  0.47748  0.33975  0.28222  1.0000
  H   H305      1.0  0.41358  0.47696  0.28055  1.0000
  H   H306      1.0  0.47528  0.46989  0.25474  1.0000
  H   H307      1.0  0.23973  0.99537  0.25988  1.0000
  H   H308      1.0  0.00779  0.14458  0.48135  1.0000
  H   H309      1.0  0.47638  0.13233  0.26742  1.0000
  H   H310      1.0  0.98382  0.31999  0.36524  1.0000
  C   C161      1.0  0.02264  0.48619  0.27418  1.0000
  H   H311      1.0  0.47614  0.14572  0.29472  1.0000
  C   C162      1.0  0.26549  0.98995  0.37749  1.0000
  H   H312      1.0  0.15200  0.10015  0.48367  1.0000
  Fe  Fe13      1.0  0.22312  0.23328  0.60495  1.0000
  S   S32       1.0  0.18140  0.20731  0.61635  1.0000
  S   S33       1.0  0.24336  0.24949  0.62790  1.0000
  Fe  Fe14      1.0  0.22134  0.22474  0.56408  1.0000
  S   S34       1.0  0.17979  0.19805  0.57232  1.0000
  S   S35       1.0  0.24204  0.23164  0.53315  1.0000
  Fe  Fe15      1.0  0.17287  0.22747  0.58952  1.0000
  S   S36       1.0  0.14010  0.24500  0.58774  1.0000
  Fe  Fe16      1.0  0.19224  0.18027  0.59815  1.0000
  S   S37       1.0  0.18417  0.13713  0.61026  1.0000
  S   S38       1.0  0.21383  0.25579  0.57941  1.0000
  S   S39       1.0  0.23448  0.20475  0.58859  1.0000
  S   S40       1.0  0.14123  0.05640  0.55936  1.0000
  H   H313      1.0  0.08816  0.12430  0.48634  1.0000
  S   S41       1.0  0.01262  0.23280  0.55657  1.0000
  S   S42       1.0  0.02416  0.17447  0.58988  1.0000
  H   H314      1.0  0.17368  0.17502  0.51247  1.0000
  H   H315      1.0  0.02276  0.34815  0.73257  1.0000
  C   C163      1.0  0.22994  0.00484  0.61875  1.0000
  S   S43       1.0  0.99793  0.38889  0.65228  1.0000
  H   H316      1.0  0.46539  0.04482  0.60667  1.0000
  H   H317      1.0  0.36695  0.22898  0.66602  1.0000
  C   C164      1.0  0.34222  0.42289  0.71459  1.0000
  Fe  Fe17      1.0  0.00606  0.39420  0.68153  1.0000
  S   S44       1.0  0.04673  0.40875  0.68724  1.0000
  H   H318      1.0  0.46121  0.09546  0.61682  1.0000
  Fe  Fe18      1.0  0.37656  0.33885  0.63497  1.0000
  S   S45       1.0  0.35308  0.33187  0.66487  1.0000
  S   S46       1.0  0.36342  0.31643  0.61219  1.0000
  Fe  Fe19      1.0  0.42044  0.38387  0.64227  1.0000
  S   S47       1.0  0.40040  0.38036  0.67288  1.0000
  S   S48       1.0  0.46100  0.41108  0.62846  1.0000
  Fe  Fe20      1.0  0.39128  0.33696  0.67429  1.0000
  S   S49       1.0  0.39135  0.30663  0.69936  1.0000
  Fe  Fe21      1.0  0.36439  0.37570  0.66042  1.0000
  S   S50       1.0  0.33258  0.39395  0.66605  1.0000
  S   S51       1.0  0.41414  0.34068  0.64468  1.0000
  S   S52       1.0  0.38516  0.38257  0.62959  1.0000
  C   C165      1.0  0.19621  0.04881  0.49873  1.0000
  H   H319      1.0  0.03358  0.04199  0.67577  1.0000
  H   H320      1.0  0.18039  0.09082  0.50597  1.0000
  C   C166      1.0  0.44231  0.04166  0.63491  1.0000
  C   C167      1.0  0.44251  0.04005  0.65454  1.0000
  H   H321      1.0  0.26594  0.28671  0.68388  1.0000
  H   H322      1.0  0.23399  0.08072  0.48810  1.0000
  H   H323      1.0  0.05059  0.02196  0.61777  1.0000
  C   C168      1.0  0.46470  0.03796  0.66128  1.0000
  H   H324      1.0  0.37509  0.24135  0.69802  1.0000
  H   H325      1.0  0.07678  0.99045  0.57858  1.0000
  C   C169      1.0  0.04193  0.12253  0.56827  1.0000
  H   H326      1.0  0.20676  0.31143  0.60248  1.0000
  C   C170      1.0  0.98371  0.32428  0.62189  1.0000
  C   C171      1.0  0.13930  0.01796  0.49952  1.0000
  H   H327      1.0  0.06299  0.13832  0.49413  1.0000
  H   H328      1.0  0.02565  0.26889  0.60097  1.0000
  H   H329      1.0  0.41402  0.44475  0.63120  1.0000
  C   C172      1.0  0.34708  0.41243  0.69805  1.0000
  H   H330      1.0  0.33733  0.12773  0.63070  1.0000
  S   S53       1.0  0.35269  0.03702  0.69720  1.0000
  Fe  Fe22      1.0  0.33778  0.06679  0.68195  1.0000
  H   H331      1.0  0.00568  0.27951  0.63874  1.0000
  H   H332      1.0  0.36588  0.40986  0.69346  1.0000
  H   H333      1.0  0.47346  0.23958  0.69897  1.0000
  H   H334      1.0  0.39643  0.10381  0.61262  1.0000
  C   C173      1.0  0.44212  0.33277  0.70169  1.0000
  C   C174      1.0  0.41962  0.31092  0.70893  1.0000
  H   H335      1.0  0.01327  0.25196  0.63272  1.0000
  H   H336      1.0  0.44262  0.34748  0.68948  1.0000
  H   H337      1.0  0.42511  0.04309  0.62965  1.0000
  H   H338      1.0  0.07834  0.03362  0.58566  1.0000
  S   S54       1.0  0.13766  0.99143  0.59612  1.0000
  N   N9        1.0  0.17858  0.06096  0.48892  1.0000
  C   C175      1.0  0.04812  0.41918  0.70923  1.0000
  C   C176      1.0  0.44624  0.41769  0.70060  1.0000
  H   H339      1.0  0.01882  0.23637  0.66495  1.0000
  H   H340      1.0  0.38600  0.43126  0.65111  1.0000
  H   H341      1.0  0.02848  0.44796  0.70363  1.0000
  H   H342      1.0  0.40180  0.23917  0.65701  1.0000
  H   H343      1.0  0.27089  0.01252  0.65051  1.0000
  H   H344      1.0  0.45141  0.16157  0.68732  1.0000
  H   H345      1.0  0.10460  0.19015  0.50126  1.0000
  H   H346      1.0  0.41025  0.45971  0.66971  1.0000
  C   C177      1.0  0.47086  0.46219  0.61076  1.0000
  C   C178      1.0  0.27737  0.26575  0.62313  1.0000
  C   C179      1.0  0.29224  0.27515  0.60428  1.0000
  C   C180      1.0  0.31887  0.29010  0.60106  1.0000
  C   C181      1.0  0.33067  0.29583  0.61665  1.0000
  C   C182      1.0  0.31598  0.28564  0.63549  1.0000
  C   C183      1.0  0.28942  0.27075  0.63870  1.0000
  H   H347      1.0  0.28312  0.27137  0.59218  1.0000
  H   H348      1.0  0.33020  0.29776  0.58645  1.0000
  H   H349      1.0  0.32504  0.28936  0.64758  1.0000
  H   H350      1.0  0.27807  0.26330  0.65332  1.0000
  C   C184      1.0  0.10820  0.22487  0.58820  1.0000
  C   C185      1.0  0.10068  0.19751  0.59381  1.0000
  C   C186      1.0  0.07471  0.18223  0.59463  1.0000
  C   C187      1.0  0.05636  0.19414  0.58939  1.0000
  C   C188      1.0  0.06401  0.22147  0.58371  1.0000
  C   C189      1.0  0.08976  0.23677  0.58327  1.0000
  H   H351      1.0  0.11474  0.18825  0.59789  1.0000
  H   H352      1.0  0.06879  0.16115  0.59941  1.0000
  H   H353      1.0  0.05002  0.23089  0.57990  1.0000
  H   H354      1.0  0.09547  0.25794  0.57900  1.0000
  C   C190      1.0  0.17483  0.11600  0.59455  1.0000
  C   C191      1.0  0.17660  0.09058  0.59846  1.0000
  C   C192      1.0  0.16812  0.07291  0.58668  1.0000
  C   C193      1.0  0.15615  0.07996  0.57177  1.0000
  C   C194      1.0  0.15441  0.10535  0.56774  1.0000
  C   C195      1.0  0.16414  0.12352  0.57894  1.0000
  H   H355      1.0  0.18407  0.08432  0.61081  1.0000
  H   H356      1.0  0.16951  0.05330  0.58987  1.0000
  H   H357      1.0  0.14516  0.11080  0.55619  1.0000
  H   H358      1.0  0.16234  0.14291  0.57602  1.0000
  H   H359      1.0  0.19972  0.25320  0.53769  1.0000
  C   C196      1.0  0.22013  0.23539  0.51835  1.0000
  N   N10       1.0  0.09941  0.17875  0.53224  1.0000
  C   C197      1.0  0.08467  0.15603  0.54896  1.0000
  C   C198      1.0  0.12873  0.18559  0.53084  1.0000
  C   C199      1.0  0.09149  0.20220  0.53645  1.0000
  C   C200      1.0  0.09259  0.17349  0.51331  1.0000
  C   C201      1.0  0.05446  0.14571  0.55115  1.0000
  C   C202      1.0  0.10499  0.22828  0.52139  1.0000
  C   C203      1.0  0.13963  0.16255  0.53624  1.0000
  C   C204      1.0  0.16912  0.17050  0.52851  1.0000
  H   H360      1.0  0.08495  0.06125  0.65020  1.0000
  C   C205      1.0  0.09858  0.25124  0.52859  1.0000
  H   H361      1.0  0.08897  0.16153  0.56274  1.0000
  H   H362      1.0  0.09132  0.13872  0.54816  1.0000
  H   H363      1.0  0.13944  0.19663  0.51601  1.0000
  H   H364      1.0  0.13541  0.19933  0.54049  1.0000
  H   H365      1.0  0.09528  0.20588  0.55080  1.0000
  H   H366      1.0  0.07016  0.19852  0.53749  1.0000
  H   H367      1.0  0.45674  0.43391  0.70702  1.0000
  H   H368      1.0  0.04531  0.16100  0.55367  1.0000
  H   H369      1.0  0.46381  0.19650  0.68546  1.0000
  H   H370      1.0  0.12650  0.23304  0.51840  1.0000
  H   H371      1.0  0.13577  0.15649  0.55223  1.0000
  H   H372      1.0  0.13052  0.14516  0.53054  1.0000
  C   C206      1.0  0.43544  0.39221  0.71578  1.0000
  H   H373      1.0  0.17944  0.18800  0.53371  1.0000
  H   H374      1.0  0.17659  0.15423  0.53360  1.0000
  S   S55       1.0  0.41665  0.04250  0.67134  1.0000
  H   H375      1.0  0.43022  0.42272  0.69468  1.0000
  H   H376      1.0  0.05009  0.10624  0.56664  1.0000
  H   H377      1.0  0.30622  0.01203  0.73272  1.0000
  H   H378      1.0  0.22411  0.99353  0.64965  1.0000
  H   H379      1.0  0.10812  0.26949  0.51736  1.0000
  H   H380      1.0  0.02050  0.11521  0.56917  1.0000
  S   S56       1.0  0.46984  0.13376  0.72720  1.0000
  C   C207      1.0  0.99052  0.31851  0.60366  1.0000
  C   C208      1.0  0.44824  0.18055  0.68214  1.0000
  C   C209      1.0  0.38606  0.24200  0.66744  1.0000
  C   C210      1.0  0.20660  0.04602  0.66276  1.0000
  C   C211      1.0  0.42119  0.18003  0.69223  1.0000
  C   C212      1.0  0.08212  0.46663  0.65034  1.0000
  H   H381      1.0  0.08871  0.13117  0.51919  1.0000
  H   H382      1.0  0.40656  0.16341  0.68877  1.0000
  H   H383      1.0  0.39489  0.33917  0.73007  1.0000
  H   H384      1.0  0.27303  0.28197  0.49175  1.0000
  C   C213      1.0  0.22151  0.22682  0.50085  1.0000
  C   C214      1.0  0.41682  0.10331  0.60888  1.0000
  C   C215      1.0  0.20340  0.22923  0.48929  1.0000
  H   H385      1.0  0.29967  0.17123  0.70096  1.0000
  C   C216      1.0  0.09709  0.14869  0.50728  1.0000
  H   H386      1.0  0.09448  0.46636  0.67728  1.0000
  H   H387      1.0  0.05639  0.31129  0.50191  1.0000
  H   H388      1.0  0.20217  0.03478  0.49070  1.0000
  S   S57       1.0  0.30319  0.03682  0.67649  1.0000
  C   C217      1.0  0.41763  0.47763  0.65791  1.0000
  H   H389      1.0  0.40181  0.40323  0.72622  1.0000
  H   H390      1.0  0.36982  0.27382  0.67085  1.0000
  H   H391      1.0  0.33598  0.12525  0.60587  1.0000
  H   H392      1.0  0.45251  0.38835  0.72084  1.0000
  C   C218      1.0  0.27054  0.30171  0.48870  1.0000
  H   H393      1.0  0.25570  0.06889  0.51386  1.0000
  H   H394      1.0  0.43152  0.13566  0.62219  1.0000
  H   H395      1.0  0.02715  0.27316  0.49307  1.0000
  S   S58       1.0  0.31683  0.04078  0.62003  1.0000
  C   C219      1.0  0.41539  0.39446  0.73282  1.0000
  H   H396      1.0  0.36454  0.46972  0.67978  1.0000
  H   H397      1.0  0.41607  0.08248  0.60981  1.0000
  H   H398      1.0  0.35721  0.42819  0.72280  1.0000
  H   H399      1.0  0.27109  0.41827  0.62857  1.0000
  C   C220      1.0  0.39521  0.44698  0.63795  1.0000
  S   S59       1.0  0.34486  0.00637  0.66121  1.0000
  H   H400      1.0  0.06990  0.00421  0.62755  1.0000
  H   H401      1.0  0.14991  0.00613  0.50689  1.0000
  H   H402      1.0  0.11842  0.15221  0.50256  1.0000
  C   C221      1.0  0.43186  0.00352  0.71513  1.0000
  S   S60       1.0  0.19609  0.99216  0.61915  1.0000
  C   C222      1.0  0.43162  0.06511  0.73335  1.0000
  C   C223      1.0  0.46504  0.04260  0.62197  1.0000
  C   C224      1.0  0.26368  0.30889  0.50823  1.0000
  H   H403      1.0  0.28943  0.03703  0.58876  1.0000
  H   H404      1.0  0.10622  0.25422  0.54185  1.0000
  C   C225      1.0  0.05805  0.29140  0.50627  1.0000
  C   C226      1.0  0.45201  0.48602  0.68632  1.0000
  H   H405      1.0  0.46262  0.26828  0.69650  1.0000
  C   C227      1.0  0.00178  0.46804  0.64840  1.0000
  Fe  Fe23      1.0  0.17922  0.99080  0.59223  1.0000
  C   C228      1.0  0.27517  0.02759  0.60207  1.0000
  H   H406      1.0  0.38578  0.10037  0.69783  1.0000
  Fe  Fe24      1.0  0.98244  0.21387  0.54076  1.0000
  H   H407      1.0  0.07708  0.24764  0.53175  1.0000
  H   H408      1.0  0.40901  0.25147  0.68880  1.0000
  H   H409      1.0  0.03694  0.01343  0.65184  1.0000
  H   H410      1.0  0.06097  0.45651  0.65668  1.0000
  C   C229      1.0  0.46804  0.09828  0.68645  1.0000
  H   H411      1.0  0.40499  0.28428  0.66231  1.0000
  C   C230      1.0  0.46156  0.11590  0.61758  1.0000
  H   H412      1.0  0.42619  0.37625  0.70870  1.0000
  C   C231      1.0  0.05463  0.02305  0.65716  1.0000
  H   H413      1.0  0.24480  0.29479  0.51685  1.0000
  H   H414      1.0  0.27914  0.30798  0.51650  1.0000
  C   C232      1.0  0.46897  0.44495  0.62793  1.0000
  C   C233      1.0  0.24852  0.01683  0.60155  1.0000
  C   C234      1.0  0.04587  0.34200  0.66092  1.0000
  H   H415      1.0  0.42557  0.11439  0.59381  1.0000
  N   N11       1.0  0.25632  0.10965  0.62828  1.0000
  C   C235      1.0  0.24542  0.08389  0.64284  1.0000
  C   C236      1.0  0.28577  0.12039  0.62595  1.0000
  C   C237      1.0  0.24453  0.12899  0.63624  1.0000
  C   C238      1.0  0.24886  0.10719  0.60910  1.0000
  C   C239      1.0  0.25723  0.08676  0.59902  1.0000
  C   C240      1.0  0.21559  0.06965  0.64586  1.0000
  C   C241      1.0  0.25578  0.15799  0.62490  1.0000
  C   C242      1.0  0.30116  0.10032  0.62715  1.0000
  C   C243      1.0  0.33069  0.11415  0.62105  1.0000
  C   C244      1.0  0.24329  0.08153  0.58241  1.0000
  N   N12       1.0  0.39102  0.20913  0.69591  1.0000
  C   C245      1.0  0.24346  0.17566  0.63513  1.0000
  H   H416      1.0  0.25008  0.08698  0.65709  1.0000
  H   H417      1.0  0.25491  0.06929  0.63894  1.0000
  H   H418      1.0  0.29450  0.13487  0.61200  1.0000
  H   H419      1.0  0.29079  0.13146  0.63746  1.0000
  H   H420      1.0  0.24675  0.12894  0.65145  1.0000
  H   H421      1.0  0.22313  0.12327  0.63667  1.0000
  H   H422      1.0  0.22738  0.10287  0.61064  1.0000
  H   H423      1.0  0.25751  0.12624  0.59856  1.0000
  H   H424      1.0  0.25257  0.06770  0.60908  1.0000
  H   H425      1.0  0.27859  0.09435  0.59280  1.0000
  H   H426      1.0  0.20373  0.08255  0.64910  1.0000
  H   H427      1.0  0.21106  0.06236  0.63271  1.0000
  H   H428      1.0  0.25152  0.15970  0.61021  1.0000
  H   H429      1.0  0.27726  0.16598  0.62354  1.0000
  H   H430      1.0  0.29711  0.08919  0.64227  1.0000
  H   H431      1.0  0.29578  0.08597  0.61791  1.0000
  C   C246      1.0  0.07122  0.02231  0.61737  1.0000
  H   H432      1.0  0.34106  0.09927  0.62202  1.0000
  H   H433      1.0  0.46405  0.45447  0.59878  1.0000
  H   H434      1.0  0.25129  0.06855  0.57445  1.0000
  H   H435      1.0  0.22202  0.07141  0.58811  1.0000
  H   H436      1.0  0.24614  0.10016  0.57217  1.0000
  C   C247      1.0  0.10789  0.25888  0.63192  1.0000
  H   H437      1.0  0.18561  0.03513  0.66406  1.0000
  H   H438      1.0  0.10494  0.45797  0.71932  1.0000
  H   H439      1.0  0.22204  0.16977  0.63566  1.0000
  H   H440      1.0  0.24695  0.17474  0.65004  1.0000
  H   H441      1.0  0.25236  0.19636  0.62711  1.0000
  N   N13       1.0  0.26558  0.33910  0.63331  1.0000
  C   C248      1.0  0.29382  0.34578  0.62314  1.0000
  C   C249      1.0  0.26037  0.32092  0.65278  1.0000
  C   C250      1.0  0.24873  0.32451  0.62106  1.0000
  C   C251      1.0  0.25798  0.36334  0.63541  1.0000
  C   C252      1.0  0.27513  0.38309  0.64531  1.0000
  C   C253      1.0  0.30197  0.36378  0.60274  1.0000
  C   C254      1.0  0.21892  0.31263  0.63009  1.0000
  C   C255      1.0  0.28285  0.32482  0.66406  1.0000
  C   C256      1.0  0.27357  0.30782  0.68443  1.0000
  H   H442      1.0  0.45777  0.11217  0.69071  1.0000
  C   C257      1.0  0.33132  0.37059  0.59473  1.0000
  C   C258      1.0  0.20414  0.29805  0.61652  1.0000
  H   H443      1.0  0.29835  0.32738  0.62165  1.0000
  H   H444      1.0  0.30750  0.35537  0.63179  1.0000
  H   H445      1.0  0.24266  0.32179  0.66242  1.0000
  H   H446      1.0  0.25576  0.30009  0.65109  1.0000
  H   H447      1.0  0.25574  0.30813  0.61731  1.0000
  H   H448      1.0  0.25039  0.33758  0.60707  1.0000
  H   H449      1.0  0.25741  0.37413  0.62106  1.0000
  H   H450      1.0  0.23769  0.35778  0.64403  1.0000
  H   H451      1.0  0.29621  0.38880  0.63860  1.0000
  H   H452      1.0  0.27193  0.37458  0.66090  1.0000
  H   H453      1.0  0.29168  0.35383  0.59243  1.0000
  H   H454      1.0  0.29771  0.38250  0.60311  1.0000
  H   H455      1.0  0.21031  0.32823  0.63291  1.0000
  H   H456      1.0  0.47734  0.44187  0.65634  1.0000
  H   H457      1.0  0.29895  0.31893  0.65655  1.0000
  H   H458      1.0  0.29119  0.34539  0.66529  1.0000
  H   H459      1.0  0.00621  0.45003  0.65240  1.0000
  H   H460      1.0  0.18290  0.28998  0.62315  1.0000
  H   H461      1.0  0.12911  0.02620  0.51038  1.0000
  H   H462      1.0  0.35534  0.48026  0.71258  1.0000
  H   H463      1.0  0.15569  0.04523  0.64225  1.0000
  H   H464      1.0  0.07130  0.31184  0.60925  1.0000
  H   H465      1.0  0.33655  0.35247  0.59354  1.0000
  H   H466      1.0  0.33676  0.38342  0.58012  1.0000
  H   H467      1.0  0.34284  0.38118  0.60423  1.0000
  C   C259      1.0  0.28340  0.02634  0.61974  1.0000
  H   H468      1.0  0.21122  0.28138  0.61391  1.0000
  S   S61       1.0  0.19333  0.02128  0.56468  1.0000
  C   C260      1.0  0.13138  0.09539  0.51258  1.0000
  C   C261      1.0  0.43264  0.11548  0.62291  1.0000
  H   H469      1.0  0.23620  0.21780  0.49650  1.0000
  H   H470      1.0  0.39565  0.03560  0.73326  1.0000
  C   C262      1.0  0.05125  0.29738  0.61404  1.0000
  H   H471      1.0  0.45179  0.12129  0.65773  1.0000
  H   H472      1.0  0.24406  0.04132  0.50277  1.0000
  H   H473      1.0  0.03285  0.00960  0.68685  1.0000
  H   H474      1.0  0.31245  0.04727  0.72690  1.0000
  H   H475      1.0  0.43240  0.02214  0.70599  1.0000
  C   C263      1.0  0.46586  0.11191  0.65134  1.0000
  H   H476      1.0  0.43686  0.47730  0.65019  1.0000
  Fe  Fe25      1.0  0.32965  0.03845  0.64875  1.0000
  C   C264      1.0  0.35261  0.11004  0.71149  1.0000
  H   H477      1.0  0.42201  0.99403  0.67973  1.0000
  H   H478      1.0  0.46476  0.03619  0.67647  1.0000
  H   H479      1.0  0.05238  0.20029  0.49012  1.0000
  H   H480      1.0  0.06231  0.03696  0.68333  1.0000
  H   H481      1.0  0.45181  0.00164  0.71291  1.0000
  H   H482      1.0  0.09128  0.45153  0.64704  1.0000
  C   C265      1.0  0.47855  0.45510  0.64314  1.0000
  H   H483      1.0  0.10683  0.25373  0.64769  1.0000
  H   H484      1.0  0.37294  0.21090  0.72454  1.0000
  H   H485      1.0  0.21515  0.29831  0.64385  1.0000
  H   H486      1.0  0.06548  0.00881  0.65918  1.0000
  H   H487      1.0  0.46024  0.41526  0.68856  1.0000
  C   C266      1.0  0.38611  0.27023  0.66141  1.0000
  S   S62       1.0  0.99367  0.21459  0.50901  1.0000
  C   C267      1.0  0.04531  0.02834  0.67696  1.0000
  H   H488      1.0  0.25804  0.31359  0.69292  1.0000
  C   C268      1.0  0.09553  0.48132  0.66448  1.0000
  C   C269      1.0  0.41909  0.29190  0.72462  1.0000
  H   H489      1.0  0.42019  0.24264  0.71683  1.0000
  C   C270      1.0  0.14509  0.02648  0.63857  1.0000
  C   C271      1.0  0.11622  0.02407  0.63955  1.0000
  H   H490      1.0  0.21627  0.08167  0.51128  1.0000
  C   C272      1.0  0.31915  0.17063  0.69408  1.0000
  H   H491      1.0  0.44987  0.18348  0.66627  1.0000
  H   H492      1.0  0.00345  0.33394  0.59191  1.0000
  C   C273      1.0  0.11927  0.47695  0.71973  1.0000
  C   C274      1.0  0.23828  0.00324  0.63633  1.0000
  C   C275      1.0  0.36806  0.18839  0.69242  1.0000
  H   H493      1.0  0.07884  0.30408  0.57566  1.0000
  Fe  Fe26      1.0  0.99693  0.19500  0.57847  1.0000
  H   H494      1.0  0.42280  0.10374  0.63763  1.0000
  C   C276      1.0  0.30344  0.40947  0.69318  1.0000
  C   C277      1.0  0.11819  0.99943  0.49191  1.0000
  H   H495      1.0  0.18532  0.03642  0.51316  1.0000
  H   H496      1.0  0.06849  0.39265  0.71880  1.0000
  C   C278      1.0  0.22134  0.06852  0.50199  1.0000
  H   H497      1.0  0.46381  0.15860  0.63353  1.0000
  H   H498      1.0  0.15728  0.06016  0.51737  1.0000
  C   C279      1.0  0.18456  0.24105  0.49494  1.0000
  H   H499      1.0  0.20909  0.05255  0.67650  1.0000
  H   H500      1.0  0.13835  0.47373  0.72044  1.0000
  H   H501      1.0  0.16923  0.25942  0.51664  1.0000
  C   C280      1.0  0.04025  0.44758  0.73117  1.0000
  H   H502      1.0  0.05695  0.05966  0.64009  1.0000
  H   H503      1.0  0.38193  0.44446  0.62761  1.0000
  H   H504      1.0  0.44430  0.05670  0.72442  1.0000
  C   C281      1.0  0.34061  0.18960  0.70111  1.0000
  H   H505      1.0  0.01589  0.30836  0.65812  1.0000
  C   C282      1.0  0.29843  0.41927  0.70980  1.0000
  H   H506      1.0  0.24693  0.40404  0.65099  1.0000
  H   H507      1.0  0.11611  0.10292  0.50760  1.0000
  C   C283      1.0  0.26482  0.01399  0.63685  1.0000
  H   H508      1.0  0.12200  0.07990  0.52586  1.0000
  S   S63       1.0  0.33284  0.10061  0.69498  1.0000
  C   C284      1.0  0.06045  0.40788  0.72223  1.0000
  C   C285      1.0  0.14382  0.08416  0.49672  1.0000
  H   H509      1.0  0.46930  0.12759  0.60257  1.0000
  C   C286      1.0  0.18346  0.24989  0.51231  1.0000
  H   H510      1.0  0.21804  0.03240  0.66051  1.0000
  N   N14       1.0  0.08609  0.04662  0.62366  1.0000
  H   H511      1.0  0.08404  0.48042  0.63665  1.0000
  C   C287      1.0  0.08829  0.07020  0.60845  1.0000
  C   C288      1.0  0.11347  0.04687  0.62511  1.0000
  H   H512      1.0  0.05551  0.24769  0.63142  1.0000
  H   H513      1.0  0.38347  0.27393  0.64628  1.0000
  C   C289      1.0  0.10035  0.09763  0.61309  1.0000
  C   C290      1.0  0.06339  0.26576  0.63703  1.0000
  H   H514      1.0  0.40019  0.48091  0.69545  1.0000
  C   C291      1.0  0.09845  0.11952  0.59778  1.0000
  H   H515      1.0  0.03183  0.35316  0.66315  1.0000
  H   H516      1.0  0.41598  0.20774  0.66973  1.0000
  H   H517      1.0  0.06859  0.06910  0.60540  1.0000
  H   H518      1.0  0.10078  0.07026  0.59454  1.0000
  H   H519      1.0  0.12479  0.04736  0.61081  1.0000
  H   H520      1.0  0.12420  0.06516  0.62934  1.0000
  H   H521      1.0  0.10184  0.29607  0.63279  1.0000
  C   C292      1.0  0.46403  0.33553  0.71033  1.0000
  H   H522      1.0  0.27955  0.42176  0.71430  1.0000
  C   C293      1.0  0.04778  0.27394  0.49252  1.0000
  H   H523      1.0  0.12137  0.10138  0.61331  1.0000
  C   C294      1.0  0.16560  0.07376  0.50303  1.0000
  H   H524      1.0  0.04797  0.33300  0.67533  1.0000
  H   H525      1.0  0.33894  0.20949  0.69707  1.0000
  H   H526      1.0  0.10646  0.00470  0.63643  1.0000
  H   H527      1.0  0.05687  0.26432  0.60106  1.0000
  C   C295      1.0  0.39424  0.11893  0.72183  1.0000
  H   H528      1.0  0.10749  0.11827  0.58311  1.0000
  H   H529      1.0  0.07766  0.11819  0.59832  1.0000
  H   H530      1.0  0.10896  0.13893  0.60059  1.0000
  H   H531      1.0  0.09581  0.28354  0.61151  1.0000
  H   H532      1.0  0.04813  0.31093  0.57597  1.0000
  H   H533      1.0  0.09979  0.24065  0.62663  1.0000
  S   S64       1.0  0.99101  0.28608  0.57782  1.0000
  N   N15       1.0  0.04682  0.28362  0.63480  1.0000
  H   H534      1.0  0.36972  0.18865  0.67671  1.0000
  C   C296      1.0  0.05426  0.30425  0.64670  1.0000
  H   H535      1.0  0.04622  0.28266  0.52115  1.0000
  H   H536      1.0  0.28022  0.42196  0.65132  1.0000
  C   C297      1.0  0.05722  0.29516  0.57855  1.0000
  H   H537      1.0  0.38036  0.47591  0.64836  1.0000
  C   C298      1.0  0.08202  0.01924  0.59678  1.0000
  C   C299      1.0  0.04686  0.27929  0.59925  1.0000
  H   H538      1.0  0.01625  0.26565  0.67281  1.0000
  C   C300      1.0  0.08448  0.14212  0.49029  1.0000
  C   C301      1.0  0.47989  0.26128  0.69418  1.0000
  C   C302      1.0  0.31776  0.42622  0.72048  1.0000
  H   H539      1.0  0.32168  0.17623  0.67817  1.0000
  H   H540      1.0  0.33269  0.48565  0.69791  1.0000
  H   H541      1.0  0.04819  0.25390  0.49825  1.0000
  H   H542      1.0  0.99154  0.34399  0.62420  1.0000
  H   H543      1.0  0.06226  0.25839  0.65261  1.0000
  C   C303      1.0  0.41596  0.20625  0.68538  1.0000
  H   H544      1.0  0.22668  0.04234  0.52613  1.0000
  H   H545      1.0  0.41420  0.11867  0.71983  1.0000
  H   H546      1.0  0.45265  0.46977  0.67879  1.0000
  H   H547      1.0  0.42032  0.17594  0.70797  1.0000
  H   H548      1.0  0.42699  0.08032  0.72365  1.0000
  H   H549      1.0  0.07406  0.31838  0.63996  1.0000
  H   H550      1.0  0.43319  0.22280  0.68605  1.0000
  C   C304      1.0  0.46351  0.31603  0.72578  1.0000
  H   H551      1.0  0.05226  0.28203  0.56829  1.0000
  H   H552      1.0  0.05608  0.29529  0.66124  1.0000
  H   H553      1.0  0.29030  0.31061  0.69186  1.0000
  C   C305      1.0  0.41447  0.22156  0.72357  1.0000
  H   H554      1.0  0.03323  0.33084  0.63571  1.0000
  C   C306      1.0  0.39037  0.23647  0.68841  1.0000
  C   C307      1.0  0.39971  0.47401  0.64303  1.0000
  H   H555      1.0  0.12793  0.06837  0.49359  1.0000
  C   C308      1.0  0.26777  0.40834  0.64391  1.0000
  H   H556      1.0  0.28838  0.40447  0.68495  1.0000
  H   H557      1.0  0.45345  0.07867  0.68803  1.0000
  C   C309      1.0  0.37817  0.10861  0.70940  1.0000
  H   H558      1.0  0.04922  0.13878  0.53808  1.0000
  Fe  Fe27      1.0  0.32063  0.00716  0.68935  1.0000
  H   H559      1.0  0.09032  0.09950  0.62725  1.0000
  H   H560      1.0  0.10329  0.02244  0.59425  1.0000
  H   H561      1.0  0.07195  0.17266  0.51331  1.0000
  H   H562      1.0  0.03783  0.30927  0.61251  1.0000
  C   C310      1.0  0.20087  0.24660  0.52417  1.0000
  H   H563      1.0  0.99732  0.17144  0.48767  1.0000
  H   H564      1.0  0.38562  0.18449  0.72406  1.0000
  C   C311      1.0  0.07124  0.04900  0.64265  1.0000
  H   H565      1.0  0.04513  0.12885  0.58195  1.0000
  H   H566      1.0  0.15472  0.02577  0.62391  1.0000
  H   H567      1.0  0.26226  0.32909  0.50625  1.0000
  C   C312      1.0  0.32762  0.40587  0.68729  1.0000
  H   H568      1.0  0.43685  0.47801  0.69982  1.0000
  H   H569      1.0  0.42603  0.00435  0.73041  1.0000
  C   C313      1.0  0.03791  0.43905  0.71371  1.0000
  H   H570      1.0  0.06506  0.35604  0.65280  1.0000
  Fe  Fe28      1.0  0.37579  0.03925  0.66788  1.0000
  Fe  Fe29      1.0  0.15134  0.01940  0.56739  1.0000
  H   H571      1.0  0.31961  0.15020  0.69795  1.0000
  S   S65       1.0  0.36309  0.07147  0.65307  1.0000
  H   H572      1.0  0.10804  0.02483  0.65453  1.0000
  C   C314      1.0  0.23789  0.05431  0.51178  1.0000
  H   H573      1.0  0.45380  0.09163  0.65143  1.0000
  H   H574      1.0  0.36820  0.16845  0.69879  1.0000
  C   C315      1.0  0.03554  0.32085  0.64970  1.0000
  H   H575      1.0  0.24235  0.01801  0.58791  1.0000
  C   C316      1.0  0.01842  0.26724  0.64145  1.0000
  H   H576      1.0  0.12880  0.26792  0.62451  1.0000
  H   H577      1.0  0.14673  0.00991  0.64895  1.0000
  C   C317      1.0  0.38975  0.20553  0.71738  1.0000
  C   C318      1.0  0.09289  0.27817  0.62746  1.0000
  C   C319      1.0  0.01005  0.25244  0.66287  1.0000
  H   H578      1.0  0.43117  0.21436  0.71932  1.0000
  H   H579      1.0  0.09827  0.22703  0.50761  1.0000
  H   H580      1.0  0.07988  0.48665  0.70669  1.0000
  H   H581      1.0  0.06186  0.48764  0.67909  1.0000
  H   H582      1.0  0.07881  0.29317  0.50641  1.0000
  H   H583      1.0  0.14638  0.11177  0.51602  1.0000
  H   H584      1.0  0.37772  0.36147  0.72487  1.0000
  C   C320      1.0  0.34296  0.12088  0.72637  1.0000
  H   H585      1.0  0.10607  0.01021  0.48532  1.0000
  H   H586      1.0  0.34304  0.31865  0.72440  1.0000
  H   H587      1.0  0.33657  0.18396  0.71711  1.0000
  H   H588      1.0  0.32321  0.12189  0.72814  1.0000
  C   C321      1.0  0.44108  0.29421  0.73278  1.0000
  H   H589      1.0  0.47366  0.47839  0.73305  1.0000
  H   H590      1.0  0.98095  0.45152  0.73213  1.0000
  H   H591      1.0  0.23138  0.28390  0.48492  1.0000
  H   H592      1.0  0.11251  0.48358  0.73294  1.0000
  H   H593      1.0  0.40160  0.27522  0.73040  1.0000
  C   C322      1.0  0.98095  0.29285  0.60061  1.0000
  N   N16       1.0  0.47917  0.12645  0.63085  1.0000
  C   C323      1.0  0.06886  0.99179  0.59351  1.0000
  C   C324      1.0  0.35733  0.33052  0.74955  1.0000
  C   C325      1.0  0.48000  0.04201  0.76943  1.0000
  C   C326      1.0  0.98389  0.38642  0.78734  1.0000
  C   C327      1.0  0.47719  0.36527  0.96598  1.0000
  H   H594      1.0  0.47667  0.17292  0.80359  1.0000
  H   H595      1.0  0.07878  0.47152  0.85533  1.0000
  Fe  Fe30      1.0  0.44710  0.15176  0.74676  1.0000
  H   H596      1.0  0.44893  0.42379  0.88993  1.0000
  H   H597      1.0  0.23223  0.45083  0.82456  1.0000
  S   S66       1.0  0.40362  0.43639  0.78978  1.0000
  H   H598      1.0  0.31468  0.07384  0.79335  1.0000
  H   H599      1.0  0.47910  0.40922  0.76769  1.0000
  C   C328      1.0  0.46884  0.42310  0.76479  1.0000
  Fe  Fe31      1.0  0.06074  0.48356  0.77206  1.0000
  H   H600      1.0  0.01416  0.48161  0.86972  1.0000
  C   C329      1.0  0.43196  0.43115  0.89320  1.0000
  C   C330      1.0  0.38447  0.12999  0.73659  1.0000
  H   H601      1.0  0.46483  0.40946  0.97280  1.0000
  H   H602      1.0  0.36273  0.46159  0.87011  1.0000
  H   H603      1.0  0.41657  0.44635  0.91798  1.0000
  C   C331      1.0  0.41682  0.40705  0.92841  1.0000
  C   C332      1.0  0.45477  0.06838  0.78177  1.0000
  C   C333      1.0  0.45293  0.36093  0.95647  1.0000
  C   C334      1.0  0.43517  0.04547  0.79237  1.0000
  H   H604      1.0  0.37466  0.00974  0.78494  1.0000
  H   H605      1.0  0.46991  0.24601  0.87012  1.0000
  C   C335      1.0  0.36204  0.00896  0.77404  1.0000
  H   H606      1.0  0.34896  0.08208  0.76366  1.0000
  S   S67       1.0  0.05074  0.44188  0.76788  1.0000
  H   H607      1.0  0.42826  0.22970  0.74949  1.0000
  C   C336      1.0  0.45995  0.01911  0.77937  1.0000
  N   N17       1.0  0.40017  0.36914  0.74717  1.0000
  C   C337      1.0  0.47932  0.26159  0.79542  1.0000
  H   H608      1.0  0.99396  0.48097  0.79889  1.0000
  H   H609      1.0  0.45541  0.07079  0.83553  1.0000
  H   H610      1.0  0.26421  0.44692  0.81965  1.0000
  S   S68       1.0  0.34191  0.45545  0.78413  1.0000
  H   H611      1.0  0.36021  0.04384  0.79515  1.0000
  H   H612      1.0  0.45714  0.32360  0.81240  1.0000
  H   H613      1.0  0.98786  0.33368  0.73575  1.0000
  C   C338      1.0  0.47000  0.25818  0.77667  1.0000
  H   H614      1.0  0.46201  0.00013  0.77833  1.0000
  H   H615      1.0  0.47699  0.05421  0.81478  1.0000
  H   H616      1.0  0.39655  0.39755  0.92677  1.0000
  C   C339      1.0  0.47366  0.35789  0.82295  1.0000
  S   S69       1.0  0.47433  0.19298  0.73545  1.0000
  H   H617      1.0  0.46552  0.23727  0.77543  1.0000
  H   H618      1.0  0.24668  0.44050  0.84429  1.0000
  H   H619      1.0  0.47537  0.21785  0.86207  1.0000
  C   C340      1.0  0.25078  0.45329  0.82976  1.0000
  H   H620      1.0  0.46442  0.48266  0.79101  1.0000
  C   C341      1.0  0.40984  0.21908  0.74546  1.0000
  H   H621      1.0  0.41233  0.47888  0.89024  1.0000
  H   H622      1.0  0.47876  0.28506  0.97451  1.0000
  C   C342      1.0  0.41994  0.35787  0.75467  1.0000
  H   H623      1.0  0.35507  0.05517  0.73923  1.0000
  H   H624      1.0  0.46391  0.24743  0.80734  1.0000
  C   C343      1.0  0.47022  0.32905  0.82245  1.0000
  H   H625      1.0  0.44840  0.44298  0.91766  1.0000
  H   H626      1.0  0.45258  0.08735  0.78250  1.0000
  C   C344      1.0  0.26369  0.48199  0.83046  1.0000
  H   H627      1.0  0.45490  0.42223  0.83203  1.0000
  C   C345      1.0  0.30386  0.02926  0.73848  1.0000
  H   H628      1.0  0.44871  0.31139  0.97929  1.0000
  C   C346      1.0  0.43273  0.43933  0.77422  1.0000
  C   C347      1.0  0.44582  0.42094  0.77768  1.0000
  H   H629      1.0  0.41162  0.47623  0.86613  1.0000
  Fe  Fe32      1.0  0.34276  0.46347  0.75237  1.0000
  C   C348      1.0  0.00378  0.34227  0.74309  1.0000
  H   H630      1.0  0.43823  0.40513  0.79031  1.0000
  H   H631      1.0  0.37838  0.41314  0.75241  1.0000
  H   H632      1.0  0.47441  0.37590  0.92662  1.0000
  H   H633      1.0  0.00239  0.38159  0.73727  1.0000
  C   C349      1.0  0.46964  0.23562  0.85790  1.0000
  C   C350      1.0  0.34673  0.03626  0.75006  1.0000
  H   H634      1.0  0.30658  0.01454  0.76727  1.0000
  C   C351      1.0  0.00003  0.36634  0.75022  1.0000
  H   H635      1.0  0.39446  0.22773  0.75044  1.0000
  H   H636      1.0  0.41659  0.39843  0.97931  1.0000
  C   C352      1.0  0.41175  0.46482  0.88035  1.0000
  C   C353      1.0  0.36233  0.45469  0.88557  1.0000
  H   H637      1.0  0.99161  0.46191  0.75321  1.0000
  H   H638      1.0  0.01596  0.37352  0.75785  1.0000
  C   C354      1.0  0.47863  0.44352  0.74846  1.0000
  H   H639      1.0  0.44789  0.47003  0.84777  1.0000
  C   C355      1.0  0.38460  0.44326  0.88763  1.0000
  H   H640      1.0  0.41615  0.40964  0.94352  1.0000
  H   H641      1.0  0.36005  0.32036  0.76328  1.0000
  C   C356      1.0  0.05818  0.47058  0.85518  1.0000
  C   C357      1.0  0.44415  0.45184  0.85872  1.0000
  C   C358      1.0  0.05153  0.43529  0.74454  1.0000
  H   H642      1.0  0.37104  0.00090  0.76237  1.0000
  H   H643      1.0  0.43329  0.47478  0.75576  1.0000
  H   H644      1.0  0.39905  0.31573  0.76398  1.0000
  H   H645      1.0  0.42887  0.39414  0.92544  1.0000
  H   H646      1.0  0.28255  0.48314  0.86683  1.0000
  H   H647      1.0  0.23664  0.47701  0.85757  1.0000
  H   H648      1.0  0.46350  0.29172  0.80103  1.0000
  H   H649      1.0  0.34929  0.02102  0.74181  1.0000
  S   S70       1.0  0.38513  0.46781  0.74289  1.0000
  H   H650      1.0  0.43372  0.37291  0.76036  1.0000
  C   C359      1.0  0.34508  0.30951  0.73881  1.0000
  Fe  Fe33      1.0  0.38493  0.46301  0.77464  1.0000
  H   H651      1.0  0.01735  0.41331  0.80839  1.0000
  H   H652      1.0  0.34284  0.34075  0.75316  1.0000
  H   H653      1.0  0.05392  0.46578  0.84128  1.0000
  H   H654      1.0  0.04508  0.45468  0.86728  1.0000
  H   H655      1.0  0.45238  0.48209  0.89683  1.0000
  H   H656      1.0  0.07014  0.40574  0.75030  1.0000
  H   H657      1.0  0.35739  0.38569  0.74549  1.0000
  H   H658      1.0  0.46307  0.44752  0.85744  1.0000
  H   H659      1.0  0.42625  0.40937  0.74026  1.0000
  C   C360      1.0  0.45971  0.35766  0.93567  1.0000
  H   H660      1.0  0.46019  0.31725  0.83713  1.0000
  H   H661      1.0  0.45432  0.36034  0.82790  1.0000
  H   H662      1.0  0.44206  0.34109  0.78467  1.0000
  H   H663      1.0  0.41794  0.04678  0.80141  1.0000
  H   H664      1.0  0.44188  0.35353  0.92948  1.0000
  C   C361      1.0  0.06153  0.41541  0.74001  1.0000
  S   S71       1.0  0.40346  0.14358  0.75245  1.0000
  H   H665      1.0  0.43215  0.35290  0.74278  1.0000
  H   H666      1.0  0.43249  0.09182  0.81335  1.0000
  H   H667      1.0  0.28241  0.48345  0.83505  1.0000
  H   H668      1.0  0.35278  0.39762  0.78636  1.0000
  C   C362      1.0  0.42885  0.43379  0.91465  1.0000
  H   H669      1.0  0.31344  0.04932  0.76100  1.0000
  H   H670      1.0  0.41235  0.02771  0.75221  1.0000
  H   H671      1.0  0.32317  0.99396  0.79404  1.0000
  H   H672      1.0  0.44538  0.32228  0.76623  1.0000
  C   C363      1.0  0.43137  0.32520  0.77804  1.0000
  H   H673      1.0  0.44573  0.37811  0.95608  1.0000
  S   S72       1.0  0.31015  0.43883  0.74105  1.0000
  H   H674      1.0  0.98920  0.38986  0.82537  1.0000
  C   C364      1.0  0.40909  0.33227  0.77032  1.0000
  H   H675      1.0  0.45919  0.09750  0.84782  1.0000
  C   C365      1.0  0.38954  0.05370  0.75846  1.0000
  H   H676      1.0  0.39543  0.33409  0.78280  1.0000
  H   H677      1.0  0.41692  0.08630  0.83833  1.0000
  H   H678      1.0  0.46050  0.27355  0.83467  1.0000
  H   H679      1.0  0.44260  0.07426  0.74366  1.0000
  H   H680      1.0  0.00497  0.39319  0.78023  1.0000
  C   C366      1.0  0.38427  0.37606  0.76358  1.0000
  S   S73       1.0  0.46594  0.14454  0.77198  1.0000
  H   H681      1.0  0.38236  0.42708  0.87970  1.0000
  N   N18       1.0  0.36153  0.03626  0.76629  1.0000
  S   S74       1.0  0.41371  0.99236  0.80481  1.0000
  H   H682      1.0  0.40666  0.43542  0.85054  1.0000
  H   H683      1.0  0.38184  0.43462  0.90316  1.0000
  H   H684      1.0  0.33134  0.36985  0.77943  1.0000
  C   C367      1.0  0.46571  0.46209  0.74528  1.0000
  H   H685      1.0  0.43646  0.34344  0.96434  1.0000
  H   H686      1.0  0.32535  0.29722  0.74726  1.0000
  C   C368      1.0  0.31689  0.03217  0.75574  1.0000
  C   C369      1.0  0.36641  0.39219  0.75748  1.0000
  C   C370      1.0  0.45813  0.47737  0.88254  1.0000
  C   C371      1.0  0.43490  0.09770  0.82727  1.0000
  H   H687      1.0  0.39744  0.38776  0.77171  1.0000
  N   N19       1.0  0.43581  0.45599  0.87880  1.0000
  H   H688      1.0  0.43700  0.11893  0.82570  1.0000
  C   C372      1.0  0.44282  0.46003  0.75814  1.0000
  H   H689      1.0  0.28258  0.02617  0.74298  1.0000
  H   H690      1.0  0.47344  0.16018  0.83886  1.0000
  H   H691      1.0  0.44947  0.22926  0.85525  1.0000
  H   H692      1.0  0.99522  0.41595  0.75379  1.0000
  C   C373      1.0  0.99619  0.40879  0.81469  1.0000
  H   H693      1.0  0.98787  0.42719  0.78903  1.0000
  H   H694      1.0  0.37395  0.08843  0.77753  1.0000
  H   H695      1.0  0.36399  0.47144  0.89302  1.0000
  H   H696      1.0  0.42227  0.41053  0.82763  1.0000
  H   H697      1.0  0.35100  0.13896  0.75038  1.0000
  H   H698      1.0  0.46763  0.34099  0.93509  1.0000
  H   H699      1.0  0.41492  0.41498  0.89193  1.0000
  H   H700      1.0  0.34319  0.43936  0.89208  1.0000
  H   H701      1.0  0.41922  0.41076  0.86189  1.0000
  H   H702      1.0  0.39996  0.05717  0.77048  1.0000
  H   H703      1.0  0.40485  0.47021  0.96861  1.0000
  C   C374      1.0  0.34450  0.39042  0.77425  1.0000
  H   H704      1.0  0.42329  0.30669  0.78915  1.0000
  H   H705      1.0  0.44000  0.44503  0.82105  1.0000
  C   C375      1.0  0.35872  0.13059  0.73894  1.0000
  H   H706      1.0  0.00396  0.32714  0.75533  1.0000
  C   C376      1.0  0.35044  0.04685  0.78280  1.0000
  H   H707      1.0  0.39013  0.07350  0.75103  1.0000
  H   H708      1.0  0.45207  0.26394  0.77636  1.0000
  H   H709      1.0  0.35736  0.29652  0.73695  1.0000
  H   H710      1.0  0.33975  0.07915  0.80761  1.0000
  C   C377      1.0  0.47753  0.06666  0.77078  1.0000
  C   C378      1.0  0.38337  0.35046  0.73705  1.0000
  H   H711      1.0  0.32945  0.03584  0.78872  1.0000
  C   C379      1.0  0.43783  0.02084  0.79119  1.0000
  H   H712      1.0  0.99389  0.42463  0.82227  1.0000
  C   C380      1.0  0.33556  0.08413  0.79308  1.0000
  C   C381      1.0  0.35346  0.07655  0.77796  1.0000
  H   H713      1.0  0.37195  0.35834  0.77447  1.0000
  H   H714      1.0  0.44060  0.27916  0.74473  1.0000
  H   H715      1.0  0.33904  0.10565  0.78937  1.0000
  C   C382      1.0  0.40649  0.04346  0.74409  1.0000
  H   H716      1.0  0.47545  0.47055  0.88335  1.0000
  C   C383      1.0  0.43629  0.42682  0.83196  1.0000
  H   H717      1.0  0.98109  0.36792  0.79773  1.0000
  H   H718      1.0  0.33270  0.40278  0.76932  1.0000
  C   C384      1.0  0.45870  0.09216  0.83353  1.0000
  C   C385      1.0  0.42457  0.43005  0.85191  1.0000
  H   H719      1.0  0.40381  0.19815  0.75293  1.0000
  H   H720      1.0  0.36755  0.48794  0.81508  1.0000
  H   H721      1.0  0.03250  0.46295  0.73459  1.0000
  H   H722      1.0  0.38604  0.97399  0.17204  1.0000
  H   H723      1.0  0.10636  0.51883  0.06300  1.0000
  Fe  Fe34      1.0  0.03489  0.53805  0.18708  1.0000
  S   S75       1.0  0.05976  0.55767  0.20613  1.0000
  S   S76       1.0  0.05289  0.52601  0.16094  1.0000
  Fe  Fe35      1.0  0.03139  0.52643  0.23026  1.0000
  H   H724      1.0  0.44535  0.70672  0.18508  1.0000
  H   H725      1.0  0.41188  0.87389  0.16431  1.0000
  S   S77       1.0  0.00872  0.50488  0.21106  1.0000
  H   H726      1.0  0.44612  0.51217  0.07693  1.0000
  C   C386      1.0  0.01280  0.67801  0.19399  1.0000
  C   C387      1.0  0.36601  0.53511  0.12148  1.0000
  H   H727      1.0  0.07302  0.55991  0.09236  1.0000
  Fe  Fe36      1.0  0.39057  0.81264  0.10999  1.0000
  S   S78       1.0  0.41288  0.80995  0.08164  1.0000
  S   S79       1.0  0.41008  0.84261  0.12607  1.0000
  Fe  Fe37      1.0  0.34373  0.76609  0.11043  1.0000
  S   S80       1.0  0.36227  0.75854  0.08270  1.0000
  S   S81       1.0  0.30351  0.73965  0.12584  1.0000
  Fe  Fe38      1.0  0.39910  0.76681  0.09427  1.0000
  S   S82       1.0  0.42596  0.74218  0.09366  1.0000
  Fe  Fe39      1.0  0.37420  0.80217  0.07252  1.0000
  S   S83       1.0  0.36658  0.81825  0.04388  1.0000
  S   S84       1.0  0.37930  0.76978  0.12319  1.0000
  S   S85       1.0  0.35311  0.80935  0.09969  1.0000
  Fe  Fe40      1.0  0.40772  0.58588  0.03847  1.0000
  S   S86       1.0  0.39448  0.55630  0.06642  1.0000
  S   S87       1.0  0.43120  0.58464  0.01033  1.0000
  Fe  Fe41      1.0  0.38493  0.62427  0.05429  1.0000
  S   S88       1.0  0.36884  0.59889  0.08409  1.0000
  S   S89       1.0  0.38199  0.66357  0.04241  1.0000
  Fe  Fe42      1.0  0.40738  0.59091  0.08029  1.0000
  S   S90       1.0  0.43019  0.58701  0.10364  1.0000
  Fe  Fe43      1.0  0.35697  0.56607  0.06841  1.0000
  S   S91       1.0  0.31843  0.53379  0.07726  1.0000
  S   S92       1.0  0.42454  0.61950  0.05203  1.0000
  S   S93       1.0  0.36900  0.59233  0.03904  1.0000
  Fe  Fe44      1.0  0.22488  0.65449  0.07001  1.0000
  S   S94       1.0  0.24222  0.62289  0.06425  1.0000
  S   S95       1.0  0.24774  0.69764  0.06172  1.0000
  Fe  Fe45      1.0  0.17024  0.61631  0.08489  1.0000
  S   S96       1.0  0.18219  0.58093  0.08074  1.0000
  S   S97       1.0  0.13065  0.61949  0.09599  1.0000
  Fe  Fe46      1.0  0.21680  0.59972  0.09279  1.0000
  S   S98       1.0  0.23202  0.57813  0.11527  1.0000
  Fe  Fe47      1.0  0.20662  0.60646  0.05244  1.0000
  S   S99       1.0  0.21237  0.58999  0.02570  1.0000
  S   S100      1.0  0.20258  0.63280  0.09967  1.0000
  S   S101      1.0  0.19160  0.64023  0.05548  1.0000
  C   C388      1.0  0.29371  0.54487  0.08830  1.0000
  C   C389      1.0  0.29442  0.55202  0.10622  1.0000
  C   C390      1.0  0.27508  0.56174  0.11464  1.0000
  C   C391      1.0  0.25542  0.56495  0.10494  1.0000
  C   C392      1.0  0.25483  0.55798  0.08698  1.0000
  C   C393      1.0  0.27371  0.54753  0.07883  1.0000
  H   H728      1.0  0.30997  0.55018  0.11345  1.0000
  H   H729      1.0  0.27560  0.56731  0.12846  1.0000
  H   H730      1.0  0.23968  0.56043  0.07944  1.0000
  H   H731      1.0  0.27316  0.54213  0.06496  1.0000
  C   C394      1.0  0.25900  0.71234  0.08035  1.0000
  C   C395      1.0  0.24987  0.69929  0.09970  1.0000
  C   C396      1.0  0.26202  0.70945  0.11399  1.0000
  C   C397      1.0  0.28403  0.73192  0.10890  1.0000
  C   C398      1.0  0.29183  0.74615  0.08982  1.0000
  C   C399      1.0  0.27896  0.73661  0.07563  1.0000
  H   H732      1.0  0.23397  0.68110  0.10362  1.0000
  H   H733      1.0  0.25550  0.69916  0.12886  1.0000
  H   H734      1.0  0.30835  0.76402  0.08584  1.0000
  H   H735      1.0  0.28558  0.74734  0.06080  1.0000
  C   C400      1.0  0.39775  0.68654  0.05479  1.0000
  C   C401      1.0  0.41046  0.67908  0.06913  1.0000
  C   C402      1.0  0.42093  0.69692  0.08026  1.0000
  C   C403      1.0  0.41818  0.72197  0.07727  1.0000
  C   C404      1.0  0.40679  0.72985  0.06222  1.0000
  C   C405      1.0  0.39657  0.71214  0.05097  1.0000
  H   H736      1.0  0.41141  0.65931  0.07217  1.0000
  H   H737      1.0  0.42971  0.69073  0.09188  1.0000
  H   H738      1.0  0.40540  0.74947  0.05949  1.0000
  H   H739      1.0  0.38702  0.71813  0.03975  1.0000
  H   H740      1.0  0.24578  0.63132  0.99170  1.0000
  H   H741      1.0  0.45782  0.94430  0.14434  1.0000
  C   C406      1.0  0.38498  0.55860  0.00147  1.0000
  H   H742      1.0  0.35638  0.51943  0.21589  1.0000
  H   H743      1.0  0.32547  0.56900  0.98586  1.0000
  C   C407      1.0  0.25891  0.68600  0.99137  1.0000
  H   H744      1.0  0.37699  0.55325  0.01681  1.0000
  H   H745      1.0  0.43606  0.67118  0.99829  1.0000
  H   H746      1.0  0.42169  0.90051  0.13335  1.0000
  C   C408      1.0  0.41228  0.82733  0.14890  1.0000
  H   H747      1.0  0.45920  0.49694  0.10684  1.0000
  C   C409      1.0  0.39178  0.80565  0.16004  1.0000
  C   C410      1.0  0.03115  0.63360  0.23119  1.0000
  H   H748      1.0  0.37433  0.79802  0.15460  1.0000
  H   H749      1.0  0.37063  0.83992  0.18254  1.0000
  H   H750      1.0  0.36742  0.69916  0.00999  1.0000
  C   C411      1.0  0.37508  0.70359  0.99414  1.0000
  H   H751      1.0  0.09816  0.64612  0.04310  1.0000
  C   C412      1.0  0.10931  0.59335  0.11400  1.0000
  C   C413      1.0  0.08872  0.59755  0.12606  1.0000
  C   C414      1.0  0.07160  0.57704  0.14078  1.0000
  C   C415      1.0  0.07447  0.55207  0.14297  1.0000
  C   C416      1.0  0.09475  0.54775  0.13065  1.0000
  C   C417      1.0  0.11248  0.56850  0.11638  1.0000
  H   H752      1.0  0.08616  0.61674  0.12416  1.0000
  H   H753      1.0  0.05589  0.58041  0.15022  1.0000
  H   H754      1.0  0.09703  0.52842  0.13241  1.0000
  H   H755      1.0  0.12836  0.56516  0.10715  1.0000
  H   H756      1.0  0.29994  0.52950  0.01050  1.0000
  H   H757      1.0  0.38805  0.92870  0.17185  1.0000
  H   H758      1.0  0.42255  0.73610  0.99248  1.0000
  C   C418      1.0  0.37895  0.90483  0.11957  1.0000
  H   H759      1.0  0.27465  0.74722  0.00250  1.0000
  C   C419      1.0  0.38311  0.88052  0.18605  1.0000
  C   C420      1.0  0.14792  0.53050  0.05975  1.0000
  H   H760      1.0  0.25016  0.50790  0.17737  1.0000
  H   H761      1.0  0.34955  0.51521  0.15070  1.0000
  C   C421      1.0  0.46832  0.73635  0.99775  1.0000
  C   C422      1.0  0.40836  0.62038  0.15631  1.0000
  C   C423      1.0  0.39819  0.62548  0.13989  1.0000
  C   C424      1.0  0.40519  0.61583  0.12345  1.0000
  C   C425      1.0  0.42237  0.60097  0.12341  1.0000
  C   C426      1.0  0.43311  0.59658  0.13963  1.0000
  C   C427      1.0  0.42613  0.60624  0.15603  1.0000
  H   H762      1.0  0.38484  0.63679  0.13988  1.0000
  H   H763      1.0  0.39749  0.62009  0.11080  1.0000
  H   H764      1.0  0.44697  0.58583  0.13951  1.0000
  H   H765      1.0  0.31798  0.67103  0.01202  1.0000
  H   H766      1.0  0.12152  0.61865  0.02837  1.0000
  H   H767      1.0  0.13945  0.57691  0.04630  1.0000
  C   C428      1.0  0.44490  0.76922  0.14474  1.0000
  H   H768      1.0  0.19040  0.72716  0.04228  1.0000
  C   C429      1.0  0.40972  0.93504  0.16885  1.0000
  H   H769      1.0  0.44531  0.51574  0.17241  1.0000
  H   H770      1.0  0.45295  0.83490  0.18073  1.0000
  H   H771      1.0  0.34399  0.74972  0.99467  1.0000
  H   H772      1.0  0.11477  0.64493  0.06305  1.0000
  H   H773      1.0  0.35434  0.84553  0.20463  1.0000
  Fe  Fe48      1.0  0.43390  0.82195  0.22556  1.0000
  C   C430      1.0  0.34638  0.70977  0.17890  1.0000
  C   C431      1.0  0.39828  0.79361  0.02613  1.0000
  H   H774      1.0  0.42179  0.93340  0.12979  1.0000
  S   S102      1.0  0.41117  0.57012  0.20601  1.0000
  H   H775      1.0  0.42037  0.49884  0.12988  1.0000
  H   H776      1.0  0.35714  0.82030  0.00548  1.0000
  H   H777      1.0  0.41756  0.49561  0.09593  1.0000
  C   C432      1.0  0.07200  0.54194  0.08654  1.0000
  H   H778      1.0  0.32624  0.52176  0.13680  1.0000
  C   C433      1.0  0.42241  0.70007  0.22300  1.0000
  H   H779      1.0  0.28239  0.53241  0.03305  1.0000
  H   H780      1.0  0.30370  0.49980  0.16611  1.0000
  H   H781      1.0  0.41205  0.68766  0.18941  1.0000
  H   H782      1.0  0.38890  0.89262  0.11217  1.0000
  H   H783      1.0  0.07836  0.59814  0.02410  1.0000
  H   H784      1.0  0.05530  0.55307  0.06260  1.0000
  C   C434      1.0  0.38354  0.90378  0.14015  1.0000
  H   H785      1.0  0.05566  0.56525  0.03134  1.0000
  C   C435      1.0  0.45396  0.69452  0.12850  1.0000
  H   H786      1.0  0.07401  0.55534  0.00005  1.0000
  H   H787      1.0  0.34155  0.56815  0.13620  1.0000
  H   H788      1.0  0.17546  0.61911  0.02243  1.0000
  H   H789      1.0  0.31725  0.59766  0.07855  1.0000
  H   H790      1.0  0.37819  0.72467  0.98830  1.0000
  C   C436      1.0  0.07559  0.57735  0.02320  1.0000
  H   H791      1.0  0.09634  0.58860  0.99310  1.0000
  C   C437      1.0  0.45286  0.51471  0.10574  1.0000
  N   N20       1.0  0.42027  0.91604  0.15942  1.0000
  H   H792      1.0  0.45763  0.69488  0.15777  1.0000
  N   N21       1.0  0.14654  0.64027  0.15764  1.0000
  C   C438      1.0  0.12871  0.65368  0.16707  1.0000
  C   C439      1.0  0.15001  0.64799  0.13600  1.0000
  C   C440      1.0  0.13269  0.61097  0.16350  1.0000
  C   C441      1.0  0.17271  0.64631  0.16361  1.0000
  C   C442      1.0  0.18399  0.67378  0.16840  1.0000
  C   C443      1.0  0.11927  0.64446  0.18933  1.0000
  C   C444      1.0  0.14698  0.59328  0.15435  1.0000
  C   C445      1.0  0.16511  0.67716  0.12651  1.0000
  C   C446      1.0  0.16402  0.68316  0.10516  1.0000
  C   C447      1.0  0.21181  0.67818  0.17173  1.0000
  C   C448      1.0  0.10985  0.66477  0.19836  1.0000
  C   C449      1.0  0.13497  0.56457  0.16496  1.0000
  H   H793      1.0  0.11070  0.65045  0.16096  1.0000
  H   H794      1.0  0.13797  0.67530  0.16369  1.0000
  H   H795      1.0  0.16095  0.63668  0.12855  1.0000
  H   H796      1.0  0.13053  0.64280  0.13192  1.0000
  H   H797      1.0  0.11279  0.60604  0.16008  1.0000
  H   H798      1.0  0.12943  0.60427  0.17941  1.0000
  H   H799      1.0  0.17171  0.63179  0.17674  1.0000
  H   H800      1.0  0.18773  0.64387  0.15219  1.0000
  H   H801      1.0  0.17195  0.67554  0.18180  1.0000
  H   H802      1.0  0.18460  0.68998  0.15677  1.0000
  H   H803      1.0  0.10255  0.62588  0.19277  1.0000
  H   H804      1.0  0.13494  0.64060  0.19634  1.0000
  H   H805      1.0  0.16809  0.59947  0.15472  1.0000
  H   H806      1.0  0.14524  0.59407  0.13909  1.0000
  H   H807      1.0  0.18611  0.68154  0.12720  1.0000
  H   H808      1.0  0.14344  0.67940  0.10345  1.0000
  H   H809      1.0  0.22499  0.67715  0.15862  1.0000
  H   H810      1.0  0.21950  0.69795  0.17501  1.0000
  H   H811      1.0  0.21202  0.66320  0.18408  1.0000
  C   C450      1.0  0.40734  0.50651  0.16409  1.0000
  H   H812      1.0  0.40111  0.72169  0.20846  1.0000
  H   H813      1.0  0.27300  0.71920  0.01956  1.0000
  H   H814      1.0  0.14385  0.55206  0.15708  1.0000
  H   H815      1.0  0.13870  0.56215  0.17982  1.0000
  H   H816      1.0  0.11350  0.55768  0.16585  1.0000
  C   C451      1.0  0.11622  0.64405  0.04755  1.0000
  H   H817      1.0  0.37328  0.49544  0.18753  1.0000
  H   H818      1.0  0.37263  0.91549  0.14712  1.0000
  H   H819      1.0  0.37737  0.77790  0.18730  1.0000
  C   C452      1.0  0.09672  0.56743  0.03116  1.0000
  N   N22       1.0  0.42410  0.50169  0.01620  1.0000
  H   H820      1.0  0.36321  0.54977  0.11013  1.0000
  C   C453      1.0  0.33499  0.51578  0.21723  1.0000
  H   H821      1.0  0.14705  0.53042  0.07535  1.0000
  C   C454      1.0  0.47351  0.49020  0.20601  1.0000
  H   H822      1.0  0.14941  0.62502  0.99748  1.0000
  H   H823      1.0  0.10186  0.65690  0.21407  1.0000
  H   H824      1.0  0.23113  0.68693  0.02418  1.0000
  H   H825      1.0  0.17949  0.69988  0.03075  1.0000
  H   H826      1.0  0.09952  0.59459  0.07171  1.0000
  H   H827      1.0  0.02937  0.52717  0.09532  1.0000
  H   H828      1.0  0.37536  0.88283  0.14771  1.0000
  H   H829      1.0  0.34087  0.58578  0.00225  1.0000
  H   H830      1.0  0.37162  0.69402  0.19369  1.0000
  H   H831      1.0  0.36977  0.50337  0.01758  1.0000
  H   H832      1.0  0.28961  0.50304  0.18943  1.0000
  H   H833      1.0  0.44607  0.53968  0.03849  1.0000
  C   C455      1.0  0.45732  0.52666  0.21007  1.0000
  H   H834      1.0  0.12628  0.68325  0.19643  1.0000
  H   H835      1.0  0.34896  0.53768  0.99420  1.0000
  C   C456      1.0  0.40065  0.69714  0.98965  1.0000
  C   C457      1.0  0.12349  0.53488  0.05392  1.0000
  H   H836      1.0  0.40811  0.51644  0.99281  1.0000
  H   H837      1.0  0.46266  0.74905  0.16489  1.0000
  C   C458      1.0  0.30530  0.65114  0.01987  1.0000
  H   H838      1.0  0.06158  0.58275  0.99659  1.0000
  H   H839      1.0  0.43570  0.73818  0.20439  1.0000
  H   H840      1.0  0.46829  0.72675  0.14183  1.0000
  Fe  Fe49      1.0  0.45168  0.58610  0.21140  1.0000
  H   H841      1.0  0.19907  0.69799  0.04880  1.0000
  H   H842      1.0  0.02401  0.66412  0.19187  1.0000
  H   H843      1.0  0.47197  0.65994  0.02868  1.0000
  H   H844      1.0  0.11615  0.57884  0.02169  1.0000
  H   H845      1.0  0.16586  0.54604  0.05106  1.0000
  H   H846      1.0  0.36028  0.69184  0.98727  1.0000
  H   H847      1.0  0.42405  0.88828  0.18297  1.0000
  N   N23       1.0  0.31893  0.66900  0.09615  1.0000
  C   C459      1.0  0.31066  0.68614  0.08141  1.0000
  C   C460      1.0  0.29890  0.66173  0.11488  1.0000
  C   C461      1.0  0.34419  0.68568  0.10004  1.0000
  C   C462      1.0  0.32328  0.64531  0.08920  1.0000
  C   C463      1.0  0.33008  0.69716  0.06152  1.0000
  C   C464      1.0  0.35754  0.67123  0.11380  1.0000
  C   C465      1.0  0.27263  0.64054  0.11598  1.0000
  C   C466      1.0  0.25324  0.63699  0.13484  1.0000
  C   C467      1.0  0.31691  0.70527  0.04544  1.0000
  C   C468      1.0  0.36669  0.68711  0.12869  1.0000
  H   H848      1.0  0.30835  0.70353  0.08695  1.0000
  H   H849      1.0  0.29089  0.67584  0.07924  1.0000
  H   H850      1.0  0.30652  0.65442  0.12728  1.0000
  H   H851      1.0  0.29474  0.67963  0.11840  1.0000
  H   H852      1.0  0.34099  0.70293  0.10556  1.0000
  H   H853      1.0  0.35920  0.69450  0.08650  1.0000
  H   H854      1.0  0.34362  0.65070  0.08055  1.0000
  H   H855      1.0  0.32211  0.62973  0.10165  1.0000
  H   H856      1.0  0.34582  0.71490  0.06235  1.0000
  H   H857      1.0  0.33943  0.68277  0.05713  1.0000
  H   H858      1.0  0.37480  0.66820  0.10521  1.0000
  H   H859      1.0  0.34501  0.65131  0.12152  1.0000
  H   H860      1.0  0.26344  0.64544  0.10377  1.0000
  H   H861      1.0  0.27611  0.62141  0.11600  1.0000
  H   H862      1.0  0.23467  0.62143  0.13531  1.0000
  H   H863      1.0  0.26133  0.63108  0.14747  1.0000
  H   H864      1.0  0.24861  0.65533  0.13590  1.0000
  H   H865      1.0  0.33114  0.71107  0.03142  1.0000
  H   H866      1.0  0.29969  0.68888  0.04467  1.0000
  H   H867      1.0  0.31057  0.72235  0.04788  1.0000
  H   H868      1.0  0.34961  0.68889  0.13843  1.0000
  H   H869      1.0  0.37758  0.67725  0.13742  1.0000
  H   H870      1.0  0.37989  0.70709  0.12140  1.0000
  N   N24       1.0  0.42240  0.72441  0.16865  1.0000
  C   C469      1.0  0.46488  0.90728  0.15049  1.0000
  C   C470      1.0  0.44304  0.75104  0.16423  1.0000
  C   C471      1.0  0.42529  0.70989  0.15248  1.0000
  C   C472      1.0  0.42526  0.70830  0.18680  1.0000
  H   H871      1.0  0.39333  0.73809  0.15695  1.0000
  C   C473      1.0  0.45283  0.70734  0.14602  1.0000
  H   H872      1.0  0.44697  0.75948  0.13234  1.0000
  H   H873      1.0  0.26452  0.50430  0.15379  1.0000
  N   N25       1.0  0.09730  0.56785  0.05210  1.0000
  H   H874      1.0  0.28090  0.56642  0.00697  1.0000
  Fe  Fe50      1.0  0.47508  0.87399  0.22438  1.0000
  H   H875      1.0  0.31766  0.54393  0.02766  1.0000
  H   H876      1.0  0.46576  0.51819  0.03689  1.0000
  H   H877      1.0  0.41944  0.71892  0.13956  1.0000
  H   H878      1.0  0.41160  0.68943  0.15679  1.0000
  C   C474      1.0  0.38256  0.80195  0.99089  1.0000
  H   H879      1.0  0.47885  0.77771  0.01752  1.0000
  C   C475      1.0  0.43519  0.51329  0.09105  1.0000
  C   C476      1.0  0.37191  0.70326  0.17871  1.0000
  C   C477      1.0  0.43725  0.52137  0.15962  1.0000
  C   C478      1.0  0.04656  0.52086  0.09758  1.0000
  H   H880      1.0  0.21157  0.69010  0.00685  1.0000
  H   H881      1.0  0.42713  0.77542  0.14519  1.0000
  C   C479      1.0  0.39465  0.50574  0.18482  1.0000
  C   C480      1.0  0.29118  0.50954  0.17372  1.0000
  C   C481      1.0  0.45284  0.49962  0.21191  1.0000
  H   H882      1.0  0.33728  0.64928  0.98667  1.0000
  S   S103      1.0  0.45332  0.62817  0.20518  1.0000
  H   H883      1.0  0.46477  0.52091  0.00186  1.0000
  H   H884      1.0  0.15693  0.69071  0.13355  1.0000
  H   H885      1.0  0.09329  0.54708  0.02869  1.0000
  C   C482      1.0  0.39592  0.72840  0.17102  1.0000
  H   H886      1.0  0.34494  0.72391  0.18840  1.0000
  H   H887      1.0  0.32073  0.75059  0.01519  1.0000
  H   H888      1.0  0.44128  0.53385  0.21454  1.0000
  C   C483      1.0  0.22883  0.70104  0.01205  1.0000
  C   C484      1.0  0.37956  0.80638  0.02442  1.0000
  C   C485      1.0  0.46026  0.53400  0.02857  1.0000
  H   H889      1.0  0.98347  0.62618  0.21010  1.0000
  H   H890      1.0  0.32943  0.69157  0.18447  1.0000
  H   H891      1.0  0.40499  0.97272  0.21926  1.0000
  C   C486      1.0  0.46566  0.73528  0.01977  1.0000
  H   H892      1.0  0.32325  0.76997  0.99175  1.0000
  H   H893      1.0  0.17515  0.70411  0.09874  1.0000
  Fe  Fe51      1.0  0.03092  0.57983  0.21021  1.0000
  C   C487      1.0  0.30456  0.63214  0.07660  1.0000
  S   S104      1.0  0.43679  0.86381  0.21527  1.0000
  H   H894      1.0  0.17293  0.67091  0.09705  1.0000
  H   H895      1.0  0.46002  0.90025  0.13739  1.0000
  H   H896      1.0  0.43851  0.67513  0.13156  1.0000
  S   S105      1.0  0.04446  0.62291  0.21103  1.0000
  H   H897      1.0  0.43482  0.60298  0.16836  1.0000
  H   H898      1.0  0.46035  0.89009  0.16249  1.0000
  H   H899      1.0  0.12463  0.53303  0.03862  1.0000
  H   H900      1.0  0.30262  0.64632  0.06459  1.0000
  H   H901      1.0  0.28470  0.62145  0.08527  1.0000
  H   H902      1.0  0.40459  0.79065  0.03964  1.0000
  H   H903      1.0  0.44203  0.69732  0.22110  1.0000
  H   H904      1.0  0.31503  0.64376  0.03096  1.0000
  H   H905      1.0  0.29764  0.54599  0.15341  1.0000
  H   H906      1.0  0.36826  0.88513  0.17851  1.0000
  C   C488      1.0  0.32407  0.75095  0.99946  1.0000
  C   C489      1.0  0.42241  0.71564  0.99724  1.0000
  N   N26       1.0  0.45360  0.51841  0.14148  1.0000
  C   C490      1.0  0.17672  0.60960  0.01033  1.0000
  C   C491      1.0  0.44882  0.52504  0.01124  1.0000
  C   C492      1.0  0.34580  0.53006  0.14011  1.0000
  C   C493      1.0  0.31442  0.61234  0.06735  1.0000
  H   H907      1.0  0.29995  0.60209  0.05949  1.0000
  H   H908      1.0  0.33323  0.62235  0.05690  1.0000
  H   H909      1.0  0.28591  0.61369  0.01400  1.0000
  H   H910      1.0  0.23650  0.73391  0.02752  1.0000
  C   C494      1.0  0.32986  0.53730  0.20348  1.0000
  C   C495      1.0  0.41116  0.57390  0.99440  1.0000
  C   C496      1.0  0.41084  0.88925  0.17276  1.0000
  C   C497      1.0  0.30211  0.53999  0.16776  1.0000
  H   H911      1.0  0.44549  0.73365  0.02666  1.0000
  C   C498      1.0  0.34730  0.55576  0.14745  1.0000
  H   H912      1.0  0.45073  0.85352  0.14739  1.0000
  H   H913      1.0  0.34532  0.71846  0.16408  1.0000
  S   S106      1.0  0.00861  0.56342  0.18856  1.0000
  H   H914      1.0  0.21694  0.73692  0.00977  1.0000
  H   H915      1.0  0.46825  0.80420  0.15295  1.0000
  C   C499      1.0  0.43447  0.83752  0.15629  1.0000
  H   H916      1.0  0.44567  0.54217  0.00250  1.0000
  H   H917      1.0  0.08836  0.53493  0.08989  1.0000
  H   H918      1.0  0.30680  0.59034  0.15451  1.0000
  C   C500      1.0  0.19591  0.71113  0.03659  1.0000
  C   C501      1.0  0.37341  0.85093  0.19431  1.0000
  H   H919      1.0  0.36826  0.56627  0.14711  1.0000
  H   H920      1.0  0.28969  0.54726  0.17804  1.0000
  H   H921      1.0  0.34071  0.60585  0.14286  1.0000
  N   N27       1.0  0.33085  0.55280  0.16719  1.0000
  C   C502      1.0  0.32669  0.59940  0.15699  1.0000
  C   C503      1.0  0.44985  0.92635  0.15605  1.0000
  H   H922      1.0  0.09403  0.66909  0.19170  1.0000
  H   H923      1.0  0.32057  0.63754  0.15480  1.0000
  H   H924      1.0  0.46080  0.91906  0.21394  1.0000
  H   H925      1.0  0.29978  0.58080  0.02356  1.0000
  C   C504      1.0  0.43580  0.82680  0.17505  1.0000
  H   H926      1.0  0.05787  0.67301  0.22154  1.0000
  C   C505      1.0  0.42065  0.71899  0.20550  1.0000
  C   C506      1.0  0.39343  0.79439  0.17859  1.0000
  C   C507      1.0  0.32667  0.62403  0.16492  1.0000
  H   H927      1.0  0.06969  0.52828  0.05970  1.0000
  C   C508      1.0  0.12176  0.56236  0.05623  1.0000
  C   C509      1.0  0.33469  0.58001  0.17125  1.0000
  H   H928      1.0  0.33824  0.51755  0.18035  1.0000
  C   C510      1.0  0.40953  0.78552  0.01014  1.0000
  H   H929      1.0  0.42444  0.77619  0.01144  1.0000
  C   C511      1.0  0.09763  0.59421  0.05655  1.0000
  C   C512      1.0  0.41536  0.80508  0.18616  1.0000
  C   C513      1.0  0.19539  0.58256  0.99247  1.0000
  C   C514      1.0  0.34124  0.53806  0.18206  1.0000
  H   H930      1.0  0.38637  0.92537  0.11115  1.0000
  H   H931      1.0  0.36378  0.51661  0.11612  1.0000
  H   H932      1.0  0.01965  0.69440  0.18115  1.0000
  H   H933      1.0  0.36292  0.54704  0.17977  1.0000
  H   H934      1.0  0.35549  0.58944  0.17178  1.0000
  C   C515      1.0  0.07292  0.54730  0.06448  1.0000
  H   H935      1.0  0.14919  0.51122  0.05715  1.0000
  H   H936      1.0  0.41560  0.71136  0.01312  1.0000
  C   C516      1.0  0.44969  0.68759  0.00286  1.0000
  H   H937      1.0  0.38385  0.89074  0.19838  1.0000
  H   H938      1.0  0.30846  0.53401  0.20608  1.0000
  H   H939      1.0  0.12442  0.56522  0.07094  1.0000
  H   H940      1.0  0.32312  0.57885  0.18576  1.0000
  H   H941      1.0  0.34656  0.63454  0.16680  1.0000
  H   H942      1.0  0.31269  0.61883  0.17904  1.0000
  H   H943      1.0  0.35764  0.89689  0.12001  1.0000
  H   H944      1.0  0.13904  0.61781  0.04762  1.0000
  H   H945      1.0  0.39454  0.74227  0.18077  1.0000
  H   H946      1.0  0.38611  0.54230  0.12410  1.0000
  H   H947      1.0  0.37203  0.68854  0.16960  1.0000
  H   H948      1.0  0.33776  0.62626  0.00700  1.0000
  H   H949      1.0  0.33601  0.48889  0.04775  1.0000
  H   H950      1.0  0.29125  0.64137  0.99492  1.0000
  H   H951      1.0  0.13319  0.66081  0.03898  1.0000
  C   C517      1.0  0.37161  0.81041  0.00681  1.0000
  S   S107      1.0  0.41731  0.79086  0.20932  1.0000
  C   C518      1.0  0.12013  0.61826  0.04398  1.0000
  C   C519      1.0  0.19335  0.59429  0.00851  1.0000
  H   H952      1.0  0.43929  0.76225  0.17556  1.0000
  H   H953      1.0  0.07861  0.59764  0.05573  1.0000
  H   H954      1.0  0.20830  0.57077  0.99095  1.0000
  H   H955      1.0  0.26104  0.67377  0.00463  1.0000
  C   C520      1.0  0.22091  0.72284  0.02087  1.0000
  C   C521      1.0  0.41307  0.91413  0.14008  1.0000
  H   H956      1.0  0.46010  0.64067  0.01142  1.0000
  H   H957      1.0  0.28640  0.65256  0.02721  1.0000
  H   H958      1.0  0.33938  0.55633  0.20732  1.0000
  H   H959      1.0  0.04481  0.50198  0.09287  1.0000
  H   H960      1.0  0.46562  0.75522  0.99143  1.0000
  C   C522      1.0  0.32627  0.62946  0.99579  1.0000
  H   H961      1.0  0.41263  0.96514  0.14350  1.0000
  C   C523      1.0  0.30031  0.63260  0.00589  1.0000
  Fe  Fe52      1.0  0.41195  0.61214  0.20214  1.0000
  S   S108      1.0  0.39792  0.63070  0.17738  1.0000
  H   H962      1.0  0.35986  0.51972  0.04724  1.0000
  H   H963      1.0  0.44172  0.68474  0.01861  1.0000
  H   H964      1.0  0.41468  0.98140  0.18270  1.0000
  H   H965      1.0  0.40688  0.52852  0.02860  1.0000
  H   H966      1.0  0.38752  0.84495  0.20211  1.0000
  H   H967      1.0  0.39784  0.51680  0.15426  1.0000
  C   C524      1.0  0.40410  0.50705  0.03091  1.0000
  H   H968      1.0  0.46809  0.80769  0.12757  1.0000
  H   H969      1.0  0.39779  0.52597  0.18728  1.0000
  C   C525      1.0  0.30002  0.54213  0.02132  1.0000
  C   C526      1.0  0.27539  0.72674  0.00378  1.0000
  H   H970      1.0  0.39168  0.93753  0.22841  1.0000
  C   C527      1.0  0.32360  0.58302  0.99539  1.0000
  H   H971      1.0  0.32582  0.49612  0.21425  1.0000
  C   C528      1.0  0.29950  0.56923  0.01206  1.0000
  C   C529      1.0  0.41906  0.96391  0.15746  1.0000
  H   H972      1.0  0.30720  0.70959  0.00094  1.0000
  H   H973      1.0  0.39693  0.67640  0.99672  1.0000
  H   H974      1.0  0.45592  0.93231  0.16922  1.0000
  H   H975      1.0  0.44066  0.97255  0.15462  1.0000
  H   H976      1.0  0.41504  0.93521  0.18326  1.0000
  C   C530      1.0  0.46855  0.79404  0.14064  1.0000
  C   C531      1.0  0.16205  0.61296  0.99622  1.0000
  H   H977      1.0  0.42903  0.53117  0.08897  1.0000
  C   C532      1.0  0.43816  0.51630  0.12569  1.0000
  H   H978      1.0  0.43850  0.54235  0.15893  1.0000
  C   C533      1.0  0.26383  0.49929  0.16955  1.0000
  N   N28       1.0  0.25322  0.71027  0.99614  1.0000
  H   H979      1.0  0.21887  0.66044  0.99184  1.0000
  C   C534      1.0  0.07700  0.57584  0.00196  1.0000
  H   H980      1.0  0.04648  0.51765  0.11329  1.0000
  C   C535      1.0  0.30373  0.72806  0.99485  1.0000
  N   N29       1.0  0.44959  0.71368  0.99211  1.0000
  H   H981      1.0  0.47581  0.49795  0.15665  1.0000
  H   H982      1.0  0.01682  0.68625  0.20688  1.0000
  H   H983      1.0  0.43093  0.53357  0.12336  1.0000
  H   H984      1.0  0.40718  0.50154  0.04578  1.0000
  C   C536      1.0  0.40176  0.78977  0.99250  1.0000
  H   H985      1.0  0.45137  0.70743  0.11589  1.0000
  C   C537      1.0  0.36911  0.54984  0.98867  1.0000
  H   H986      1.0  0.44889  0.95814  0.20096  1.0000
  C   C538      1.0  0.41410  0.49898  0.99786  1.0000
  H   H987      1.0  0.40307  0.49501  0.19524  1.0000
  C   C539      1.0  0.46354  0.49532  0.14562  1.0000
  C   C540      1.0  0.40779  0.98119  0.16891  1.0000
  H   H988      1.0  0.36073  0.48985  0.06191  1.0000
  H   H989      1.0  0.47068  0.71833  0.02697  1.0000
  C   C541      1.0  0.35686  0.49846  0.04803  1.0000
  Fe  Fe53      1.0  0.98460  0.53173  0.21400  1.0000
  C   C542      1.0  0.37462  0.49430  0.03089  1.0000
  H   H990      1.0  0.40718  0.68065  0.22521  1.0000
  H   H991      1.0  0.47025  0.53234  0.09972  1.0000
  H   H992      1.0  0.47681  0.49430  0.13252  1.0000
  H   H993      1.0  0.47117  0.55966  0.12789  1.0000
  H   H994      1.0  0.28246  0.60008  0.98514  1.0000
  C   C543      1.0  0.39386  0.95706  0.23212  1.0000
  H   H995      1.0  0.44601  0.97407  0.23167  1.0000
  C   C544      1.0  0.47718  0.54290  0.13445  1.0000
  H   H996      1.0  0.47331  0.69153  0.12479  1.0000
  C   C545      1.0  0.46886  0.95806  0.19722  1.0000
  C   C546      1.0  0.47568  0.65780  0.01343  1.0000
  C   C547      1.0  0.47669  0.68284  0.99996  1.0000
  S   S109      1.0  0.47426  0.83207  0.23178  1.0000
  H   H997      1.0  0.32649  0.51578  0.23236  1.0000
  C   C548      1.0  0.47556  0.93584  0.20439  1.0000
  S   S110      1.0  0.39535  0.60910  0.23334  1.0000
  C   C549      1.0  0.04155  0.65984  0.23253  1.0000
  C   C550      1.0  0.98351  0.66415  0.19645  1.0000
  H   H998      1.0  0.48050  0.55664  0.16178  1.0000
  H   H999      1.0  0.98101  0.64690  0.22651  1.0000
  H   H1000     1.0  0.41581  0.82793  0.29964  1.0000
  C   C551      1.0  0.41929  0.86118  0.36195  1.0000
  C   C552      1.0  0.00235  0.77187  0.48206  1.0000
  S   S111      1.0  0.14169  0.95701  0.41612  1.0000
  S   S112      1.0  0.08541  0.94716  0.39002  1.0000
  Fe  Fe54      1.0  0.12932  0.96376  0.44563  1.0000
  S   S113      1.0  0.12636  0.93465  0.47241  1.0000
  C   C553      1.0  0.37003  0.52187  0.32410  1.0000
  H   H1001     1.0  0.44936  0.89794  0.31575  1.0000
  C   C554      1.0  0.25856  0.92759  0.45816  1.0000
  C   C555      1.0  0.45101  0.98033  0.26982  1.0000
  H   H1002     1.0  0.28107  0.89338  0.44264  1.0000
  H   H1003     1.0  0.00510  0.68192  0.40574  1.0000
  H   H1004     1.0  0.05521  0.58248  0.28697  1.0000
  C   C556      1.0  0.99260  0.76665  0.46551  1.0000
  C   C557      1.0  0.04142  0.76196  0.46941  1.0000
  C   C558      1.0  0.47833  0.95998  0.25103  1.0000
  C   C559      1.0  0.40777  0.95993  0.24898  1.0000
  H   H1005     1.0  0.07905  0.89511  0.47221  1.0000
  H   H1006     1.0  0.00247  0.68194  0.34096  1.0000
  H   H1007     1.0  0.39300  0.80442  0.37218  1.0000
  H   H1008     1.0  0.46909  0.98608  0.27566  1.0000
  C   C560      1.0  0.38133  0.86701  0.28835  1.0000
  H   H1009     1.0  0.99545  0.63607  0.42254  1.0000
  S   S114      1.0  0.30011  0.93246  0.33407  1.0000
  S   S115      1.0  0.27305  0.94166  0.38477  1.0000
  H   H1010     1.0  0.05600  0.83618  0.48160  1.0000
  C   C561      1.0  0.99910  0.62630  0.26094  1.0000
  C   C562      1.0  0.98633  0.67329  0.38137  1.0000
  H   H1011     1.0  0.01893  0.50259  0.34523  1.0000
  H   H1012     1.0  0.14911  0.97186  0.37040  1.0000
  Fe  Fe55      1.0  0.33745  0.92378  0.33636  1.0000
  S   S116      1.0  0.34507  0.88539  0.33538  1.0000
  H   H1013     1.0  0.39018  0.87346  0.39403  1.0000
  S   S117      1.0  0.34173  0.94011  0.36296  1.0000
  H   H1014     1.0  0.98967  0.61569  0.34084  1.0000
  S   S118      1.0  0.46529  0.81206  0.28686  1.0000
  S   S119      1.0  0.43863  0.57990  0.24352  1.0000
  C   C563      1.0  0.43780  0.90138  0.30476  1.0000
  H   H1015     1.0  0.43629  0.91513  0.26579  1.0000
  C   C564      1.0  0.35978  0.89789  0.27710  1.0000
  C   C565      1.0  0.35030  0.89886  0.29622  1.0000
  C   C566      1.0  0.35602  0.88360  0.31145  1.0000
  C   C567      1.0  0.37101  0.86720  0.30751  1.0000
  H   H1016     1.0  0.35510  0.90953  0.26535  1.0000
  H   H1017     1.0  0.33836  0.91125  0.29917  1.0000
  H   H1018     1.0  0.37515  0.85521  0.31928  1.0000
  H   H1019     1.0  0.10175  0.86917  0.39459  1.0000
  H   H1020     1.0  0.41809  0.92884  0.28107  1.0000
  H   H1021     1.0  0.39351  0.85496  0.28526  1.0000
  H   H1022     1.0  0.39291  0.75914  0.38341  1.0000
  H   H1023     1.0  0.37756  0.83928  0.37506  1.0000
  H   H1024     1.0  0.46003  0.94253  0.29669  1.0000
  C   C568      1.0  0.45638  0.95059  0.34248  1.0000
  H   H1025     1.0  0.38297  0.86403  0.35369  1.0000
  H   H1026     1.0  0.19544  0.96368  0.40954  1.0000
  C   C569      1.0  0.28202  0.91090  0.43194  1.0000
  H   H1027     1.0  0.00195  0.59664  0.24475  1.0000
  H   H1028     1.0  0.10756  0.85442  0.45102  1.0000
  C   C570      1.0  0.42435  0.98283  0.34453  1.0000
  C   C571      1.0  0.45393  0.92573  0.28951  1.0000
  H   H1029     1.0  0.43300  0.88401  0.29798  1.0000
  H   H1030     1.0  0.98867  0.48965  0.26345  1.0000
  C   C572      1.0  0.36127  0.49568  0.33924  1.0000
  H   H1031     1.0  0.05598  0.59634  0.25213  1.0000
  S   S120      1.0  0.39035  0.88424  0.24917  1.0000
  N   N30       1.0  0.00233  0.55437  0.30209  1.0000
  H   H1032     1.0  0.40891  0.97957  0.25215  1.0000
  H   H1033     1.0  0.41942  0.90398  0.31197  1.0000
  C   C573      1.0  0.36314  0.50478  0.26364  1.0000
  H   H1034     1.0  0.02453  0.87117  0.44608  1.0000
  H   H1035     1.0  0.19844  0.92577  0.48166  1.0000
  H   H1036     1.0  0.22205  0.93393  0.40610  1.0000
  H   H1037     1.0  0.43395  0.93958  0.23789  1.0000
  C   C574      1.0  0.04765  0.56720  0.27884  1.0000
  C   C575      1.0  0.05417  0.92378  0.39949  1.0000
  C   C576      1.0  0.04580  0.90254  0.39051  1.0000
  C   C577      1.0  0.02079  0.88388  0.39738  1.0000
  C   C578      1.0  0.00370  0.88677  0.41297  1.0000
  C   C579      1.0  0.01203  0.90807  0.42194  1.0000
  C   C580      1.0  0.03732  0.92634  0.41539  1.0000
  H   H1038     1.0  0.05870  0.90054  0.37814  1.0000
  H   H1039     1.0  0.01452  0.86767  0.39029  1.0000
  H   H1040     1.0  0.40893  0.55213  0.33597  1.0000
  H   H1041     1.0  0.04350  0.94283  0.42225  1.0000
  H   H1042     1.0  0.42930  0.87949  0.35074  1.0000
  N   N31       1.0  0.05777  0.86671  0.45766  1.0000
  C   C581      1.0  0.40368  0.81023  0.31073  1.0000
  H   H1043     1.0  0.00322  0.75136  0.35205  1.0000
  H   H1044     1.0  0.02170  0.71939  0.37023  1.0000
  H   H1045     1.0  0.98297  0.57064  0.33637  1.0000
  C   C582      1.0  0.01006  0.61682  0.24556  1.0000
  H   H1046     1.0  0.35686  0.51948  0.31359  1.0000
  H   H1047     1.0  0.44758  0.80015  0.37545  1.0000
  C   C583      1.0  0.03129  0.75582  0.45329  1.0000
  S   S121      1.0  0.98766  0.80734  0.39566  1.0000
  H   H1048     1.0  0.01186  0.57315  0.27198  1.0000
  C   C584      1.0  0.38558  0.87865  0.37968  1.0000
  H   H1049     1.0  0.40463  0.79265  0.30487  1.0000
  C   C585      1.0  0.04786  0.92388  0.48232  1.0000
  H   H1050     1.0  0.22104  0.91781  0.33195  1.0000
  C   C586      1.0  0.98860  0.66664  0.40274  1.0000
  H   H1051     1.0  0.38299  0.81003  0.31353  1.0000
  H   H1052     1.0  0.37807  0.57491  0.31467  1.0000
  H   H1053     1.0  0.00356  0.72142  0.39227  1.0000
  C   C587      1.0  0.18584  0.97263  0.35310  1.0000
  Fe  Fe56      1.0  0.10789  0.96983  0.40926  1.0000
  H   H1054     1.0  0.24096  0.90503  0.43800  1.0000
  C   C588      1.0  0.00263  0.72127  0.37686  1.0000
  C   C589      1.0  0.07567  0.88189  0.43862  1.0000
  C   C590      1.0  0.41225  0.76803  0.38691  1.0000
  C   C591      1.0  0.05849  0.88503  0.47159  1.0000
  C   C592      1.0  0.42418  0.51717  0.28522  1.0000
  H   H1055     1.0  0.44236  0.53225  0.28579  1.0000
  H   H1056     1.0  0.02408  0.76980  0.38671  1.0000
  H   H1057     1.0  0.02076  0.60974  0.33712  1.0000
  H   H1058     1.0  0.19007  0.93783  0.45010  1.0000
  C   C593      1.0  0.02497  0.77053  0.37103  1.0000
  H   H1059     1.0  0.18567  0.95240  0.32906  1.0000
  C   C594      1.0  0.01153  0.58008  0.30876  1.0000
  C   C595      1.0  0.10124  0.88069  0.40610  1.0000
  C   C596      1.0  0.19541  0.91961  0.45340  1.0000
  H   H1060     1.0  0.09559  0.89205  0.44074  1.0000
  H   H1061     1.0  0.06882  0.89806  0.43232  1.0000
  H   H1062     1.0  0.05617  0.92007  0.45287  1.0000
  H   H1063     1.0  0.14533  0.95113  0.35300  1.0000
  H   H1064     1.0  0.21123  0.90077  0.47542  1.0000
  H   H1065     1.0  0.01192  0.62884  0.31770  1.0000
  H   H1066     1.0  0.99733  0.53755  0.34389  1.0000
  H   H1067     1.0  0.09955  0.89994  0.39978  1.0000
  H   H1068     1.0  0.11990  0.88403  0.41123  1.0000
  H   H1069     1.0  0.01728  0.71639  0.34017  1.0000
  C   C597      1.0  0.21104  0.92099  0.46981  1.0000
  H   H1070     1.0  0.47864  0.94317  0.24389  1.0000
  H   H1071     1.0  0.02407  0.79001  0.36430  1.0000
  H   H1072     1.0  0.42910  0.96258  0.29979  1.0000
  H   H1073     1.0  0.06085  0.82738  0.45903  1.0000
  C   C598      1.0  0.40147  0.55499  0.29789  1.0000
  H   H1074     1.0  0.41315  0.52081  0.33871  1.0000
  C   C599      1.0  0.41542  0.53855  0.32767  1.0000
  C   C600      1.0  0.44519  0.55081  0.31920  1.0000
  C   C601      1.0  0.39729  0.57948  0.30485  1.0000
  C   C602      1.0  0.98225  0.83145  0.46785  1.0000
  C   C603      1.0  0.26676  0.98703  0.44580  1.0000
  Fe  Fe57      1.0  0.39801  0.56815  0.23761  1.0000
  C   C604      1.0  0.39820  0.60045  0.28771  1.0000
  H   H1075     1.0  0.38777  0.54916  0.28818  1.0000
  H   H1076     1.0  0.42123  0.56213  0.28839  1.0000
  H   H1077     1.0  0.40970  0.49608  0.31513  1.0000
  S   S122      1.0  0.36329  0.53746  0.25796  1.0000
  S   S123      1.0  0.99471  0.74969  0.43099  1.0000
  H   H1078     1.0  0.43498  0.81043  0.32534  1.0000
  H   H1079     1.0  0.39104  0.50700  0.23807  1.0000
  S   S124      1.0  0.41349  0.81970  0.25578  1.0000
  H   H1080     1.0  0.41298  0.58816  0.31236  1.0000
  S   S125      1.0  0.00472  0.55003  0.23569  1.0000
  H   H1081     1.0  0.02910  0.58110  0.31509  1.0000
  C   C605      1.0  0.99161  0.58669  0.32347  1.0000
  C   C606      1.0  0.00444  0.61181  0.33014  1.0000
  S   S126      1.0  0.45865  0.87590  0.25453  1.0000
  H   H1082     1.0  0.25551  0.90875  0.46823  1.0000
  C   C607      1.0  0.00195  0.74889  0.36787  1.0000
  H   H1083     1.0  0.41932  0.70819  0.23618  1.0000
  H   H1084     1.0  0.39739  0.61871  0.29259  1.0000
  H   H1085     1.0  0.41660  0.60514  0.27687  1.0000
  H   H1086     1.0  0.38137  0.59346  0.28076  1.0000
  N   N32       1.0  0.42493  0.83791  0.35517  1.0000
  C   C608      1.0  0.16995  0.89652  0.45929  1.0000
  C   C609      1.0  0.47081  0.85480  0.36298  1.0000
  C   C610      1.0  0.38994  0.85926  0.36715  1.0000
  H   H1087     1.0  0.09540  0.81023  0.47275  1.0000
  H   H1088     1.0  0.42763  0.86474  0.37488  1.0000
  H   H1089     1.0  0.33478  0.49629  0.29020  1.0000
  C   C611      1.0  0.09627  0.85105  0.46597  1.0000
  C   C612      1.0  0.19758  0.97102  0.33228  1.0000
  H   H1090     1.0  0.15419  0.98649  0.34528  1.0000
  C   C613      1.0  0.21622  0.92497  0.34531  1.0000
  C   C614      1.0  0.45420  0.84545  0.34812  1.0000
  C   C615      1.0  0.00854  0.53266  0.31432  1.0000
  N   N33       1.0  0.22631  0.97358  0.32820  1.0000
  S   S127      1.0  0.09347  0.97303  0.43956  1.0000
  S   S128      1.0  0.99576  0.66559  0.28077  1.0000
  S   S129      1.0  0.47452  0.92865  0.34311  1.0000
  H   H1091     1.0  0.47253  0.87562  0.36331  1.0000
  H   H1092     1.0  0.20957  0.98443  0.29163  1.0000
  C   C616      1.0  0.41413  0.81419  0.37166  1.0000
  C   C617      1.0  0.41175  0.83330  0.33842  1.0000
  H   H1093     1.0  0.37145  0.49815  0.35141  1.0000
  H   H1094     1.0  0.46587  0.60673  0.27008  1.0000
  H   H1095     1.0  0.22971  0.95961  0.35729  1.0000
  C   C618      1.0  0.42809  0.79288  0.37181  1.0000
  S   S130      1.0  0.04603  0.50757  0.25438  1.0000
  C   C619      1.0  0.25526  0.96364  0.38714  1.0000
  H   H1096     1.0  0.00672  0.51561  0.30711  1.0000
  H   H1097     1.0  0.02944  0.53914  0.31549  1.0000
  H   H1098     1.0  0.46091  0.86172  0.33508  1.0000
  H   H1099     1.0  0.47765  0.86572  0.29219  1.0000
  C   C620      1.0  0.47775  0.50004  0.33537  1.0000
  H   H1100     1.0  0.45367  0.57626  0.33976  1.0000
  H   H1101     1.0  0.05393  0.55000  0.28383  1.0000
  H   H1102     1.0  0.42160  0.92065  0.34074  1.0000
  H   H1103     1.0  0.99885  0.91045  0.43396  1.0000
  H   H1104     1.0  0.39800  0.89900  0.37265  1.0000
  H   H1105     1.0  0.42296  0.75343  0.38704  1.0000
  C   C621      1.0  0.99906  0.70130  0.33939  1.0000
  H   H1106     1.0  0.22132  0.94803  0.30772  1.0000
  C   C622      1.0  0.03052  0.85564  0.45434  1.0000
  H   H1107     1.0  0.17420  0.87757  0.46107  1.0000
  C   C623      1.0  0.37595  0.88259  0.27314  1.0000
  S   S131      1.0  0.45174  0.65230  0.25338  1.0000
  H   H1108     1.0  0.08044  0.84660  0.42826  1.0000
  H   H1109     1.0  0.05993  0.86170  0.41670  1.0000
  H   H1110     1.0  0.03002  0.84094  0.44501  1.0000
  H   H1111     1.0  0.41460  0.82025  0.38581  1.0000
  C   C624      1.0  0.17240  0.96795  0.47690  1.0000
  H   H1112     1.0  0.06037  0.76018  0.47079  1.0000
  C   C625      1.0  0.10214  0.82862  0.47816  1.0000
  H   H1113     1.0  0.01043  0.70754  0.30818  1.0000
  C   C626      1.0  0.23366  0.96790  0.30851  1.0000
  C   C627      1.0  0.24226  0.98165  0.27205  1.0000
  H   H1114     1.0  0.45990  0.82917  0.34307  1.0000
  C   C628      1.0  0.41437  0.80995  0.32922  1.0000
  C   C629      1.0  0.43000  0.94081  0.34180  1.0000
  H   H1115     1.0  0.19394  0.98684  0.32236  1.0000
  C   C630      1.0  0.22237  0.90772  0.36168  1.0000
  H   H1116     1.0  0.98974  0.69250  0.48152  1.0000
  H   H1117     1.0  0.00539  0.67432  0.37244  1.0000
  H   H1118     1.0  0.04387  0.76849  0.36428  1.0000
  C   C631      1.0  0.04599  0.90699  0.46704  1.0000
  C   C632      1.0  0.40384  0.50941  0.30457  1.0000
  H   H1119     1.0  0.28134  0.90525  0.41772  1.0000
  H   H1120     1.0  0.00753  0.85499  0.48291  1.0000
  H   H1121     1.0  0.39029  0.82936  0.34283  1.0000
  Fe  Fe58      1.0  0.36461  0.97797  0.34224  1.0000
  H   H1122     1.0  0.04245  0.74933  0.44231  1.0000
  H   H1123     1.0  0.20671  0.91748  0.43992  1.0000
  H   H1124     1.0  0.41903  0.85135  0.32686  1.0000
  Fe  Fe59      1.0  0.43700  0.62098  0.23691  1.0000
  H   H1125     1.0  0.01788  0.59711  0.29624  1.0000
  C   C633      1.0  0.07795  0.86571  0.42271  1.0000
  C   C634      1.0  0.23005  0.95433  0.39881  1.0000
  N   N34       1.0  0.23857  0.94030  0.46519  1.0000
  H   H1126     1.0  0.44330  0.49911  0.26491  1.0000
  H   H1127     1.0  0.21100  0.88681  0.36286  1.0000
  H   H1128     1.0  0.24353  0.90965  0.35885  1.0000
  H   H1129     1.0  0.21702  0.91332  0.37565  1.0000
  C   C635      1.0  0.47628  0.62367  0.27508  1.0000
  Fe  Fe60      1.0  0.45419  0.83291  0.26142  1.0000
  C   C636      1.0  0.00704  0.75845  0.45114  1.0000
  H   H1130     1.0  0.37403  0.95887  0.23623  1.0000
  H   H1131     1.0  0.19486  0.92177  0.34873  1.0000
  H   H1132     1.0  0.36477  0.87808  0.38179  1.0000
  C   C637      1.0  0.25904  0.92090  0.43793  1.0000
  C   C638      1.0  0.00923  0.65269  0.26202  1.0000
  H   H1133     1.0  0.40271  0.79113  0.33931  1.0000
  C   C639      1.0  0.42821  0.97649  0.28707  1.0000
  H   H1134     1.0  0.98371  0.75222  0.37449  1.0000
  H   H1135     1.0  0.18728  0.95656  0.36403  1.0000
  H   H1136     1.0  0.40877  0.96874  0.28369  1.0000
  H   H1137     1.0  0.22491  0.97297  0.45645  1.0000
  H   H1138     1.0  0.30094  0.92656  0.43044  1.0000
  S   S132      1.0  0.36287  0.96079  0.31573  1.0000
  H   H1139     1.0  0.39562  0.94463  0.26159  1.0000
  N   N35       1.0  0.39833  0.53147  0.31340  1.0000
  C   C640      1.0  0.43847  0.93137  0.27382  1.0000
  C   C641      1.0  0.21486  0.97109  0.40060  1.0000
  H   H1140     1.0  0.41586  0.52519  0.27338  1.0000
  C   C642      1.0  0.23230  0.95434  0.34292  1.0000
  H   H1141     1.0  0.05510  0.56383  0.24871  1.0000
  H   H1142     1.0  0.43129  0.78719  0.35769  1.0000
  C   C643      1.0  0.15687  0.97037  0.35548  1.0000
  C   C644      1.0  0.47217  0.64784  0.26950  1.0000
  H   H1143     1.0  0.25327  0.95554  0.33929  1.0000
  H   H1144     1.0  0.36551  0.53646  0.33220  1.0000
  H   H1145     1.0  0.17747  0.97383  0.46135  1.0000
  C   C645      1.0  0.45987  0.56024  0.33461  1.0000
  H   H1146     1.0  0.32679  0.50196  0.35510  1.0000
  H   H1147     1.0  0.99200  0.72804  0.31640  1.0000
  H   H1148     1.0  0.26482  0.96188  0.48132  1.0000
  H   H1149     1.0  0.39371  0.94870  0.34249  1.0000
  C   C646      1.0  0.01728  0.55844  0.28168  1.0000
  H   H1150     1.0  0.15799  0.89754  0.47303  1.0000
  H   H1151     1.0  0.38575  0.49672  0.30129  1.0000
  C   C647      1.0  0.46712  0.97688  0.34365  1.0000
  C   C648      1.0  0.06104  0.57856  0.25763  1.0000
  Fe  Fe61      1.0  0.41982  0.86271  0.24596  1.0000
  N   N36       1.0  0.45047  0.95757  0.25998  1.0000
  H   H1152     1.0  0.40923  0.77259  0.40153  1.0000
  H   H1153     1.0  0.03941  0.93984  0.47852  1.0000
  H   H1154     1.0  0.01186  0.54004  0.27608  1.0000
  H   H1155     1.0  0.01354  0.82475  0.48042  1.0000
  H   H1156     1.0  0.44962  0.56797  0.30722  1.0000
  Fe  Fe62      1.0  0.30650  0.95210  0.35908  1.0000
  C   C649      1.0  0.99219  0.52234  0.33521  1.0000
  H   H1157     1.0  0.46169  0.84309  0.37780  1.0000
  Fe  Fe63      1.0  0.32617  0.97137  0.31586  1.0000
  H   H1158     1.0  0.02498  0.89883  0.46675  1.0000
  C   C650      1.0  0.99389  0.70804  0.31918  1.0000
  H   H1159     1.0  0.45625  0.54379  0.34706  1.0000
  C   C651      1.0  0.41409  0.95683  0.34277  1.0000
  C   C652      1.0  0.24433  0.94867  0.48366  1.0000
  H   H1160     1.0  0.10372  0.86903  0.47160  1.0000
  C   C653      1.0  0.43550  0.95760  0.24393  1.0000
  C   C654      1.0  0.43141  0.49357  0.27987  1.0000
  H   H1161     1.0  0.25413  0.96712  0.30590  1.0000
  C   C655      1.0  0.00906  0.84169  0.47280  1.0000
  H   H1162     1.0  0.03879  0.68969  0.24869  1.0000
  H   H1163     1.0  0.12355  0.83371  0.47738  1.0000
  H   H1164     1.0  0.08261  0.58412  0.25607  1.0000
  C   C656      1.0  0.99779  0.49808  0.34503  1.0000
  H   H1165     1.0  0.45313  0.53590  0.31391  1.0000
  H   H1166     1.0  0.01220  0.64090  0.39786  1.0000
  C   C657      1.0  0.06652  0.84430  0.46627  1.0000
  C   C658      1.0  0.99369  0.64033  0.40724  1.0000
  H   H1167     1.0  0.27864  0.94009  0.45830  1.0000
  H   H1168     1.0  0.23574  0.95967  0.43710  1.0000
  C   C659      1.0  0.03071  0.66931  0.24789  1.0000
  H   H1169     1.0  0.15831  0.89724  0.44791  1.0000
  H   H1170     1.0  0.23234  0.96119  0.27086  1.0000
  C   C660      1.0  0.37845  0.49459  0.25137  1.0000
  H   H1171     1.0  0.26133  0.93834  0.42676  1.0000
  H   H1172     1.0  0.26356  0.98466  0.27080  1.0000
  H   H1173     1.0  0.47179  0.92164  0.28300  1.0000
  C   C661      1.0  0.24024  0.96455  0.45090  1.0000
  H   H1174     1.0  0.28328  0.97981  0.44094  1.0000
  H   H1175     1.0  0.47426  0.49814  0.38338  1.0000
  C   C662      1.0  0.46794  0.49492  0.37011  1.0000
  H   H1176     1.0  0.98317  0.81927  0.45682  1.0000
  H   H1177     1.0  0.98298  0.61318  0.27197  1.0000
  H   H1178     1.0  0.98636  0.49147  0.36014  1.0000
  H   H1179     1.0  0.47976  0.54700  0.25644  1.0000
  S   S133      1.0  0.31386  0.98861  0.28969  1.0000
  H   H1180     1.0  0.06863  0.93301  0.48303  1.0000
  C   C663      1.0  0.23061  0.98702  0.29125  1.0000
  H   H1181     1.0  0.99481  0.68609  0.52423  1.0000
  C   C664      1.0  0.44710  0.50849  0.67275  1.0000
  Fe  Fe64      1.0  0.13071  0.95955  0.57909  1.0000
  S   S134      1.0  0.17122  0.95644  0.57747  1.0000
  S   S135      1.0  0.09591  0.92244  0.58950  1.0000
  H   H1182     1.0  0.11625  0.49139  0.65716  1.0000
  H   H1183     1.0  0.99076  0.77734  0.49336  1.0000
  H   H1184     1.0  0.16765  0.67830  0.67994  1.0000
  C   C665      1.0  0.42140  0.52563  0.65226  1.0000
  C   C666      1.0  0.44517  0.96162  0.65461  1.0000
  C   C667      1.0  0.09684  0.50488  0.70140  1.0000
  S   S136      1.0  0.20510  0.98627  0.52179  1.0000
  C   C668      1.0  0.16352  0.69421  0.67050  1.0000
  H   H1185     1.0  0.44968  0.52573  0.67979  1.0000
  C   C669      1.0  0.03426  0.69417  0.60748  1.0000
  C   C670      1.0  0.07711  0.53630  0.68654  1.0000
  H   H1186     1.0  0.40965  0.96255  0.72137  1.0000
  H   H1187     1.0  0.07413  0.84848  0.55330  1.0000
  H   H1188     1.0  0.99708  0.66360  0.50845  1.0000
  H   H1189     1.0  0.18329  0.92451  0.54850  1.0000
  C   C671      1.0  0.00006  0.68456  0.50896  1.0000
  Fe  Fe65      1.0  0.01653  0.57614  0.65204  1.0000
  H   H1190     1.0  0.18181  0.90299  0.53172  1.0000
  H   H1191     1.0  0.01616  0.68618  0.68604  1.0000
  H   H1192     1.0  0.23102  0.94641  0.52362  1.0000
  C   C672      1.0  0.17737  0.90358  0.54727  1.0000
  C   C673      1.0  0.13400  0.56099  0.67876  1.0000
  Fe  Fe66      1.0  0.18163  0.98711  0.55021  1.0000
  H   H1193     1.0  0.04531  0.67036  0.66544  1.0000
  C   C674      1.0  0.45185  0.54841  0.71710  1.0000
  H   H1194     1.0  0.10441  0.84698  0.52206  1.0000
  C   C675      1.0  0.41223  0.98018  0.71037  1.0000
  H   H1195     1.0  0.03740  0.55729  0.69080  1.0000
  H   H1196     1.0  0.16630  0.71138  0.67756  1.0000
  H   H1197     1.0  0.23427  0.62441  0.72314  1.0000
  H   H1198     1.0  0.03685  0.91183  0.49676  1.0000
  H   H1199     1.0  0.11603  0.76063  0.57663  1.0000
  C   C676      1.0  0.40013  0.49733  0.68419  1.0000
  C   C677      1.0  0.98133  0.67369  0.57574  1.0000
  C   C678      1.0  0.08142  0.50064  0.67075  1.0000
  S   S137      1.0  0.02507  0.62372  0.70666  1.0000
  C   C679      1.0  0.12224  0.49730  0.70160  1.0000
  H   H1200     1.0  0.07814  0.51197  0.65753  1.0000
  H   H1201     1.0  0.45632  0.56102  0.60601  1.0000
  H   H1202     1.0  0.07701  0.54926  0.67289  1.0000
  H   H1203     1.0  0.05127  0.70469  0.65612  1.0000
  Fe  Fe67      1.0  0.02267  0.63312  0.63560  1.0000
  C   C680      1.0  0.04707  0.59799  0.73158  1.0000
  H   H1204     1.0  0.98690  0.53320  0.63366  1.0000
  C   C681      1.0  0.42192  0.97648  0.68981  1.0000
  C   C682      1.0  0.30678  0.95337  0.72683  1.0000
  H   H1205     1.0  0.44582  0.98217  0.62582  1.0000
  C   C683      1.0  0.11745  0.80149  0.56983  1.0000
  H   H1206     1.0  0.04067  0.68962  0.51039  1.0000
  H   H1207     1.0  0.37503  0.96898  0.68753  1.0000
  C   C684      1.0  0.07168  0.61337  0.69865  1.0000
  C   C685      1.0  0.09081  0.60239  0.70359  1.0000
  H   H1208     1.0  0.07398  0.62367  0.68408  1.0000
  H   H1209     1.0  0.10776  0.60426  0.69278  1.0000
  H   H1210     1.0  0.08642  0.64091  0.61658  1.0000
  H   H1211     1.0  0.13424  0.52647  0.66718  1.0000
  C   C686      1.0  0.45151  0.96540  0.63263  1.0000
  S   S138      1.0  0.03197  0.80833  0.54897  1.0000
  C   C687      1.0  0.10646  0.77278  0.56834  1.0000
  C   C688      1.0  0.06802  0.82874  0.61357  1.0000
  H   H1212     1.0  0.36894  0.50348  0.66914  1.0000
  C   C689      1.0  0.01872  0.49179  0.65031  1.0000
  H   H1213     1.0  0.46080  0.57385  0.68911  1.0000
  H   H1214     1.0  0.15038  0.85173  0.56380  1.0000
  H   H1215     1.0  0.43462  0.57047  0.62313  1.0000
  C   C690      1.0  0.07332  0.91080  0.57519  1.0000
  C   C691      1.0  0.05468  0.88588  0.58214  1.0000
  C   C692      1.0  0.03768  0.87457  0.57076  1.0000
  C   C693      1.0  0.03807  0.88876  0.55270  1.0000
  C   C694      1.0  0.05576  0.91433  0.54605  1.0000
  C   C695      1.0  0.07382  0.92512  0.55707  1.0000
  H   H1216     1.0  0.05364  0.87510  0.59634  1.0000
  H   H1217     1.0  0.02414  0.85489  0.57605  1.0000
  H   H1218     1.0  0.05618  0.92545  0.53206  1.0000
  H   H1219     1.0  0.08804  0.94443  0.55158  1.0000
  C   C696      1.0  0.18348  0.97170  0.50804  1.0000
  C   C697      1.0  0.15957  0.95272  0.51715  1.0000
  C   C698      1.0  0.14223  0.94109  0.50614  1.0000
  H   H1220     1.0  0.45699  0.97997  0.65810  1.0000
  H   H1221     1.0  0.17772  0.69982  0.65645  1.0000
  H   H1222     1.0  0.39325  0.98417  0.71160  1.0000
  H   H1223     1.0  0.15438  0.94712  0.53271  1.0000
  H   H1224     1.0  0.12356  0.92687  0.51328  1.0000
  H   H1225     1.0  0.12369  0.87991  0.52208  1.0000
  H   H1226     1.0  0.32669  0.94781  0.68663  1.0000
  Fe  Fe68      1.0  0.01533  0.61381  0.67890  1.0000
  Fe  Fe69      1.0  0.01454  0.78536  0.52814  1.0000
  H   H1227     1.0  0.11010  0.77075  0.55305  1.0000
  H   H1228     1.0  0.12438  0.57635  0.67657  1.0000
  H   H1229     1.0  0.11349  0.68720  0.61260  1.0000
  S   S139      1.0  0.10925  0.57147  0.72817  1.0000
  H   H1230     1.0  0.47293  0.96990  0.62746  1.0000
  H   H1231     1.0  0.08394  0.80905  0.55970  1.0000
  H   H1232     1.0  0.02038  0.68965  0.63791  1.0000
  H   H1233     1.0  0.08463  0.74467  0.65316  1.0000
  H   H1234     1.0  0.10611  0.63032  0.63229  1.0000
  H   H1235     1.0  0.04651  0.50643  0.70944  1.0000
  H   H1236     1.0  0.99041  0.71769  0.49472  1.0000
  C   C699      1.0  0.07396  0.82804  0.59213  1.0000
  H   H1237     1.0  0.14383  0.71282  0.64062  1.0000
  H   H1238     1.0  0.00445  0.94803  0.50394  1.0000
  H   H1239     1.0  0.08504  0.76511  0.57446  1.0000
  H   H1240     1.0  0.11629  0.72487  0.62249  1.0000
  C   C700      1.0  0.16284  0.57340  0.66881  1.0000
  C   C701      1.0  0.41542  0.95592  0.66236  1.0000
  S   S140      1.0  0.98835  0.57404  0.67907  1.0000
  H   H1241     1.0  0.08190  0.71381  0.62947  1.0000
  S   S141      1.0  0.04021  0.77644  0.50419  1.0000
  H   H1242     1.0  0.09210  0.82516  0.49351  1.0000
  C   C702      1.0  0.47824  0.49580  0.69224  1.0000
  H   H1243     1.0  0.43415  0.93274  0.69221  1.0000
  C   C703      1.0  0.44458  0.53581  0.63447  1.0000
  C   C704      1.0  0.43889  0.55347  0.61810  1.0000
  H   H1244     1.0  0.00623  0.72937  0.63435  1.0000
  H   H1245     1.0  0.03736  0.51155  0.68637  1.0000
  C   C705      1.0  0.10178  0.84689  0.58199  1.0000
  H   H1246     1.0  0.08172  0.76021  0.61927  1.0000
  H   H1247     1.0  0.26568  0.95137  0.51645  1.0000
  S   S142      1.0  0.04508  0.61417  0.65360  1.0000
  C   C706      1.0  0.08262  0.69548  0.66932  1.0000
  H   H1248     1.0  0.03380  0.71983  0.50364  1.0000
  S   S143      1.0  0.29386  0.97082  0.71032  1.0000
  H   H1249     1.0  0.04083  0.54766  0.71535  1.0000
  S   S144      1.0  0.00389  0.76439  0.60129  1.0000
  H   H1250     1.0  0.03062  0.74284  0.57277  1.0000
  C   C707      1.0  0.12028  0.53741  0.67025  1.0000
  H   H1251     1.0  0.25551  0.91568  0.49778  1.0000
  C   C708      1.0  0.04807  0.52142  0.69653  1.0000
  H   H1252     1.0  0.08887  0.71270  0.67617  1.0000
  H   H1253     1.0  0.10126  0.78596  0.62901  1.0000
  H   H1254     1.0  0.04673  0.70425  0.57648  1.0000
  H   H1255     1.0  0.99541  0.66642  0.58283  1.0000
  H   H1256     1.0  0.11342  0.81932  0.54233  1.0000
  H   H1257     1.0  0.04004  0.68019  0.69932  1.0000
  H   H1258     1.0  0.44915  0.51938  0.62881  1.0000
  H   H1259     1.0  0.17172  0.59069  0.67486  1.0000
  S   S145      1.0  0.04428  0.66606  0.60979  1.0000
  H   H1260     1.0  0.13756  0.90161  0.54759  1.0000
  H   H1261     1.0  0.10200  0.86700  0.58375  1.0000
  C   C709      1.0  0.03723  0.69271  0.68659  1.0000
  H   H1262     1.0  0.04744  0.81651  0.62013  1.0000
  C   C710      1.0  0.33085  0.92908  0.68598  1.0000
  H   H1263     1.0  0.14431  0.89286  0.57099  1.0000
  H   H1264     1.0  0.04285  0.71341  0.68841  1.0000
  H   H1265     1.0  0.42199  0.54238  0.65967  1.0000
  H   H1266     1.0  0.44273  0.97741  0.68873  1.0000
  H   H1267     1.0  0.98963  0.69533  0.57049  1.0000
  H   H1268     1.0  0.16484  0.58003  0.65304  1.0000
  H   H1269     1.0  0.47655  0.50825  0.70288  1.0000
  H   H1270     1.0  0.11718  0.77088  0.61226  1.0000
  H   H1271     1.0  0.03586  0.49176  0.65590  1.0000
  C   C711      1.0  0.41011  0.88131  0.70086  1.0000
  H   H1272     1.0  0.07298  0.97660  0.60368  1.0000
  N   N37       1.0  0.40662  0.95206  0.68397  1.0000
  C   C712      1.0  0.09481  0.67363  0.64350  1.0000
  C   C713      1.0  0.37780  0.94923  0.68920  1.0000
  S   S146      1.0  0.99513  0.63604  0.66121  1.0000
  C   C714      1.0  0.41263  0.92916  0.69482  1.0000
  C   C715      1.0  0.39944  0.90180  0.69092  1.0000
  H   H1273     1.0  0.45859  0.59496  0.73130  1.0000
  C   C716      1.0  0.02871  0.73149  0.58701  1.0000
  C   C717      1.0  0.35968  0.93460  0.67694  1.0000
  H   H1274     1.0  0.18909  0.89367  0.55515  1.0000
  N   N38       1.0  0.10158  0.69895  0.65062  1.0000
  H   H1275     1.0  0.43145  0.88627  0.69503  1.0000
  H   H1276     1.0  0.22115  0.91168  0.50455  1.0000
  H   H1277     1.0  0.09301  0.88074  0.50118  1.0000
  H   H1278     1.0  0.40506  0.93863  0.65694  1.0000
  H   H1279     1.0  0.36975  0.93967  0.70474  1.0000
  H   H1280     1.0  0.98681  0.92576  0.53771  1.0000
  S   S147      1.0  0.03458  0.54438  0.64880  1.0000
  C   C718      1.0  0.02296  0.70138  0.62376  1.0000
  H   H1281     1.0  0.13886  0.51488  0.70142  1.0000
  N   N39       1.0  0.09436  0.51947  0.68243  1.0000
  H   H1282     1.0  0.40290  0.90169  0.67529  1.0000
  H   H1283     1.0  0.37809  0.89545  0.69705  1.0000
  C   C719      1.0  0.14857  0.94874  0.48600  1.0000
  H   H1284     1.0  0.32568  0.91682  0.70080  1.0000
  S   S148      1.0  0.99626  0.59484  0.63182  1.0000
  H   H1285     1.0  0.39997  0.86166  0.69830  1.0000
  H   H1286     1.0  0.36361  0.94703  0.66228  1.0000
  H   H1287     1.0  0.36261  0.91572  0.67518  1.0000
  H   H1288     1.0  0.17366  0.55910  0.67130  1.0000
  C   C720      1.0  0.13943  0.86111  0.55466  1.0000
  H   H1289     1.0  0.40678  0.88038  0.71669  1.0000
  C   C721      1.0  0.46862  0.56433  0.70005  1.0000
  H   H1290     1.0  0.11978  0.75508  0.64614  1.0000
  H   H1291     1.0  0.41001  0.97267  0.65502  1.0000
  C   C722      1.0  0.10615  0.64570  0.62013  1.0000
  H   H1292     1.0  0.11599  0.84240  0.59048  1.0000
  C   C723      1.0  0.99100  0.51504  0.63782  1.0000
  C   C724      1.0  0.98289  0.94114  0.50936  1.0000
  C   C725      1.0  0.01706  0.73842  0.60335  1.0000
  H   H1293     1.0  0.40305  0.52186  0.64679  1.0000
  H   H1294     1.0  0.08505  0.54965  0.69602  1.0000
  C   C726      1.0  0.05358  0.69046  0.66794  1.0000
  H   H1295     1.0  0.34575  0.98104  0.71974  1.0000
  C   C727      1.0  0.10132  0.74694  0.64129  1.0000
  C   C728      1.0  0.11387  0.67280  0.62525  1.0000
  S   S149      1.0  0.01678  0.87450  0.53833  1.0000
  H   H1296     1.0  0.12228  0.67833  0.68205  1.0000
  H   H1297     1.0  0.08267  0.67835  0.68003  1.0000
  H   H1298     1.0  0.11763  0.54575  0.65577  1.0000
  H   H1299     1.0  0.24407  0.92051  0.53113  1.0000
  C   C729      1.0  0.08743  0.58825  0.72237  1.0000
  H   H1300     1.0  0.13364  0.66684  0.66115  1.0000
  C   C730      1.0  0.09518  0.86011  0.54939  1.0000
  H   H1301     1.0  0.09297  0.65675  0.65515  1.0000
  C   C731      1.0  0.24579  0.93685  0.51910  1.0000
  H   H1302     1.0  0.13274  0.55503  0.69446  1.0000
  C   C732      1.0  0.10536  0.81915  0.55758  1.0000
  H   H1303     1.0  0.46371  0.51444  0.66009  1.0000
  H   H1304     1.0  0.11343  0.80227  0.58529  1.0000
  H   H1305     1.0  0.13426  0.67721  0.62738  1.0000
  H   H1306     1.0  0.08315  0.89350  0.52161  1.0000
  C   C733      1.0  0.08515  0.87553  0.51696  1.0000
  S   S150      1.0  0.98850  0.80930  0.52214  1.0000
  H   H1307     1.0  0.13265  0.72351  0.66140  1.0000
  H   H1308     1.0  0.31829  0.91849  0.67705  1.0000
  C   C734      1.0  0.10391  0.86514  0.52708  1.0000
  H   H1309     1.0  0.42202  0.54223  0.61266  1.0000
  C   C735      1.0  0.18990  0.97935  0.48791  1.0000
  C   C736      1.0  0.03397  0.54034  0.70283  1.0000
  C   C737      1.0  0.24111  0.92614  0.50099  1.0000
  H   H1310     1.0  0.13902  0.80788  0.56457  1.0000
  N   N40       1.0  0.11046  0.84679  0.56093  1.0000
  H   H1311     1.0  0.46239  0.54773  0.63859  1.0000
  H   H1312     1.0  0.07063  0.84911  0.61565  1.0000
  C   C738      1.0  0.01322  0.51524  0.64539  1.0000
  H   H1313     1.0  0.05883  0.83358  0.58538  1.0000
  N   N41       1.0  0.42118  0.50189  0.66642  1.0000
  H   H1314     1.0  0.07176  0.80731  0.59136  1.0000
  H   H1315     1.0  0.14687  0.85942  0.53969  1.0000
  H   H1316     1.0  0.40663  0.92726  0.71065  1.0000
  H   H1317     1.0  0.07518  0.66947  0.63978  1.0000
  C   C739      1.0  0.10001  0.72044  0.63524  1.0000
  C   C740      1.0  0.14810  0.89059  0.55577  1.0000
  C   C741      1.0  0.13546  0.68446  0.66757  1.0000
  H   H1318     1.0  0.40897  0.48886  0.62941  1.0000
  C   C742      1.0  0.03778  0.70966  0.58913  1.0000
  C   C743      1.0  0.01485  0.72376  0.62172  1.0000
  H   H1319     1.0  0.45172  0.94515  0.66073  1.0000
  H   H1320     1.0  0.08119  0.82078  0.62121  1.0000
  Fe  Fe70      1.0  0.00335  0.83012  0.54484  1.0000
  C   C744      1.0  0.04966  0.61098  0.71265  1.0000
  H   H1321     1.0  0.12036  0.64554  0.60727  1.0000
  H   H1322     1.0  0.09562  0.87927  0.55329  1.0000
  C   C745      1.0  0.12895  0.70623  0.65441  1.0000
  C   C746      1.0  0.37144  0.49036  0.68159  1.0000
  C   C747      1.0  0.10028  0.76717  0.62436  1.0000
  H   H1323     1.0  0.06553  0.86047  0.52001  1.0000
  H   H1324     1.0  0.10527  0.98336  0.50397  1.0000
  H   H1325     1.0  0.01261  0.52997  0.70707  1.0000
  H   H1326     1.0  0.44114  0.94732  0.62801  1.0000
  Fe  Fe71      1.0  0.99901  0.77959  0.57156  1.0000
  S   S151      1.0  0.45734  0.94793  0.72468  1.0000
  C   C748      1.0  0.98370  0.69597  0.49617  1.0000
  C   C749      1.0  0.33293  0.96253  0.72859  1.0000
  S   S152      1.0  0.41820  0.54378  0.71997  1.0000
  H   H1327     1.0  0.09560  0.51649  0.71289  1.0000
  S   S153      1.0  0.14059  0.98772  0.55070  1.0000
  C   C750      1.0  0.02933  0.69918  0.50182  1.0000
  H   H1328     1.0  0.40430  0.51499  0.69078  1.0000
  H   H1329     1.0  0.35826  0.51327  0.70119  1.0000
  C   C751      1.0  0.02700  0.76989  0.48389  1.0000
  H   H1330     1.0  0.03573  0.69902  0.48635  1.0000
  C   C752      1.0  0.35339  0.49256  0.69941  1.0000
  C   C753      1.0  0.46216  0.53667  0.73143  1.0000
  H   H1331     1.0  0.23165  0.96035  0.48844  1.0000
  H   H1332     1.0  0.04898  0.87388  0.48660  1.0000
  S   S154      1.0  0.98441  0.75415  0.55119  1.0000
  H   H1333     1.0  0.04736  0.98768  0.59544  1.0000
  H   H1334     1.0  0.98099  0.85742  0.58425  1.0000
  H   H1335     1.0  0.98201  0.90241  0.52236  1.0000
  H   H1336     1.0  0.12772  0.48901  0.68902  1.0000
  Fe  Fe72      1.0  0.09146  0.51834  0.79586  1.0000
  S   S155      1.0  0.08064  0.55321  0.78357  1.0000
  S   S156      1.0  0.11715  0.51796  0.81780  1.0000
  H   H1337     1.0  0.38302  0.60675  0.77393  1.0000
  H   H1338     1.0  0.26893  0.56947  0.94382  1.0000
  C   C754      1.0  0.35392  0.52011  0.82087  1.0000
  H   H1339     1.0  0.40251  0.64140  0.83332  1.0000
  Fe  Fe73      1.0  0.04048  0.52458  0.78725  1.0000
  C   C755      1.0  0.34242  0.94750  0.74181  1.0000
  H   H1340     1.0  0.98267  0.51973  0.73612  1.0000
  H   H1341     1.0  0.30009  0.68121  0.84329  1.0000
  H   H1342     1.0  0.43691  0.50244  0.81259  1.0000
  C   C756      1.0  0.24784  0.72642  0.97911  1.0000
  H   H1343     1.0  0.32055  0.50044  0.88101  1.0000
  S   S157      1.0  0.35502  0.77218  0.94636  1.0000
  Fe  Fe74      1.0  0.40691  0.75690  0.91017  1.0000
  S   S158      1.0  0.39192  0.73386  0.94041  1.0000
  S   S159      1.0  0.43964  0.75353  0.88867  1.0000
  Fe  Fe75      1.0  0.35267  0.73508  0.93555  1.0000
  S   S160      1.0  0.31906  0.69779  0.94614  1.0000
  Fe  Fe76      1.0  0.39582  0.77283  0.94863  1.0000
  S   S161      1.0  0.36725  0.75460  0.90423  1.0000
  Fe  Fe77      1.0  0.37652  0.56597  0.92172  1.0000
  S   S162      1.0  0.37966  0.60757  0.90930  1.0000
  S   S163      1.0  0.38451  0.91918  0.80420  1.0000
  S   S164      1.0  0.40360  0.59667  0.86753  1.0000
  Fe  Fe78      1.0  0.41880  0.60909  0.89296  1.0000
  S   S165      1.0  0.45561  0.64337  0.88630  1.0000
  Fe  Fe79      1.0  0.36409  0.59100  0.88516  1.0000
  S   S166      1.0  0.33648  0.60430  0.86907  1.0000
  S   S167      1.0  0.41696  0.56847  0.90698  1.0000
  S   S168      1.0  0.35721  0.54919  0.89903  1.0000
  Fe  Fe80      1.0  0.20858  0.63911  0.89998  1.0000
  S   S169      1.0  0.20727  0.60986  0.92607  1.0000
  S   S170      1.0  0.23990  0.67880  0.89009  1.0000
  Fe  Fe81      1.0  0.15871  0.60345  0.89138  1.0000
  S   S171      1.0  0.15333  0.57133  0.91698  1.0000
  S   S172      1.0  0.13157  0.60275  0.87039  1.0000
  Fe  Fe82      1.0  0.16435  0.60410  0.93300  1.0000
  S   S173      1.0  0.14496  0.60501  0.96299  1.0000
  Fe  Fe83      1.0  0.19683  0.58017  0.90771  1.0000
  S   S174      1.0  0.21711  0.54947  0.90815  1.0000
  S   S175      1.0  0.16613  0.63568  0.90815  1.0000
  S   S176      1.0  0.20141  0.60985  0.88088  1.0000
  H   H1344     1.0  0.28676  0.89587  0.76006  1.0000
  C   C757      1.0  0.39994  0.57543  0.78057  1.0000
  C   C758      1.0  0.29700  0.58636  0.96050  1.0000
  H   H1345     1.0  0.31956  0.60146  0.81726  1.0000
  H   H1346     1.0  0.21153  0.62554  0.77435  1.0000
  H   H1347     1.0  0.27006  0.92228  0.73699  1.0000
  C   C759      1.0  0.46415  0.61021  0.75722  1.0000
  H   H1348     1.0  0.02278  0.61036  0.77138  1.0000
  C   C760      1.0  0.16405  0.60116  0.98020  1.0000
  C   C761      1.0  0.02644  0.49688  0.85694  1.0000
  C   C762      1.0  0.30353  0.58937  0.88058  1.0000
  C   C763      1.0  0.29610  0.56954  0.89724  1.0000
  C   C764      1.0  0.26946  0.55688  0.90553  1.0000
  C   C765      1.0  0.25035  0.56484  0.89765  1.0000
  C   C766      1.0  0.25788  0.58494  0.88119  1.0000
  C   C767      1.0  0.28438  0.59696  0.87254  1.0000
  H   H1349     1.0  0.31075  0.56380  0.90370  1.0000
  H   H1350     1.0  0.26369  0.54130  0.91827  1.0000
  H   H1351     1.0  0.24329  0.59076  0.87477  1.0000
  H   H1352     1.0  0.29000  0.61206  0.85956  1.0000
  H   H1353     1.0  0.41901  0.82241  0.84039  1.0000
  H   H1354     1.0  0.27632  0.57537  0.83854  1.0000
  H   H1355     1.0  0.30309  0.56456  0.84439  1.0000
  C   C768      1.0  0.33896  0.96236  0.79286  1.0000
  H   H1356     1.0  0.36801  0.65453  0.92130  1.0000
  C   C769      1.0  0.30499  0.50998  0.88161  1.0000
  C   C770      1.0  0.29882  0.69276  0.92935  1.0000
  C   C771      1.0  0.29616  0.71405  0.91707  1.0000
  C   C772      1.0  0.27825  0.70967  0.90484  1.0000
  C   C773      1.0  0.26338  0.68400  0.90461  1.0000
  C   C774      1.0  0.26751  0.66280  0.91591  1.0000
  C   C775      1.0  0.28487  0.66716  0.92845  1.0000
  H   H1357     1.0  0.30714  0.73387  0.91755  1.0000
  H   H1358     1.0  0.27535  0.72614  0.89596  1.0000
  H   H1359     1.0  0.25756  0.64300  0.91487  1.0000
  H   H1360     1.0  0.28766  0.65064  0.93732  1.0000
  C   C776      1.0  0.44410  0.72270  0.88950  1.0000
  H   H1361     1.0  0.07532  0.56593  0.89627  1.0000
  H   H1362     1.0  0.34869  0.96566  0.80519  1.0000
  C   C777      1.0  0.45094  0.67365  0.88808  1.0000
  C   C778      1.0  0.43001  0.67543  0.90133  1.0000
  C   C779      1.0  0.42662  0.70002  0.90209  1.0000
  C   C780      1.0  0.44997  0.89966  0.86461  1.0000
  H   H1363     1.0  0.15757  0.62258  0.79720  1.0000
  H   H1364     1.0  0.41666  0.65792  0.91106  1.0000
  H   H1365     1.0  0.41044  0.70140  0.91225  1.0000
  C   C781      1.0  0.46493  0.85272  0.86843  1.0000
  H   H1366     1.0  0.37707  0.86656  0.92393  1.0000
  H   H1367     1.0  0.05660  0.56957  0.86755  1.0000
  S   S177      1.0  0.39619  0.50608  0.77434  1.0000
  H   H1368     1.0  0.43631  0.66021  0.83103  1.0000
  H   H1369     1.0  0.07070  0.59459  0.82454  1.0000
  H   H1370     1.0  0.32979  0.88035  0.81043  1.0000
  H   H1371     1.0  0.29275  0.68783  0.86712  1.0000
  S   S178      1.0  0.00579  0.53634  0.79882  1.0000
  S   S179      1.0  0.41407  0.79591  0.91858  1.0000
  H   H1372     1.0  0.40918  0.57836  0.76514  1.0000
  H   H1373     1.0  0.38290  0.81453  0.77583  1.0000
  H   H1374     1.0  0.42574  0.90775  0.89901  1.0000
  C   C782      1.0  0.00555  0.60660  0.78320  1.0000
  C   C783      1.0  0.18867  0.52661  0.86878  1.0000
  H   H1375     1.0  0.41650  0.67298  0.81669  1.0000
  Fe  Fe84      1.0  0.37306  0.79187  0.91524  1.0000
  C   C784      1.0  0.38361  0.50444  0.83769  1.0000
  N   N42       1.0  0.18538  0.58627  0.78721  1.0000
  C   C785      1.0  0.12036  0.54120  0.83270  1.0000
  C   C786      1.0  0.11157  0.56287  0.82892  1.0000
  C   C787      1.0  0.11529  0.58164  0.84057  1.0000
  C   C788      1.0  0.12760  0.57880  0.85615  1.0000
  C   C789      1.0  0.13610  0.55695  0.86014  1.0000
  C   C790      1.0  0.13244  0.53819  0.84842  1.0000
  H   H1376     1.0  0.10210  0.56532  0.81695  1.0000
  H   H1377     1.0  0.10880  0.59859  0.83748  1.0000
  H   H1378     1.0  0.14532  0.55447  0.87231  1.0000
  H   H1379     1.0  0.13871  0.52113  0.85164  1.0000
  H   H1380     1.0  0.27990  0.65509  0.86319  1.0000
  H   H1381     1.0  0.44432  0.81063  0.87573  1.0000
  S   S180      1.0  0.40718  0.89947  0.76614  1.0000
  H   H1382     1.0  0.25444  0.57735  0.96551  1.0000
  C   C791      1.0  0.24652  0.64445  0.97801  1.0000
  H   H1383     1.0  0.46444  0.94170  0.86545  1.0000
  H   H1384     1.0  0.44172  0.59226  0.96897  1.0000
  C   C792      1.0  0.44929  0.93796  0.83974  1.0000
  H   H1385     1.0  0.46534  0.62175  0.79344  1.0000
  C   C793      1.0  0.40528  0.57250  0.96163  1.0000
  H   H1386     1.0  0.27632  0.71989  0.95644  1.0000
  C   C794      1.0  0.44808  0.92789  0.86112  1.0000
  H   H1387     1.0  0.43490  0.87867  0.92665  1.0000
  H   H1388     1.0  0.21421  0.61466  0.83375  1.0000
  H   H1389     1.0  0.13066  0.63919  0.77682  1.0000
  H   H1390     1.0  0.17669  0.55415  0.75877  1.0000
  H   H1391     1.0  0.05324  0.53309  0.90578  1.0000
  H   H1392     1.0  0.46140  0.75580  0.92677  1.0000
  H   H1393     1.0  0.00308  0.62562  0.78543  1.0000
  C   C795      1.0  0.37679  0.85983  0.86490  1.0000
  H   H1394     1.0  0.39806  0.62383  0.94662  1.0000
  H   H1395     1.0  0.20573  0.56342  0.81866  1.0000
  C   C796      1.0  0.36833  0.50280  0.82365  1.0000
  H   H1396     1.0  0.36227  0.57426  0.77382  1.0000
  H   H1397     1.0  0.44735  0.95797  0.83756  1.0000
  C   C797      1.0  0.39003  0.86940  0.84554  1.0000
  H   H1398     1.0  0.12998  0.61363  0.76334  1.0000
  H   H1399     1.0  0.01134  0.54273  0.87996  1.0000
  H   H1400     1.0  0.22537  0.58749  0.84183  1.0000
  N   N43       1.0  0.45010  0.88756  0.88500  1.0000
  H   H1401     1.0  0.05357  0.58301  0.80625  1.0000
  H   H1402     1.0  0.37665  0.80545  0.97728  1.0000
  H   H1403     1.0  0.20456  0.55641  0.78601  1.0000
  C   C798      1.0  0.46862  0.69643  0.87587  1.0000
  C   C799      1.0  0.15753  0.61764  0.78274  1.0000
  H   H1404     1.0  0.43322  0.88700  0.85985  1.0000
  H   H1405     1.0  0.44067  0.51781  0.83314  1.0000
  H   H1406     1.0  0.23287  0.63319  0.97002  1.0000
  H   H1407     1.0  0.47960  0.62548  0.76129  1.0000
  Fe  Fe85      1.0  0.43566  0.94013  0.75559  1.0000
  C   C800      1.0  0.42019  0.48974  0.96401  1.0000
  H   H1408     1.0  0.36673  0.58350  0.79646  1.0000
  H   H1409     1.0  0.32136  0.57255  0.80835  1.0000
  H   H1410     1.0  0.36525  0.87046  0.87180  1.0000
  H   H1411     1.0  0.29135  0.50220  0.89592  1.0000
  H   H1412     1.0  0.44576  0.56759  0.76522  1.0000
  H   H1413     1.0  0.44932  0.52455  0.74471  1.0000
  N   N44       1.0  0.32354  0.82628  0.82734  1.0000
  C   C801      1.0  0.32075  0.84900  0.83634  1.0000
  C   C802      1.0  0.33033  0.80675  0.84143  1.0000
  C   C803      1.0  0.29936  0.81316  0.82031  1.0000
  C   C804      1.0  0.27322  0.80248  0.83541  1.0000
  C   C805      1.0  0.31412  0.87086  0.82349  1.0000
  C   C806      1.0  0.31762  0.80204  0.86318  1.0000
  C   C807      1.0  0.32233  0.77845  0.87488  1.0000
  C   C808      1.0  0.24997  0.79432  0.82568  1.0000
  C   C809      1.0  0.31150  0.89243  0.83436  1.0000
  H   H1414     1.0  0.33917  0.85844  0.84089  1.0000
  H   H1415     1.0  0.30547  0.84230  0.84981  1.0000
  H   H1416     1.0  0.32592  0.78738  0.83707  1.0000
  H   H1417     1.0  0.35182  0.81333  0.84096  1.0000
  H   H1418     1.0  0.29690  0.82670  0.80792  1.0000
  H   H1419     1.0  0.30157  0.79599  0.81439  1.0000
  H   H1420     1.0  0.26994  0.81724  0.84375  1.0000
  H   H1421     1.0  0.27294  0.78462  0.84543  1.0000
  H   H1422     1.0  0.29535  0.86287  0.81899  1.0000
  H   H1423     1.0  0.32644  0.81950  0.86908  1.0000
  H   H1424     1.0  0.29630  0.79860  0.86582  1.0000
  H   H1425     1.0  0.31438  0.77645  0.89048  1.0000
  H   H1426     1.0  0.31243  0.76007  0.87041  1.0000
  H   H1427     1.0  0.34362  0.78117  0.87290  1.0000
  H   H1428     1.0  0.24861  0.81156  0.81583  1.0000
  H   H1429     1.0  0.25189  0.77905  0.81736  1.0000
  H   H1430     1.0  0.23153  0.78603  0.83686  1.0000
  H   H1431     1.0  0.29561  0.88428  0.84751  1.0000
  H   H1432     1.0  0.33023  0.90181  0.83853  1.0000
  H   H1433     1.0  0.30666  0.90774  0.82487  1.0000
  N   N45       1.0  0.44403  0.58218  0.79182  1.0000
  C   C810      1.0  0.43683  0.55440  0.80306  1.0000
  C   C811      1.0  0.41928  0.58956  0.79223  1.0000
  C   C812      1.0  0.45747  0.58351  0.77145  1.0000
  H   H1434     1.0  0.36255  0.95447  0.74305  1.0000
  C   C813      1.0  0.45331  0.59939  0.82270  1.0000
  H   H1435     1.0  0.47269  0.52940  0.88838  1.0000
  H   H1436     1.0  0.39225  0.55408  0.78677  1.0000
  S   S181      1.0  0.41740  0.78093  0.97245  1.0000
  H   H1437     1.0  0.30513  0.51308  0.85166  1.0000
  H   H1438     1.0  0.46925  0.75806  0.95956  1.0000
  H   H1439     1.0  0.42399  0.54056  0.79606  1.0000
  H   H1440     1.0  0.42478  0.55211  0.81761  1.0000
  H   H1441     1.0  0.40795  0.58517  0.80735  1.0000
  H   H1442     1.0  0.42394  0.61113  0.78719  1.0000
  H   H1443     1.0  0.21435  0.50997  0.88222  1.0000
  C   C814      1.0  0.17348  0.51617  0.77474  1.0000
  H   H1444     1.0  0.17388  0.54578  0.80262  1.0000
  H   H1445     1.0  0.19095  0.61355  0.80665  1.0000
  C   C815      1.0  0.46235  0.60117  0.80072  1.0000
  H   H1446     1.0  0.43399  0.60254  0.82587  1.0000
  H   H1447     1.0  0.98912  0.56421  0.74298  1.0000
  C   C816      1.0  0.21053  0.60356  0.75142  1.0000
  H   H1448     1.0  0.37832  0.60743  0.98194  1.0000
  H   H1449     1.0  0.38957  0.86173  0.94554  1.0000
  H   H1450     1.0  0.98704  0.53588  0.85693  1.0000
  Fe  Fe86      1.0  0.39203  0.51036  0.74359  1.0000
  H   H1451     1.0  0.26836  0.49366  0.81546  1.0000
  H   H1452     1.0  0.19081  0.58310  0.84574  1.0000
  H   H1453     1.0  0.32447  0.98276  0.77146  1.0000
  C   C817      1.0  0.37531  0.62519  0.97412  1.0000
  C   C818      1.0  0.29053  0.50476  0.86533  1.0000
  C   C819      1.0  0.41892  0.87153  0.91903  1.0000
  C   C820      1.0  0.20921  0.60490  0.77295  1.0000
  H   H1454     1.0  0.05958  0.50057  0.87134  1.0000
  N   N46       1.0  0.37033  0.68902  0.86375  1.0000
  C   C821      1.0  0.34468  0.69258  0.86071  1.0000
  C   C822      1.0  0.38922  0.71546  0.86364  1.0000
  C   C823      1.0  0.38062  0.67700  0.84783  1.0000
  C   C824      1.0  0.36687  0.67090  0.88279  1.0000
  C   C825      1.0  0.35363  0.67815  0.90097  1.0000
  C   C826      1.0  0.32138  0.66700  0.86360  1.0000
  C   C827      1.0  0.40872  0.67522  0.84707  1.0000
  C   C828      1.0  0.39645  0.73618  0.84451  1.0000
  C   C829      1.0  0.41679  0.76164  0.84565  1.0000
  C   C830      1.0  0.34907  0.65658  0.91871  1.0000
  C   C831      1.0  0.29711  0.67324  0.85897  1.0000
  C   C832      1.0  0.41638  0.66162  0.83098  1.0000
  H   H1455     1.0  0.34700  0.70350  0.84577  1.0000
  H   H1456     1.0  0.33857  0.70505  0.87033  1.0000
  H   H1457     1.0  0.38111  0.72437  0.87510  1.0000
  H   H1458     1.0  0.40758  0.71330  0.86745  1.0000
  H   H1459     1.0  0.37997  0.68761  0.83346  1.0000
  H   H1460     1.0  0.36764  0.65660  0.84920  1.0000
  H   H1461     1.0  0.35566  0.65044  0.88245  1.0000
  H   H1462     1.0  0.38609  0.66988  0.88544  1.0000
  H   H1463     1.0  0.33441  0.68047  0.89966  1.0000
  H   H1464     1.0  0.36623  0.69672  0.90366  1.0000
  H   H1465     1.0  0.32611  0.65418  0.85392  1.0000
  H   H1466     1.0  0.31610  0.65573  0.87872  1.0000
  H   H1467     1.0  0.41016  0.66364  0.86077  1.0000
  H   H1468     1.0  0.42344  0.69501  0.84429  1.0000
  H   H1469     1.0  0.40479  0.72896  0.83214  1.0000
  H   H1470     1.0  0.37895  0.74123  0.84143  1.0000
  H   H1471     1.0  0.40956  0.76978  0.85793  1.0000
  H   H1472     1.0  0.43543  0.75806  0.84752  1.0000
  H   H1473     1.0  0.42084  0.77646  0.83211  1.0000
  H   H1474     1.0  0.33933  0.66167  0.93159  1.0000
  H   H1475     1.0  0.33623  0.63752  0.91686  1.0000
  N   N47       1.0  0.02094  0.52259  0.85723  1.0000
  C   C833      1.0  0.34610  0.83719  0.80997  1.0000
  C   C834      1.0  0.29026  0.92942  0.73832  1.0000
  C   C835      1.0  0.20989  0.59307  0.83549  1.0000
  Fe  Fe87      1.0  0.37755  0.91922  0.77423  1.0000
  H   H1476     1.0  0.33920  0.80278  0.79605  1.0000
  C   C836      1.0  0.46010  0.54395  0.80542  1.0000
  S   S182      1.0  0.33659  0.90341  0.76966  1.0000
  H   H1477     1.0  0.30748  0.73028  0.97899  1.0000
  H   H1478     1.0  0.36352  0.80498  0.81061  1.0000
  H   H1479     1.0  0.45173  0.57996  0.83127  1.0000
  C   C837      1.0  0.05158  0.58973  0.82011  1.0000
  H   H1480     1.0  0.01203  0.56493  0.83040  1.0000
  H   H1481     1.0  0.99175  0.60526  0.74801  1.0000
  C   C838      1.0  0.45064  0.51685  0.81869  1.0000
  C   C839      1.0  0.44981  0.85937  0.88624  1.0000
  C   C840      1.0  0.35541  0.81654  0.80052  1.0000
  H   H1482     1.0  0.36350  0.85035  0.81387  1.0000
  H   H1483     1.0  0.34104  0.84971  0.79832  1.0000
  H   H1484     1.0  0.05863  0.54814  0.84019  1.0000
  H   H1485     1.0  0.02792  0.57641  0.84896  1.0000
  C   C841      1.0  0.46778  0.50380  0.86762  1.0000
  H   H1486     1.0  0.27630  0.75623  0.93075  1.0000
  H   H1487     1.0  0.44994  0.72047  0.93297  1.0000
  H   H1488     1.0  0.17363  0.63286  0.77196  1.0000
  H   H1489     1.0  0.24151  0.54900  0.85768  1.0000
  H   H1490     1.0  0.47859  0.73832  0.86670  1.0000
  C   C842      1.0  0.18441  0.55796  0.78802  1.0000
  C   C843      1.0  0.29041  0.56528  0.83373  1.0000
  C   C844      1.0  0.17000  0.54324  0.77391  1.0000
  H   H1491     1.0  0.29563  0.56644  0.96803  1.0000
  C   C845      1.0  0.03770  0.54272  0.83957  1.0000
  C   C846      1.0  0.03060  0.56855  0.83566  1.0000
  C   C847      1.0  0.05550  0.55241  0.89668  1.0000
  H   H1492     1.0  0.34846  0.63555  0.95750  1.0000
  H   H1493     1.0  0.21409  0.58510  0.74890  1.0000
  S   S183      1.0  0.40503  0.95966  0.76186  1.0000
  C   C848      1.0  0.37893  0.83689  0.87547  1.0000
  C   C849      1.0  0.29973  0.91446  0.75136  1.0000
  C   C850      1.0  0.99266  0.51794  0.85570  1.0000
  H   H1494     1.0  0.27459  0.53631  0.87014  1.0000
  C   C851      1.0  0.45591  0.73959  0.95729  1.0000
  H   H1495     1.0  0.31960  0.94699  0.79828  1.0000
  S   S184      1.0  0.04705  0.51534  0.75778  1.0000
  H   H1496     1.0  0.43577  0.74064  0.95993  1.0000
  H   H1497     1.0  0.14329  0.57550  0.79335  1.0000
  N   N48       1.0  0.25659  0.51891  0.84843  1.0000
  C   C852      1.0  0.05475  0.49706  0.85732  1.0000
  C   C853      1.0  0.18740  0.59224  0.80698  1.0000
  H   H1498     1.0  0.03669  0.53414  0.82645  1.0000
  H   H1499     1.0  0.46823  0.93895  0.83076  1.0000
  H   H1500     1.0  0.34355  0.55235  0.83023  1.0000
  C   C854      1.0  0.26797  0.51677  0.86624  1.0000
  C   C855      1.0  0.27654  0.53714  0.83117  1.0000
  H   H1501     1.0  0.40580  0.69903  0.97381  1.0000
  H   H1502     1.0  0.47873  0.71609  0.96708  1.0000
  C   C856      1.0  0.37695  0.82971  0.78245  1.0000
  H   H1503     1.0  0.36993  0.84146  0.77164  1.0000
  H   H1504     1.0  0.22826  0.53599  0.83873  1.0000
  H   H1505     1.0  0.98997  0.51400  0.84118  1.0000
  H   H1506     1.0  0.39444  0.84268  0.78621  1.0000
  H   H1507     1.0  0.15727  0.58545  0.76858  1.0000
  S   S185      1.0  0.36326  0.82606  0.89992  1.0000
  H   H1508     1.0  0.39697  0.65629  0.94895  1.0000
  C   C857      1.0  0.42144  0.58046  0.97449  1.0000
  Fe  Fe88      1.0  0.39782  0.55586  0.88297  1.0000
  H   H1509     1.0  0.35100  0.95506  0.78246  1.0000
  H   H1510     1.0  0.47643  0.57959  0.77135  1.0000
  H   H1511     1.0  0.29564  0.58619  0.80419  1.0000
  H   H1512     1.0  0.42921  0.92835  0.86926  1.0000
  C   C858      1.0  0.37904  0.55730  0.96872  1.0000
  Fe  Fe89      1.0  0.35284  0.49903  0.78111  1.0000
  H   H1513     1.0  0.30240  0.62562  0.96566  1.0000
  C   C859      1.0  0.30100  0.60609  0.97418  1.0000
  H   H1514     1.0  0.04587  0.60784  0.81781  1.0000
  H   H1515     1.0  0.47392  0.82031  0.88500  1.0000
  S   S186      1.0  0.10270  0.50864  0.76700  1.0000
  C   C860      1.0  0.30780  0.58237  0.81467  1.0000
  C   C861      1.0  0.42523  0.88740  0.89792  1.0000
  C   C862      1.0  0.37659  0.58573  0.78126  1.0000
  H   H1516     1.0  0.19581  0.54594  0.87287  1.0000
  H   H1517     1.0  0.01934  0.51417  0.88799  1.0000
  Fe  Fe90      1.0  0.41689  0.90298  0.79509  1.0000
  C   C863      1.0  0.40536  0.85600  0.83668  1.0000
  H   H1518     1.0  0.14871  0.54010  0.77809  1.0000
  C   C864      1.0  0.35461  0.53889  0.83229  1.0000
  C   C865      1.0  0.43363  0.49665  0.98057  1.0000
  H   H1519     1.0  0.18233  0.57668  0.96609  1.0000
  H   H1520     1.0  0.44683  0.61699  0.75702  1.0000
  H   H1521     1.0  0.31326  0.59284  0.94760  1.0000
  H   H1522     1.0  0.36986  0.55481  0.85527  1.0000
  C   C866      1.0  0.25985  0.74781  0.94352  1.0000
  H   H1523     1.0  0.25212  0.76377  0.94701  1.0000
  H   H1524     1.0  0.46755  0.90010  0.85425  1.0000
  C   C867      1.0  0.39392  0.82325  0.86654  1.0000
  C   C868      1.0  0.40704  0.83277  0.84716  1.0000
  H   H1525     1.0  0.39572  0.80558  0.87463  1.0000
  S   S187      1.0  0.42351  0.86832  0.81288  1.0000
  H   H1526     1.0  0.00944  0.59666  0.79663  1.0000
  H   H1527     1.0  0.34912  0.60265  0.95901  1.0000
  C   C869      1.0  0.26959  0.73606  0.96055  1.0000
  H   H1528     1.0  0.24429  0.73235  0.93969  1.0000
  H   H1529     1.0  0.44666  0.69723  0.96651  1.0000
  C   C870      1.0  0.23333  0.62620  0.73845  1.0000
  C   C871      1.0  0.46327  0.73836  0.93607  1.0000
  C   C872      1.0  0.18084  0.58604  0.97832  1.0000
  H   H1530     1.0  0.18291  0.52964  0.85464  1.0000
  H   H1531     1.0  0.26720  0.53879  0.81846  1.0000
  H   H1532     1.0  0.22729  0.60137  0.77632  1.0000
  C   C873      1.0  0.36968  0.54037  0.84646  1.0000
  C   C874      1.0  0.98081  0.58897  0.77864  1.0000
  H   H1533     1.0  0.42931  0.84618  0.88832  1.0000
  H   H1534     1.0  0.47577  0.81999  0.85970  1.0000
  H   H1535     1.0  0.31444  0.53144  0.87983  1.0000
  C   C875      1.0  0.27164  0.58405  0.95324  1.0000
  S   S188      1.0  0.40490  0.52646  0.86578  1.0000
  C   C876      1.0  0.38446  0.52336  0.84906  1.0000
  C   C877      1.0  0.47439  0.60816  0.73660  1.0000
  H   H1536     1.0  0.16850  0.58190  0.81745  1.0000
  H   H1537     1.0  0.38891  0.88749  0.83771  1.0000
  H   H1538     1.0  0.45551  0.85511  0.85591  1.0000
  Fe  Fe91      1.0  0.41476  0.95820  0.79103  1.0000
  H   H1539     1.0  0.41695  0.64146  0.96168  1.0000
  C   C878      1.0  0.46507  0.72084  0.87646  1.0000
  C   C879      1.0  0.20919  0.58493  0.81605  1.0000
  C   C880      1.0  0.13167  0.61894  0.77758  1.0000
  H   H1540     1.0  0.11487  0.60540  0.78882  1.0000
  C   C881      1.0  0.45790  0.71535  0.97075  1.0000
  H   H1541     1.0  0.06851  0.54225  0.87007  1.0000
  H   H1542     1.0  0.43305  0.92487  0.83472  1.0000
  C   C882      1.0  0.05271  0.54956  0.87618  1.0000
  Fe  Fe92      1.0  0.08824  0.54125  0.75525  1.0000
  H   H1543     1.0  0.25221  0.62572  0.74226  1.0000
  S   S189      1.0  0.35806  0.54819  0.95300  1.0000
  H   H1544     1.0  0.23058  0.64539  0.73986  1.0000
  C   C883      1.0  0.02486  0.53153  0.87586  1.0000
  H   H1545     1.0  0.47458  0.55702  0.81182  1.0000
  H   H1546     1.0  0.45108  0.50967  0.86378  1.0000
  S   S190      1.0  0.44821  0.94226  0.78395  1.0000
  H   H1547     1.0  0.41309  0.57836  0.94626  1.0000
  H   H1548     1.0  0.19245  0.60477  0.74666  1.0000
  H   H1549     1.0  0.39650  0.89456  0.93182  1.0000
  H   H1550     1.0  0.27238  0.60318  0.94467  1.0000
  H   H1551     1.0  0.06288  0.57560  0.75091  1.0000
  H   H1552     1.0  0.44915  0.51586  0.97484  1.0000
  H   H1553     1.0  0.29257  0.52914  0.82668  1.0000
  H   H1554     1.0  0.28645  0.75177  0.96269  1.0000
  C   C884      1.0  0.39399  0.87384  0.93072  1.0000
  H   H1555     1.0  0.41568  0.85036  0.91939  1.0000
  H   H1556     1.0  0.04070  0.56073  0.90330  1.0000
  C   C885      1.0  0.20985  0.51321  0.86765  1.0000
  C   C886      1.0  0.39815  0.63746  0.95672  1.0000
  S   S191      1.0  0.34942  0.50662  0.75023  1.0000
  C   C887      1.0  0.34865  0.61798  0.96765  1.0000
  H   H1557     1.0  0.47273  0.89370  0.90710  1.0000
  S   S192      1.0  0.33582  0.51886  0.80269  1.0000
  H   H1558     1.0  0.22884  0.59494  0.80665  1.0000
  H   H1559     1.0  0.40801  0.87934  0.89154  1.0000
  H   H1560     1.0  0.98412  0.57012  0.77711  1.0000
  H   H1561     1.0  0.06888  0.51211  0.84537  1.0000
  H   H1562     1.0  0.47016  0.54200  0.79128  1.0000
  C   C888      1.0  0.32580  0.92334  0.75316  1.0000
  C   C889      1.0  0.23468  0.53057  0.85236  1.0000
  C   C890      1.0  0.16030  0.58999  0.78278  1.0000
  H   H1563     1.0  0.20131  0.49379  0.86414  1.0000
  C   C891      1.0  0.47271  0.62022  0.82997  1.0000
  H   H1564     1.0  0.26662  0.65083  0.96907  1.0000
  H   H1565     1.0  0.27791  0.69105  0.98112  1.0000
  H   H1566     1.0  0.47456  0.64027  0.82233  1.0000
  H   H1567     1.0  0.23702  0.67903  0.96820  1.0000
  H   H1568     1.0  0.39470  0.49100  0.83966  1.0000
  H   H1569     1.0  0.46766  0.51009  0.82048  1.0000
  H   H1570     1.0  0.41117  0.50486  0.95908  1.0000
  H   H1571     1.0  0.22921  0.71549  0.97541  1.0000
  H   H1572     1.0  0.03024  0.59601  0.74246  1.0000
  C   C892      1.0  0.46472  0.82421  0.87255  1.0000
  H   H1573     1.0  0.46564  0.61858  0.84567  1.0000
  H   H1574     1.0  0.45694  0.85259  0.89921  1.0000
  H   H1575     1.0  0.19449  0.51801  0.77028  1.0000
  H   H1576     1.0  0.17115  0.51418  0.87990  1.0000
  H   H1577     1.0  0.25274  0.50432  0.87897  1.0000
  C   C893      1.0  0.23853  0.66814  0.98218  1.0000
  H   H1578     1.0  0.24463  0.74454  0.98283  1.0000
  C   C894      1.0  0.47294  0.90332  0.89221  1.0000
  H   H1579     1.0  0.47108  0.92290  0.89351  1.0000
  N   N49       1.0  0.32434  0.60879  0.98359  1.0000
  C   C895      1.0  0.06567  0.58634  0.73637  1.0000
  H   H1580     1.0  0.43490  0.48907  0.95163  1.0000
  H   H1581     1.0  0.48004  0.50199  0.85430  1.0000
  H   H1582     1.0  0.16557  0.50401  0.78960  1.0000
  H   H1583     1.0  0.16255  0.50593  0.76481  1.0000
  C   C896      1.0  0.24520  0.49211  0.84391  1.0000
  S   S193      1.0  0.05049  0.49046  0.80203  1.0000
  H   H1584     1.0  0.22864  0.49192  0.83648  1.0000
  C   C897      1.0  0.33528  0.98769  0.78301  1.0000
  H   H1585     1.0  0.02107  0.48944  0.84395  1.0000
  H   H1586     1.0  0.37656  0.63944  0.98372  1.0000
  Fe  Fe93      1.0  0.53495  0.26891  0.08310  1.0000
  H   H1587     1.0  0.56629  0.18843  0.06099  1.0000
  H   H1588     1.0  0.50954  0.38497  0.14023  1.0000
  C   C898      1.0  0.68987  0.47898  0.00102  1.0000
  H   H1589     1.0  0.61099  0.41834  0.98470  1.0000
  S   S194      1.0  0.78556  0.46174  0.20431  1.0000
  S   S195      1.0  0.56968  0.25973  0.01469  1.0000
  H   H1590     1.0  0.63304  0.47200  0.12080  1.0000
  S   S196      1.0  0.51687  0.41803  0.06569  1.0000
  S   S197      1.0  0.51677  0.43347  0.01921  1.0000
  C   C899      1.0  0.49675  0.36441  0.14147  1.0000
  H   H1591     1.0  0.52155  0.35537  0.99706  1.0000
  Fe  Fe94      1.0  0.54622  0.43821  0.03808  1.0000
  S   S198      1.0  0.58202  0.42651  0.02998  1.0000
  S   S199      1.0  0.54716  0.29606  0.10303  1.0000
  Fe  Fe95      1.0  0.72393  0.41255  0.10952  1.0000
  S   S200      1.0  0.71987  0.43533  0.08196  1.0000
  S   S201      1.0  0.75443  0.43185  0.12518  1.0000
  Fe  Fe96      1.0  0.68170  0.36335  0.10789  1.0000
  S   S202      1.0  0.67319  0.38187  0.08060  1.0000
  S   S203      1.0  0.66022  0.32060  0.12074  1.0000
  Fe  Fe97      1.0  0.71672  0.39857  0.07065  1.0000
  S   S204      1.0  0.73802  0.40003  0.04070  1.0000
  Fe  Fe98      1.0  0.67686  0.41723  0.09388  1.0000
  S   S205      1.0  0.65164  0.44359  0.09244  1.0000
  S   S206      1.0  0.72522  0.37732  0.09706  1.0000
  S   S207      1.0  0.68090  0.39701  0.12248  1.0000
  H   H1592     1.0  0.50095  0.40118  0.98548  1.0000
  N   N50       1.0  0.66450  0.48306  0.99761  1.0000
  Fe  Fe99      1.0  0.55144  0.44485  0.22349  1.0000
  C   C900      1.0  0.65608  0.32557  0.19054  1.0000
  H   H1593     1.0  0.49331  0.35506  0.18134  1.0000
  C   C901      1.0  0.65328  0.45657  0.22768  1.0000
  H   H1594     1.0  0.92250  0.46388  0.21979  1.0000
  C   C902      1.0  0.48594  0.33021  0.12196  1.0000
  C   C903      1.0  0.67433  0.47169  0.13530  1.0000
  H   H1595     1.0  0.54319  0.18395  0.99683  1.0000
  C   C904      1.0  0.63050  0.41592  0.98486  1.0000
  H   H1596     1.0  0.67197  0.33865  0.19586  1.0000
  C   C905      1.0  0.57902  0.30178  0.10691  1.0000
  C   C906      1.0  0.59334  0.32735  0.10737  1.0000
  C   C907      1.0  0.61858  0.33300  0.11088  1.0000
  C   C908      1.0  0.62923  0.31288  0.11505  1.0000
  C   C909      1.0  0.61490  0.28700  0.11486  1.0000
  C   C910      1.0  0.58988  0.28149  0.11038  1.0000
  H   H1597     1.0  0.58490  0.34288  0.10493  1.0000
  H   H1598     1.0  0.62955  0.35290  0.11095  1.0000
  H   H1599     1.0  0.62316  0.27133  0.11806  1.0000
  H   H1600     1.0  0.57871  0.26155  0.11025  1.0000
  C   C911      1.0  0.50035  0.12640  0.14132  1.0000
  C   C912      1.0  0.54624  0.39534  0.98861  1.0000
  S   S208      1.0  0.50200  0.22621  0.05038  1.0000
  H   H1601     1.0  0.49641  0.31743  0.05274  1.0000
  H   H1602     1.0  0.59882  0.47961  0.14608  1.0000
  C   C913      1.0  0.60116  0.43119  0.04744  1.0000
  C   C914      1.0  0.59722  0.44696  0.06059  1.0000
  C   C915      1.0  0.61288  0.45086  0.07436  1.0000
  C   C916      1.0  0.63256  0.43907  0.07492  1.0000
  C   C917      1.0  0.63678  0.42378  0.06150  1.0000
  C   C918      1.0  0.62096  0.41961  0.04793  1.0000
  H   H1603     1.0  0.72317  0.44947  0.00938  1.0000
  H   H1604     1.0  0.60955  0.46276  0.08469  1.0000
  H   H1605     1.0  0.65252  0.41552  0.06129  1.0000
  H   H1606     1.0  0.62431  0.40763  0.03767  1.0000
  H   H1607     1.0  0.64787  0.47841  0.02806  1.0000
  C   C919      1.0  0.67663  0.38405  0.01403  1.0000
  C   C920      1.0  0.69191  0.39029  0.02769  1.0000
  C   C921      1.0  0.71873  0.39364  0.02339  1.0000
  H   H1608     1.0  0.52813  0.99616  0.16970  1.0000
  H   H1609     1.0  0.51826  0.29739  0.98812  1.0000
  H   H1610     1.0  0.65586  0.38123  0.01752  1.0000
  H   H1611     1.0  0.68292  0.39267  0.04144  1.0000
  C   C922      1.0  0.73038  0.39186  0.00499  1.0000
  H   H1612     1.0  0.54567  0.39726  0.00387  1.0000
  C   C923      1.0  0.72785  0.46183  0.17843  1.0000
  H   H1613     1.0  0.59689  0.48606  0.11085  1.0000
  C   C924      1.0  0.76022  0.46558  0.14991  1.0000
  C   C925      1.0  0.74315  0.44407  0.14502  1.0000
  C   C926      1.0  0.71806  0.43186  0.15660  1.0000
  C   C927      1.0  0.71047  0.44068  0.17335  1.0000
  H   H1614     1.0  0.57020  0.18477  0.01826  1.0000
  Fe  Fe100     1.0  0.50206  0.44307  0.20827  1.0000
  H   H1615     1.0  0.70500  0.41490  0.15318  1.0000
  H   H1616     1.0  0.69171  0.43029  0.18289  1.0000
  Fe  Fe101     1.0  0.51495  0.47238  0.02475  1.0000
  H   H1617     1.0  0.64525  0.30820  0.20232  1.0000
  H   H1618     1.0  0.79410  0.44507  0.16992  1.0000
  C   C928      1.0  0.52727  0.23650  0.99973  1.0000
  Fe  Fe102     1.0  0.48742  0.41684  0.04709  1.0000
  C   C929      1.0  0.72656  0.38254  0.19293  1.0000
  H   H1619     1.0  0.86743  0.40913  0.20551  1.0000
  N   N51       1.0  0.64173  0.30672  0.04706  1.0000
  C   C930      1.0  0.67051  0.31528  0.04761  1.0000
  C   C931      1.0  0.63802  0.30720  0.02646  1.0000
  C   C932      1.0  0.63028  0.32640  0.05471  1.0000
  C   C933      1.0  0.62710  0.28007  0.05975  1.0000
  C   C934      1.0  0.63704  0.25718  0.05536  1.0000
  C   C935      1.0  0.67718  0.31479  0.06794  1.0000
  C   C936      1.0  0.60075  0.32160  0.05491  1.0000
  H   H1620     1.0  0.49413  0.21731  0.98845  1.0000
  H   H1621     1.0  0.54108  0.34497  0.21565  1.0000
  C   C937      1.0  0.62391  0.23258  0.07132  1.0000
  C   C938      1.0  0.70675  0.32292  0.06655  1.0000
  C   C939      1.0  0.59296  0.34595  0.05756  1.0000
  H   H1622     1.0  0.68029  0.33554  0.03880  1.0000
  H   H1623     1.0  0.68077  0.30299  0.04078  1.0000
  H   H1624     1.0  0.61831  0.29379  0.02633  1.0000
  H   H1625     1.0  0.63836  0.32713  0.01941  1.0000
  H   H1626     1.0  0.64150  0.34661  0.04636  1.0000
  H   H1627     1.0  0.63204  0.32671  0.06990  1.0000
  H   H1628     1.0  0.62656  0.28092  0.07522  1.0000
  H   H1629     1.0  0.60622  0.27410  0.05860  1.0000
  H   H1630     1.0  0.65845  0.26202  0.05423  1.0000
  H   H1631     1.0  0.63206  0.25214  0.04167  1.0000
  H   H1632     1.0  0.66997  0.32862  0.07531  1.0000
  H   H1633     1.0  0.66859  0.29483  0.07723  1.0000
  H   H1634     1.0  0.58878  0.30520  0.06703  1.0000
  H   H1635     1.0  0.59536  0.31616  0.04152  1.0000
  H   H1636     1.0  0.79869  0.38650  0.19749  1.0000
  H   H1637     1.0  0.66250  0.28245  0.01853  1.0000
  H   H1638     1.0  0.84369  0.39377  0.11927  1.0000
  C   C940      1.0  0.94428  0.43584  0.22519  1.0000
  H   H1639     1.0  0.49605  0.10585  0.14757  1.0000
  H   H1640     1.0  0.62896  0.23630  0.08530  1.0000
  H   H1641     1.0  0.60231  0.22648  0.07300  1.0000
  H   H1642     1.0  0.63079  0.21620  0.06762  1.0000
  H   H1643     1.0  0.71521  0.30909  0.06001  1.0000
  H   H1644     1.0  0.71635  0.34309  0.05771  1.0000
  H   H1645     1.0  0.71094  0.32276  0.08124  1.0000
  H   H1646     1.0  0.59972  0.35350  0.07001  1.0000
  H   H1647     1.0  0.60174  0.36178  0.04448  1.0000
  H   H1648     1.0  0.57132  0.34099  0.06009  1.0000
  C   C941      1.0  0.52665  0.14319  0.01380  1.0000
  C   C942      1.0  0.55396  0.33402  0.22083  1.0000
  C   C943      1.0  0.82246  0.38261  0.12237  1.0000
  N   N52       1.0  0.51322  0.15102  0.03093  1.0000
  C   C944      1.0  0.52218  0.46480  0.13058  1.0000
  H   H1649     1.0  0.83665  0.40547  0.15143  1.0000
  H   H1650     1.0  0.95259  0.42367  0.21647  1.0000
  H   H1651     1.0  0.81021  0.41564  0.12699  1.0000
  S   S209      1.0  0.55422  0.40850  0.21325  1.0000
  C   C945      1.0  0.55014  0.43933  0.13935  1.0000
  S   S210      1.0  0.56356  0.42453  0.15689  1.0000
  C   C946      1.0  0.55625  0.43713  0.12009  1.0000
  H   H1652     1.0  0.57293  0.21556  0.04079  1.0000
  H   H1653     1.0  0.60340  0.32139  0.99332  1.0000
  Fe  Fe103     1.0  0.75402  0.47831  0.21419  1.0000
  H   H1654     1.0  0.49291  0.32540  0.15811  1.0000
  C   C947      1.0  0.68817  0.45951  0.01980  1.0000
  H   H1655     1.0  0.51847  0.33969  0.18179  1.0000
  C   C948      1.0  0.53097  0.17430  0.03672  1.0000
  C   C949      1.0  0.48082  0.32157  0.10288  1.0000
  Fe  Fe104     1.0  0.51088  0.39253  0.22474  1.0000
  C   C950      1.0  0.80556  0.43666  0.16008  1.0000
  C   C951      1.0  0.92760  0.44825  0.21333  1.0000
  N   N53       1.0  0.80148  0.40832  0.16871  1.0000
  H   H1656     1.0  0.58201  0.45602  0.06029  1.0000
  H   H1657     1.0  0.48450  0.32876  0.99442  1.0000
  H   H1658     1.0  0.84439  0.42643  0.21108  1.0000
  C   C952      1.0  0.63207  0.45729  0.15904  1.0000
  H   H1659     1.0  0.84760  0.44840  0.14651  1.0000
  H   H1660     1.0  0.48827  0.11126  0.04350  1.0000
  C   C953      1.0  0.51179  0.35406  0.17289  1.0000
  N   N54       1.0  0.49327  0.35928  0.12167  1.0000
  C   C954      1.0  0.64230  0.43723  0.17064  1.0000
  C   C955      1.0  0.62054  0.41806  0.18680  1.0000
  C   C956      1.0  0.49655  0.38032  0.99273  1.0000
  H   H1661     1.0  0.62971  0.40363  0.99895  1.0000
  H   H1662     1.0  0.66641  0.45397  0.12930  1.0000
  H   H1663     1.0  0.68484  0.46519  0.14616  1.0000
  H   H1664     1.0  0.61974  0.46441  0.16950  1.0000
  H   H1665     1.0  0.61813  0.44524  0.15160  1.0000
  H   H1666     1.0  0.53471  0.13141  0.06303  1.0000
  H   H1667     1.0  0.76898  0.37210  0.17644  1.0000
  H   H1668     1.0  0.54183  0.24925  0.16872  1.0000
  H   H1669     1.0  0.66516  0.31898  0.17804  1.0000
  H   H1670     1.0  0.90391  0.39201  0.21840  1.0000
  C   C957      1.0  0.49672  0.13393  0.12257  1.0000
  H   H1671     1.0  0.56991  0.34759  0.22579  1.0000
  C   C958      1.0  0.51281  0.17970  0.12445  1.0000
  C   C959      1.0  0.64927  0.29620  0.99355  1.0000
  H   H1672     1.0  0.64971  0.42554  0.16100  1.0000
  H   H1673     1.0  0.65834  0.44695  0.17727  1.0000
  H   H1674     1.0  0.60373  0.40783  0.18084  1.0000
  H   H1675     1.0  0.62809  0.40323  0.19431  1.0000
  H   H1676     1.0  0.61371  0.42873  0.19752  1.0000
  C   C960      1.0  0.83941  0.40666  0.18690  1.0000
  H   H1677     1.0  0.78580  0.38404  0.13697  1.0000
  H   H1678     1.0  0.71595  0.46475  0.11293  1.0000
  C   C961      1.0  0.53455  0.16383  0.99455  1.0000
  H   H1679     1.0  0.94789  0.44615  0.18512  1.0000
  H   H1680     1.0  0.59580  0.19756  0.04259  1.0000
  H   H1681     1.0  0.51402  0.37159  0.09189  1.0000
  H   H1682     1.0  0.67722  0.31699  0.00838  1.0000
  H   H1683     1.0  0.58522  0.36719  0.00373  1.0000
  S   S211      1.0  0.49373  0.24166  0.09234  1.0000
  C   C962      1.0  0.84672  0.40840  0.20650  1.0000
  S   S212      1.0  0.53081  0.28677  0.05382  1.0000
  C   C963      1.0  0.94259  0.46094  0.19262  1.0000
  H   H1684     1.0  0.51761  0.20030  0.11803  1.0000
  H   H1685     1.0  0.76154  0.39906  0.20274  1.0000
  H   H1686     1.0  0.63886  0.44423  0.01126  1.0000
  H   H1687     1.0  0.81925  0.36197  0.12951  1.0000
  C   C964      1.0  0.81517  0.39571  0.15483  1.0000
  H   H1688     1.0  0.60973  0.35515  0.01241  1.0000
  H   H1689     1.0  0.49309  0.37990  0.00857  1.0000
  H   H1690     1.0  0.53582  0.11177  0.04474  1.0000
  H   H1691     1.0  0.63084  0.27942  0.99656  1.0000
  H   H1692     1.0  0.50150  0.32218  0.12581  1.0000
  S   S213      1.0  0.54724  0.47897  0.04115  1.0000
  S   S214      1.0  0.51089  0.47350  0.09484  1.0000
  C   C965      1.0  0.51740  0.37447  0.10642  1.0000
  C   C966      1.0  0.54312  0.36906  0.10880  1.0000
  C   C967      1.0  0.50258  0.12764  0.04765  1.0000
  S   S215      1.0  0.48297  0.45552  0.05111  1.0000
  S   S216      1.0  0.54482  0.46429  0.19555  1.0000
  C   C968      1.0  0.56480  0.38419  0.09110  1.0000
  C   C969      1.0  0.51528  0.22443  0.98609  1.0000
  H   H1693     1.0  0.71873  0.38318  0.17951  1.0000
  C   C970      1.0  0.64439  0.45775  0.99702  1.0000
  H   H1694     1.0  0.83417  0.39092  0.21760  1.0000
  H   H1695     1.0  0.52424  0.18698  0.15111  1.0000
  H   H1696     1.0  0.81210  0.37495  0.16181  1.0000
  C   C971      1.0  0.50916  0.09192  0.07164  1.0000
  C   C972      1.0  0.52731  0.46159  0.11153  1.0000
  H   H1697     1.0  0.62592  0.46123  0.99457  1.0000
  H   H1698     1.0  0.52170  0.39578  0.10580  1.0000
  H   H1699     1.0  0.54103  0.34791  0.11041  1.0000
  H   H1700     1.0  0.54944  0.37623  0.12151  1.0000
  C   C973      1.0  0.75267  0.47436  0.16661  1.0000
  C   C974      1.0  0.59118  0.34942  0.00723  1.0000
  C   C975      1.0  0.56059  0.17694  0.03372  1.0000
  H   H1701     1.0  0.50945  0.47589  0.13467  1.0000
  C   C976      1.0  0.75481  0.40075  0.18891  1.0000
  C   C977      1.0  0.65849  0.30044  0.01226  1.0000
  H   H1702     1.0  0.58419  0.38369  0.09369  1.0000
  H   H1703     1.0  0.56108  0.37571  0.07827  1.0000
  H   H1704     1.0  0.56569  0.40507  0.08794  1.0000
  C   C978      1.0  0.59563  0.33786  0.98939  1.0000
  H   H1705     1.0  0.54923  0.44606  0.09142  1.0000
  Fe  Fe105     1.0  0.51524  0.45849  0.06732  1.0000
  H   H1706     1.0  0.57568  0.33480  0.01884  1.0000
  C   C979      1.0  0.51653  0.17214  0.14318  1.0000
  H   H1707     1.0  0.48923  0.11911  0.11458  1.0000
  H   H1708     1.0  0.80684  0.42092  0.19551  1.0000
  C   C980      1.0  0.81049  0.40568  0.18768  1.0000
  S   S217      1.0  0.51460  0.13660  0.17533  1.0000
  H   H1709     1.0  0.54433  0.13836  0.01660  1.0000
  H   H1710     1.0  0.81596  0.38254  0.10842  1.0000
  C   C981      1.0  0.57468  0.19579  0.04527  1.0000
  H   H1711     1.0  0.52604  0.34409  0.14636  1.0000
  C   C982      1.0  0.71519  0.45754  0.02144  1.0000
  C   C983      1.0  0.54594  0.27057  0.16312  1.0000
  Fe  Fe106     1.0  0.50982  0.21314  0.07933  1.0000
  C   C984      1.0  0.50288  0.16057  0.11413  1.0000
  C   C985      1.0  0.51020  0.14548  0.15170  1.0000
  H   H1712     1.0  0.61163  0.48428  0.01399  1.0000
  H   H1713     1.0  0.90899  0.43378  0.21274  1.0000
  H   H1714     1.0  0.52406  0.08475  0.07765  1.0000
  C   C986      1.0  0.72021  0.48548  0.11453  1.0000
  H   H1715     1.0  0.66965  0.45045  0.23214  1.0000
  C   C987      1.0  0.50738  0.34546  0.15403  1.0000
  C   C988      1.0  0.77244  0.39369  0.17268  1.0000
  H   H1716     1.0  0.52374  0.17434  0.05211  1.0000
  Fe  Fe107     1.0  0.54403  0.42636  0.18640  1.0000
  C   C989      1.0  0.80677  0.39543  0.13509  1.0000
  C   C990      1.0  0.55452  0.24508  0.99723  1.0000
  S   S218      1.0  0.71921  0.47163  0.20007  1.0000
  H   H1717     1.0  0.52809  0.27583  0.16801  1.0000
  H   H1718     1.0  0.79755  0.43824  0.14680  1.0000
  H   H1719     1.0  0.68085  0.46603  0.03288  1.0000
  H   H1720     1.0  0.53016  0.19317  0.02863  1.0000
  H   H1721     1.0  0.84224  0.38843  0.18307  1.0000
  H   H1722     1.0  0.72546  0.36203  0.19881  1.0000
  N   N55       1.0  0.59549  0.33507  0.17071  1.0000
  C   C991      1.0  0.61537  0.32280  0.17684  1.0000
  C   C992      1.0  0.57623  0.31629  0.16217  1.0000
  C   C993      1.0  0.61025  0.35927  0.15517  1.0000
  C   C994      1.0  0.58142  0.34373  0.18707  1.0000
  C   C995      1.0  0.56520  0.32209  0.20484  1.0000
  C   C996      1.0  0.63776  0.34052  0.18447  1.0000
  C   C997      1.0  0.59339  0.37238  0.14409  1.0000
  C   C998      1.0  0.56901  0.28641  0.17058  1.0000
  H   H1723     1.0  0.86729  0.35059  0.22925  1.0000
  C   C999      1.0  0.52215  0.37345  0.98713  1.0000
  C   C1000     1.0  0.68817  0.38163  0.99586  1.0000
  C   C1001     1.0  0.61079  0.39638  0.12888  1.0000
  H   H1724     1.0  0.62477  0.31620  0.16436  1.0000
  H   H1725     1.0  0.60589  0.30479  0.18826  1.0000
  H   H1726     1.0  0.55782  0.32152  0.16274  1.0000
  H   H1727     1.0  0.58427  0.31818  0.14661  1.0000
  H   H1728     1.0  0.62427  0.35459  0.14428  1.0000
  H   H1729     1.0  0.62238  0.37488  0.16136  1.0000
  H   H1730     1.0  0.59540  0.35928  0.19209  1.0000
  H   H1731     1.0  0.56740  0.35319  0.18199  1.0000
  H   H1732     1.0  0.57723  0.31084  0.21090  1.0000
  H   H1733     1.0  0.54827  0.30857  0.20086  1.0000
  H   H1734     1.0  0.64999  0.35787  0.17313  1.0000
  H   H1735     1.0  0.62982  0.34732  0.19722  1.0000
  H   H1736     1.0  0.58016  0.37908  0.15396  1.0000
  H   H1737     1.0  0.58130  0.35879  0.13652  1.0000
  H   H1738     1.0  0.58594  0.27956  0.16595  1.0000
  H   H1739     1.0  0.56383  0.28155  0.18653  1.0000
  H   H1740     1.0  0.71362  0.44421  0.03528  1.0000
  H   H1741     1.0  0.52695  0.37357  0.16993  1.0000
  C   C1002     1.0  0.53315  0.45329  0.14455  1.0000
  Fe  Fe108     1.0  0.49052  0.25781  0.06250  1.0000
  H   H1742     1.0  0.51528  0.23969  0.01190  1.0000
  H   H1743     1.0  0.49485  0.36316  0.05004  1.0000
  H   H1744     1.0  0.55053  0.27430  0.14709  1.0000
  S   S219      1.0  0.55169  0.23916  0.07225  1.0000
  H   H1745     1.0  0.55901  0.30864  0.99332  1.0000
  H   H1746     1.0  0.62330  0.39066  0.11774  1.0000
  H   H1747     1.0  0.59856  0.40605  0.12155  1.0000
  H   H1748     1.0  0.62345  0.41085  0.13554  1.0000
  C   C1003     1.0  0.49015  0.15820  0.02525  1.0000
  H   H1749     1.0  0.52842  0.45528  0.15933  1.0000
  N   N56       1.0  0.65211  0.48016  0.14454  1.0000
  C   C1004     1.0  0.83391  0.45564  0.15557  1.0000
  S   S220      1.0  0.51112  0.06365  0.20056  1.0000
  S   S221      1.0  0.49740  0.16945  0.09089  1.0000
  S   S222      1.0  0.50087  0.40670  0.19687  1.0000
  H   H1750     1.0  0.76440  0.39730  0.15953  1.0000
  Fe  Fe109     1.0  0.54283  0.25400  0.04371  1.0000
  C   C1005     1.0  0.54471  0.44809  0.10621  1.0000
  H   H1751     1.0  0.49713  0.17682  0.01417  1.0000
  H   H1752     1.0  0.75443  0.42107  0.18458  1.0000
  H   H1753     1.0  0.85342  0.42355  0.17613  1.0000
  H   H1754     1.0  0.56979  0.42693  0.11585  1.0000
  Fe  Fe110     1.0  0.49312  0.09473  0.19102  1.0000
  H   H1755     1.0  0.48621  0.28363  0.11172  1.0000
  H   H1756     1.0  0.56409  0.15804  0.03804  1.0000
  H   H1757     1.0  0.84045  0.45841  0.16925  1.0000
  H   H1758     1.0  0.71414  0.38900  0.20373  1.0000
  H   H1759     1.0  0.67523  0.43953  0.01998  1.0000
  Fe  Fe111     1.0  0.48299  0.05605  0.22886  1.0000
  C   C1006     1.0  0.63877  0.48821  0.12874  1.0000
  H   H1760     1.0  0.75118  0.39471  0.00150  1.0000
  H   H1761     1.0  0.72904  0.47708  0.02134  1.0000
  H   H1762     1.0  0.49713  0.07615  0.06557  1.0000
  C   C1007     1.0  0.52281  0.11679  0.05601  1.0000
  H   H1763     1.0  0.69915  0.47178  0.98899  1.0000
  H   H1764     1.0  0.49159  0.13260  0.06021  1.0000
  H   H1765     1.0  0.51364  0.12467  0.01115  1.0000
  H   H1766     1.0  0.67083  0.48640  0.18058  1.0000
  H   H1767     1.0  0.64594  0.31412  0.98623  1.0000
  H   H1768     1.0  0.54202  0.31818  0.23337  1.0000
  C   C1008     1.0  0.65766  0.48563  0.22779  1.0000
  H   H1769     1.0  0.77944  0.47540  0.14081  1.0000
  H   H1770     1.0  0.49906  0.32909  0.09151  1.0000
  H   H1771     1.0  0.96153  0.45260  0.22566  1.0000
  C   C1009     1.0  0.71515  0.38603  0.99117  1.0000
  H   H1772     1.0  0.51699  0.16344  0.98837  1.0000
  H   H1773     1.0  0.89807  0.34556  0.23172  1.0000
  H   H1774     1.0  0.96067  0.47697  0.19254  1.0000
  H   H1775     1.0  0.83009  0.48158  0.13050  1.0000
  H   H1776     1.0  0.93016  0.46958  0.18456  1.0000
  H   H1777     1.0  0.49643  0.09609  0.08365  1.0000
  H   H1778     1.0  0.53397  0.00686  0.22024  1.0000
  H   H1779     1.0  0.65240  0.45320  0.21288  1.0000
  C   C1010     1.0  0.83556  0.48276  0.14471  1.0000
  H   H1780     1.0  0.49030  0.41167  0.10918  1.0000
  H   H1781     1.0  0.73070  0.48834  0.12651  1.0000
  H   H1782     1.0  0.55780  0.34068  0.98470  1.0000
  H   H1783     1.0  0.50921  0.46064  0.98474  1.0000
  H   H1784     1.0  0.57289  0.16004  0.98443  1.0000
  S   S223      1.0  0.90827  0.12099  0.40032  1.0000
  Fe  Fe112     1.0  0.76916  0.01956  0.40781  1.0000
  H   H1785     1.0  0.92213  0.12940  0.46303  1.0000
  S   S224      1.0  0.78800  0.06324  0.40500  1.0000
  H   H1786     1.0  0.80364  0.47220  0.36928  1.0000
  C   C1011     1.0  0.93092  0.31597  0.29841  1.0000
  S   S225      1.0  0.96550  0.42679  0.32573  1.0000
  H   H1787     1.0  0.89497  0.43023  0.24642  1.0000
  H   H1788     1.0  0.87513  0.34610  0.25274  1.0000
  H   H1789     1.0  0.79367  0.35672  0.25061  1.0000
  H   H1790     1.0  0.91395  0.09392  0.46614  1.0000
  H   H1791     1.0  0.88528  0.30284  0.40528  1.0000
  H   H1792     1.0  0.50510  0.42500  0.34753  1.0000
  C   C1012     1.0  0.91859  0.39136  0.24516  1.0000
  C   C1013     1.0  0.53886  0.04655  0.25121  1.0000
  S   S226      1.0  0.86239  0.36862  0.28761  1.0000
  S   S227      1.0  0.94456  0.17485  0.42511  1.0000
  H   H1793     1.0  0.53197  0.05545  0.32807  1.0000
  H   H1794     1.0  0.76760  0.44422  0.35701  1.0000
  H   H1795     1.0  0.85264  0.41915  0.28051  1.0000
  C   C1014     1.0  0.87874  0.31132  0.37644  1.0000
  H   H1796     1.0  0.87378  0.31449  0.34708  1.0000
  Fe  Fe113     1.0  0.91960  0.21925  0.38995  1.0000
  H   H1797     1.0  0.83754  0.04103  0.44046  1.0000
  H   H1798     1.0  0.65519  0.05492  0.34354  1.0000
  C   C1015     1.0  0.91508  0.11226  0.45632  1.0000
  C   C1016     1.0  0.82443  0.03512  0.45497  1.0000
  H   H1799     1.0  0.82452  0.17410  0.44556  1.0000
  H   H1800     1.0  0.52198  0.47099  0.33845  1.0000
  H   H1801     1.0  0.64514  0.09867  0.26537  1.0000
  H   H1802     1.0  0.92033  0.29474  0.30428  1.0000
  S   S228      1.0  0.58331  0.01401  0.28108  1.0000
  H   H1803     1.0  0.88251  0.09344  0.44479  1.0000
  S   S229      1.0  0.81379  0.48284  0.23853  1.0000
  H   H1804     1.0  0.80976  0.07883  0.45700  1.0000
  H   H1805     1.0  0.76434  0.37939  0.32120  1.0000
  C   C1017     1.0  0.51496  0.03862  0.26449  1.0000
  C   C1018     1.0  0.51219  0.02299  0.28259  1.0000
  C   C1019     1.0  0.53303  0.01508  0.28744  1.0000
  C   C1020     1.0  0.55711  0.02339  0.27444  1.0000
  S   S230      1.0  0.85000  0.45349  0.34413  1.0000
  S   S231      1.0  0.72530  0.00951  0.41309  1.0000
  H   H1806     1.0  0.97981  0.28307  0.33625  1.0000
  H   H1807     1.0  0.53043  0.00275  0.30139  1.0000
  H   H1808     1.0  0.79594  0.15801  0.43695  1.0000
  C   C1021     1.0  0.48862  0.45552  0.28002  1.0000
  H   H1809     1.0  0.79682  0.38563  0.32635  1.0000
  S   S232      1.0  0.50876  0.42738  0.23709  1.0000
  C   C1022     1.0  0.69948  0.05346  0.35288  1.0000
  S   S233      1.0  0.89173  0.18457  0.41197  1.0000
  H   H1810     1.0  0.50884  0.48167  0.29628  1.0000
  C   C1023     1.0  0.82429  0.36250  0.26671  1.0000
  H   H1811     1.0  0.96366  0.38687  0.25621  1.0000
  C   C1024     1.0  0.50812  0.07376  0.31284  1.0000
  H   H1812     1.0  0.67396  0.48208  0.25344  1.0000
  H   H1813     1.0  0.96177  0.44253  0.25748  1.0000
  C   C1025     1.0  0.80596  0.39633  0.25509  1.0000
  C   C1026     1.0  0.94354  0.37239  0.37370  1.0000
  H   H1814     1.0  0.62609  0.07421  0.29854  1.0000
  H   H1815     1.0  0.48853  0.11585  0.31740  1.0000
  C   C1027     1.0  0.75776  0.46049  0.31481  1.0000
  S   S234      1.0  0.49205  0.35191  0.24291  1.0000
  N   N57       1.0  0.93086  0.42000  0.24534  1.0000
  H   H1816     1.0  0.61260  0.03038  0.36398  1.0000
  C   C1028     1.0  0.75273  0.02768  0.48050  1.0000
  C   C1029     1.0  0.48730  0.41828  0.34163  1.0000
  H   H1817     1.0  0.74195  0.42484  0.30405  1.0000
  H   H1818     1.0  0.66188  0.02970  0.27878  1.0000
  H   H1819     1.0  0.53618  0.38219  0.28932  1.0000
  C   C1030     1.0  0.97228  0.40861  0.25218  1.0000
  H   H1820     1.0  0.93322  0.33006  0.35705  1.0000
  C   C1031     1.0  0.56385  0.48678  0.33132  1.0000
  C   C1032     1.0  0.73780  0.01091  0.47046  1.0000
  C   C1033     1.0  0.49161  0.47654  0.26224  1.0000
  C   C1034     1.0  0.95304  0.20693  0.46654  1.0000
  C   C1035     1.0  0.78538  0.43263  0.32309  1.0000
  H   H1821     1.0  0.66425  0.08015  0.31287  1.0000
  C   C1036     1.0  0.48821  0.43703  0.32271  1.0000
  H   H1822     1.0  0.81294  0.42614  0.30037  1.0000
  C   C1037     1.0  0.53701  0.45462  0.31439  1.0000
  H   H1823     1.0  0.96777  0.34797  0.37621  1.0000
  H   H1824     1.0  0.94136  0.41268  0.27322  1.0000
  H   H1825     1.0  0.68914  0.03738  0.36567  1.0000
  H   H1826     1.0  0.52247  0.07686  0.29918  1.0000
  C   C1038     1.0  0.65939  0.01716  0.30978  1.0000
  H   H1827     1.0  0.73780  0.01799  0.45551  1.0000
  H   H1828     1.0  0.89955  0.41682  0.26903  1.0000
  C   C1039     1.0  0.87483  0.10474  0.40164  1.0000
  C   C1040     1.0  0.85648  0.11813  0.40347  1.0000
  C   C1041     1.0  0.82995  0.10500  0.40464  1.0000
  C   C1042     1.0  0.82148  0.07833  0.40389  1.0000
  C   C1043     1.0  0.83971  0.06476  0.40208  1.0000
  C   C1044     1.0  0.86637  0.07797  0.40099  1.0000
  H   H1829     1.0  0.86267  0.13864  0.40386  1.0000
  H   H1830     1.0  0.81589  0.11549  0.40619  1.0000
  H   H1831     1.0  0.83329  0.04417  0.40144  1.0000
  H   H1832     1.0  0.88047  0.06746  0.39955  1.0000
  C   C1045     1.0  0.66069  0.06390  0.30481  1.0000
  H   H1833     1.0  0.82799  0.15966  0.42452  1.0000
  H   H1834     1.0  0.69550  0.07177  0.35537  1.0000
  H   H1835     1.0  0.94876  0.35090  0.30823  1.0000
  C   C1046     1.0  0.97315  0.21045  0.47683  1.0000
  H   H1836     1.0  0.81989  0.04833  0.48156  1.0000
  H   H1837     1.0  0.90185  0.26579  0.39981  1.0000
  C   C1047     1.0  0.77333  0.46587  0.35226  1.0000
  C   C1048     1.0  0.62073  0.02761  0.32460  1.0000
  H   H1838     1.0  0.82473  0.34254  0.26792  1.0000
  H   H1839     1.0  0.56739  0.47036  0.34062  1.0000
  H   H1840     1.0  0.54111  0.05865  0.23719  1.0000
  H   H1841     1.0  0.67505  0.09090  0.26588  1.0000
  H   H1842     1.0  0.79118  0.37891  0.30326  1.0000
  H   H1843     1.0  0.92545  0.35665  0.38191  1.0000
  H   H1844     1.0  0.94835  0.31823  0.28715  1.0000
  H   H1845     1.0  0.78091  0.42006  0.29530  1.0000
  C   C1049     1.0  0.97301  0.31073  0.35487  1.0000
  H   H1846     1.0  0.91114  0.37981  0.26029  1.0000
  H   H1847     1.0  0.82259  0.43410  0.26186  1.0000
  H   H1848     1.0  0.76414  0.04757  0.47321  1.0000
  C   C1050     1.0  0.53764  0.47736  0.32520  1.0000
  H   H1849     1.0  0.49376  0.01658  0.29289  1.0000
  C   C1051     1.0  0.83285  0.05574  0.46700  1.0000
  H   H1850     1.0  0.68110  0.02282  0.30659  1.0000
  N   N58       1.0  0.51244  0.44367  0.30711  1.0000
  H   H1851     1.0  0.82572  0.01613  0.46222  1.0000
  C   C1052     1.0  0.51353  0.41889  0.30043  1.0000
  H   H1852     1.0  0.67449  0.00647  0.47943  1.0000
  C   C1053     1.0  0.95238  0.34478  0.34950  1.0000
  H   H1853     1.0  0.52477  0.15063  0.25379  1.0000
  Fe  Fe114     1.0  0.87481  0.38711  0.31213  1.0000
  C   C1054     1.0  0.96339  0.36055  0.36434  1.0000
  C   C1055     1.0  0.53579  0.42272  0.28285  1.0000
  C   C1056     1.0  0.53522  0.39675  0.27700  1.0000
  C   C1057     1.0  0.66068  0.03957  0.33683  1.0000
  C   C1058     1.0  0.95108  0.42164  0.25778  1.0000
  C   C1059     1.0  0.89722  0.26923  0.37032  1.0000
  H   H1854     1.0  0.54118  0.43881  0.32396  1.0000
  S   S235      1.0  0.74935  0.46051  0.24534  1.0000
  H   H1855     1.0  0.51712  0.38885  0.27176  1.0000
  Fe  Fe115     1.0  0.91778  0.19820  0.43221  1.0000
  Fe  Fe116     1.0  0.92020  0.16345  0.40339  1.0000
  H   H1856     1.0  0.93727  0.47070  0.24766  1.0000
  H   H1857     1.0  0.95693  0.45786  0.29200  1.0000
  H   H1858     1.0  0.70155  0.06246  0.32225  1.0000
  C   C1060     1.0  0.82302  0.41414  0.26322  1.0000
  H   H1859     1.0  0.75956  0.45344  0.28513  1.0000
  Fe  Fe117     1.0  0.87006  0.42351  0.33915  1.0000
  H   H1860     1.0  0.59129  0.04764  0.32846  1.0000
  C   C1061     1.0  0.51118  0.46419  0.29083  1.0000
  H   H1861     1.0  0.53379  0.43586  0.27019  1.0000
  H   H1862     1.0  0.88424  0.46001  0.27512  1.0000
  C   C1062     1.0  0.80673  0.37056  0.25688  1.0000
  H   H1863     1.0  0.89959  0.46741  0.35639  1.0000
  H   H1864     1.0  0.48524  0.39821  0.33904  1.0000
  H   H1865     1.0  0.65145  0.02094  0.34782  1.0000
  H   H1866     1.0  0.55531  0.43122  0.28610  1.0000
  C   C1063     1.0  0.64323  0.07012  0.29070  1.0000
  C   C1064     1.0  0.92075  0.45791  0.25925  1.0000
  C   C1065     1.0  0.88837  0.11063  0.45159  1.0000
  H   H1867     1.0  0.95201  0.38422  0.38384  1.0000
  N   N59       1.0  0.83333  0.18815  0.36225  1.0000
  C   C1066     1.0  0.83292  0.19538  0.34111  1.0000
  C   C1067     1.0  0.80890  0.16580  0.37276  1.0000
  C   C1068     1.0  0.83330  0.21195  0.37081  1.0000
  C   C1069     1.0  0.85763  0.18137  0.36514  1.0000
  C   C1070     1.0  0.86253  0.15847  0.35634  1.0000
  C   C1071     1.0  0.85664  0.21844  0.32858  1.0000
  C   C1072     1.0  0.83175  0.20839  0.39292  1.0000
  C   C1073     1.0  0.79708  0.14472  0.36140  1.0000
  C   C1074     1.0  0.77459  0.12198  0.37455  1.0000
  C   C1075     1.0  0.89032  0.15773  0.35653  1.0000
  C   C1076     1.0  0.85468  0.22257  0.30735  1.0000
  C   C1077     1.0  0.82654  0.23174  0.40037  1.0000
  H   H1868     1.0  0.81484  0.20059  0.33967  1.0000
  H   H1869     1.0  0.83170  0.17844  0.33402  1.0000
  H   H1870     1.0  0.81249  0.15539  0.38620  1.0000
  H   H1871     1.0  0.79265  0.17356  0.37764  1.0000
  H   H1872     1.0  0.81680  0.21893  0.36746  1.0000
  H   H1873     1.0  0.85147  0.22861  0.36425  1.0000
  H   H1874     1.0  0.87521  0.19887  0.35956  1.0000
  H   H1875     1.0  0.85734  0.17599  0.38079  1.0000
  H   H1876     1.0  0.86032  0.16016  0.34115  1.0000
  H   H1877     1.0  0.84874  0.13949  0.36505  1.0000
  H   H1878     1.0  0.85740  0.23719  0.33318  1.0000
  H   H1879     1.0  0.87540  0.21456  0.32937  1.0000
  H   H1880     1.0  0.85062  0.20714  0.39630  1.0000
  H   H1881     1.0  0.81586  0.19051  0.40113  1.0000
  H   H1882     1.0  0.78894  0.15344  0.34974  1.0000
  H   H1883     1.0  0.81182  0.13648  0.35476  1.0000
  H   H1884     1.0  0.75852  0.12904  0.38074  1.0000
  H   H1885     1.0  0.76670  0.10703  0.36617  1.0000
  H   H1886     1.0  0.78155  0.11233  0.38651  1.0000
  H   H1887     1.0  0.89437  0.15740  0.37125  1.0000
  H   H1888     1.0  0.89272  0.13977  0.35193  1.0000
  H   H1889     1.0  0.90494  0.17523  0.34652  1.0000
  H   H1890     1.0  0.85491  0.20476  0.30156  1.0000
  H   H1891     1.0  0.83645  0.22714  0.30563  1.0000
  H   H1892     1.0  0.87167  0.23933  0.29878  1.0000
  H   H1893     1.0  0.84123  0.25051  0.39212  1.0000
  H   H1894     1.0  0.80670  0.23242  0.39904  1.0000
  H   H1895     1.0  0.82776  0.22989  0.41582  1.0000
  C   C1078     1.0  0.89583  0.27639  0.38827  1.0000
  H   H1896     1.0  0.49312  0.00340  0.24194  1.0000
  H   H1897     1.0  0.63551  0.05371  0.28359  1.0000
  Fe  Fe118     1.0  0.87587  0.37048  0.35446  1.0000
  H   H1898     1.0  0.49923  0.04901  0.34156  1.0000
  H   H1899     1.0  0.49455  0.40833  0.29708  1.0000
  Fe  Fe119     1.0  0.96781  0.21084  0.40252  1.0000
  H   H1900     1.0  0.53001  0.47186  0.28002  1.0000
  H   H1901     1.0  0.55423  0.46235  0.30217  1.0000
  S   S236      1.0  0.86755  0.33778  0.38045  1.0000
  H   H1902     1.0  0.62173  0.06582  0.33289  1.0000
  H   H1903     1.0  0.97748  0.26375  0.44875  1.0000
  H   H1904     1.0  0.72362  0.47225  0.29173  1.0000
  H   H1905     1.0  0.61154  0.02460  0.31205  1.0000
  C   C1079     1.0  0.81295  0.13127  0.45183  1.0000
  C   C1080     1.0  0.84009  0.40574  0.27370  1.0000
  H   H1906     1.0  0.69662  0.02845  0.33255  1.0000
  H   H1907     1.0  0.72085  0.05672  0.35126  1.0000
  S   S237      1.0  0.90259  0.37215  0.32698  1.0000
  C   C1081     1.0  0.74616  0.44636  0.29948  1.0000
  H   H1908     1.0  0.55216  0.40007  0.26501  1.0000
  S   S238      1.0  0.94636  0.19709  0.37982  1.0000
  H   H1909     1.0  0.64015  0.47957  0.25749  1.0000
  C   C1082     1.0  0.79177  0.41803  0.30694  1.0000
  C   C1083     1.0  0.81559  0.15742  0.43892  1.0000
  H   H1910     1.0  0.93835  0.38544  0.36257  1.0000
  H   H1911     1.0  0.94339  0.29703  0.33263  1.0000
  H   H1912     1.0  0.83869  0.46514  0.30469  1.0000
  S   S239      1.0  0.90182  0.19674  0.46335  1.0000
  H   H1913     1.0  0.85314  0.05721  0.46842  1.0000
  H   H1914     1.0  0.76636  0.42028  0.33272  1.0000
  C   C1084     1.0  0.83339  0.48240  0.29846  1.0000
  H   H1915     1.0  0.84108  0.08746  0.44206  1.0000
  H   H1916     1.0  0.61403  0.00753  0.33396  1.0000
  H   H1917     1.0  0.84983  0.14750  0.46046  1.0000
  S   S240      1.0  0.94259  0.23516  0.41118  1.0000
  H   H1918     1.0  0.80024  0.43226  0.33212  1.0000
  Fe  Fe120     1.0  0.92187  0.41407  0.32804  1.0000
  S   S241      1.0  0.78302  0.40489  0.24281  1.0000
  H   H1919     1.0  0.75750  0.48119  0.31155  1.0000
  H   H1920     1.0  0.85221  0.13301  0.44013  1.0000
  H   H1921     1.0  0.48525  0.45523  0.32641  1.0000
  H   H1922     1.0  0.92088  0.32770  0.32491  1.0000
  H   H1923     1.0  0.71194  0.43994  0.28664  1.0000
  H   H1924     1.0  0.81145  0.47463  0.33481  1.0000
  C   C1085     1.0  0.91024  0.43017  0.25497  1.0000
  N   N60       1.0  0.78489  0.46034  0.31681  1.0000
  H   H1925     1.0  0.68158  0.99385  0.28232  1.0000
  H   H1926     1.0  0.58995  0.04887  0.36331  1.0000
  H   H1927     1.0  0.80391  0.03232  0.45336  1.0000
  H   H1928     1.0  0.80067  0.46436  0.28616  1.0000
  C   C1086     1.0  0.59735  0.03454  0.35659  1.0000
  H   H1929     1.0  0.51054  0.11972  0.28602  1.0000
  C   C1087     1.0  0.65834  0.09439  0.27488  1.0000
  N   N61       1.0  0.65025  0.03743  0.31857  1.0000
  H   H1930     1.0  0.92836  0.45662  0.27265  1.0000
  H   H1931     1.0  0.77203  0.47172  0.38168  1.0000
  H   H1932     1.0  0.51620  0.40473  0.31229  1.0000
  C   C1088     1.0  0.88006  0.30403  0.35853  1.0000
  H   H1933     1.0  0.95344  0.29793  0.36359  1.0000
  H   H1934     1.0  0.89097  0.12861  0.44078  1.0000
  C   C1089     1.0  0.84070  0.37986  0.27544  1.0000
  H   H1935     1.0  0.80351  0.11545  0.44466  1.0000
  C   C1090     1.0  0.56009  0.03919  0.25629  1.0000
  H   H1936     1.0  0.92941  0.11474  0.44277  1.0000
  H   H1937     1.0  0.89014  0.27742  0.34162  1.0000
  H   H1938     1.0  0.95738  0.20643  0.45145  1.0000
  C   C1091     1.0  0.51113  0.05126  0.32698  1.0000
  S   S242      1.0  0.84623  0.38204  0.33963  1.0000
  H   H1939     1.0  0.58076  0.01611  0.35896  1.0000
  C   C1092     1.0  0.89943  0.47089  0.26200  1.0000
  C   C1093     1.0  0.88922  0.28298  0.35550  1.0000
  S   S243      1.0  0.89695  0.41160  0.35668  1.0000
  H   H1940     1.0  0.57868  0.04552  0.24613  1.0000
  C   C1094     1.0  0.86797  0.10857  0.46995  1.0000
  C   C1095     1.0  0.80388  0.47499  0.29804  1.0000
  H   H1941     1.0  0.66574  0.11175  0.28128  1.0000
  C   C1096     1.0  0.69076  0.04600  0.33467  1.0000
  N   N62       1.0  0.84035  0.10507  0.46726  1.0000
  H   H1942     1.0  0.84803  0.47975  0.26900  1.0000
  H   H1943     1.0  0.70595  0.44421  0.31121  1.0000
  H   H1944     1.0  0.68034  0.06628  0.29610  1.0000
  C   C1097     1.0  0.83078  0.08250  0.45746  1.0000
  H   H1945     1.0  0.79972  0.12939  0.46575  1.0000
  H   H1946     1.0  0.65225  0.99807  0.32027  1.0000
  S   S244      1.0  0.89675  0.42948  0.31045  1.0000
  S   S245      1.0  0.90885  0.24325  0.36575  1.0000
  C   C1098     1.0  0.84018  0.12999  0.45479  1.0000
  C   C1099     1.0  0.60807  0.04563  0.33496  1.0000
  H   H1947     1.0  0.94762  0.35896  0.33899  1.0000
  C   C1100     1.0  0.78561  0.38871  0.31502  1.0000
  C   C1101     1.0  0.88641  0.29732  0.39136  1.0000
  C   C1102     1.0  0.79224  0.47552  0.33218  1.0000
  H   H1948     1.0  0.74337  0.45079  0.32861  1.0000
  C   C1103     1.0  0.72031  0.45102  0.29721  1.0000
  H   H1949     1.0  0.86835  0.09251  0.48143  1.0000
  H   H1950     1.0  0.96652  0.25781  0.36971  1.0000
  C   C1104     1.0  0.65174  0.01210  0.29048  1.0000
  H   H1951     1.0  0.51034  0.48007  0.25192  1.0000
  H   H1952     1.0  0.87566  0.12694  0.47524  1.0000
  C   C1105     1.0  0.92755  0.20409  0.47577  1.0000
  S   S246      1.0  0.48830  0.04847  0.25943  1.0000
  C   C1106     1.0  0.93908  0.32976  0.31457  1.0000
  C   C1107     1.0  0.78614  0.47828  0.36756  1.0000
  H   H1953     1.0  0.53209  0.98878  0.24395  1.0000
  H   H1954     1.0  0.75540  0.47159  0.35177  1.0000
  C   C1108     1.0  0.95661  0.31714  0.32523  1.0000
  C   C1109     1.0  0.48750  0.11899  0.26371  1.0000
  S   S247      1.0  0.58037  0.46212  0.24109  1.0000
  H   H1955     1.0  0.63038  0.00696  0.29151  1.0000
  H   H1956     1.0  0.50493  0.03251  0.32198  1.0000
  C   C1110     1.0  0.49481  0.10505  0.28162  1.0000
  H   H1957     1.0  0.58898  0.48317  0.27463  1.0000
  H   H1958     1.0  0.91760  0.32488  0.29163  1.0000
  S   S248      1.0  0.77147  0.99439  0.38575  1.0000
  H   H1959     1.0  0.65822  0.48239  0.28563  1.0000
  C   C1111     1.0  0.89476  0.48512  0.35215  1.0000
  N   N63       1.0  0.96967  0.33124  0.33953  1.0000
  H   H1960     1.0  0.63450  0.44425  0.23756  1.0000
  H   H1961     1.0  0.88031  0.39275  0.23896  1.0000
  H   H1962     1.0  0.48909  0.32661  0.28157  1.0000
  H   H1963     1.0  0.50445  0.09151  0.27581  1.0000
  H   H1964     1.0  0.97155  0.31407  0.31412  1.0000
  H   H1965     1.0  0.51377  0.09166  0.31886  1.0000
  C   C1112     1.0  0.87147  0.48373  0.34581  1.0000
  H   H1966     1.0  0.89026  0.47180  0.24921  1.0000
  C   C1113     1.0  0.51190  0.13485  0.24823  1.0000
  H   H1967     1.0  0.50602  0.14400  0.23543  1.0000
  H   H1968     1.0  0.52299  0.12179  0.24350  1.0000
  H   H1969     1.0  0.48814  0.43715  0.27498  1.0000
  Fe  Fe121     1.0  0.78348  0.44688  0.23551  1.0000
  C   C1114     1.0  0.88347  0.35487  0.23717  1.0000
  H   H1970     1.0  0.93345  0.38324  0.23836  1.0000
  C   C1115     1.0  0.66001  0.98934  0.28444  1.0000
  C   C1116     1.0  0.97771  0.46238  0.29105  1.0000
  C   C1117     1.0  0.89608  0.38460  0.23413  1.0000
  H   H1971     1.0  0.96320  0.11797  0.48292  1.0000
  Fe  Fe122     1.0  0.94003  0.19075  0.57707  1.0000
  S   S249      1.0  0.95187  0.22879  0.55529  1.0000
  S   S250      1.0  0.89632  0.16920  0.58508  1.0000
  H   H1972     1.0  0.56390  0.21781  0.65678  1.0000
  H   H1973     1.0  0.78380  0.10264  0.64419  1.0000
  H   H1974     1.0  0.91736  0.12610  0.59010  1.0000
  H   H1975     1.0  0.57289  0.26763  0.69019  1.0000
  H   H1976     1.0  0.69458  0.02392  0.50493  1.0000
  Fe  Fe123     1.0  0.81689  0.03252  0.56706  1.0000
  S   S251      1.0  0.78317  0.04739  0.56323  1.0000
  S   S252      1.0  0.85745  0.05331  0.57108  1.0000
  H   H1977     1.0  0.65477  0.08985  0.69742  1.0000
  H   H1978     1.0  0.63062  0.05898  0.70988  1.0000
  C   C1118     1.0  0.63382  0.07796  0.69994  1.0000
  Fe  Fe124     1.0  0.77785  0.02278  0.54070  1.0000
  S   S253      1.0  0.77196  0.04042  0.51191  1.0000
  H   H1979     1.0  0.90162  0.03826  0.50534  1.0000
  H   H1980     1.0  0.77489  0.12232  0.62620  1.0000
  C   C1119     1.0  0.96220  0.12724  0.51194  1.0000
  C   C1120     1.0  0.65814  0.01246  0.52742  1.0000
  H   H1981     1.0  0.61958  0.00862  0.59712  1.0000
  S   S254      1.0  0.60677  0.41254  0.69646  1.0000
  H   H1982     1.0  0.64891  0.44626  0.66588  1.0000
  C   C1121     1.0  0.55480  0.46440  0.61101  1.0000
  C   C1122     1.0  0.92257  0.20608  0.49517  1.0000
  H   H1983     1.0  0.79672  0.04880  0.60306  1.0000
  H   H1984     1.0  0.65908  0.02900  0.48816  1.0000
  C   C1123     1.0  0.53858  0.40672  0.60972  1.0000
  H   H1985     1.0  0.51924  0.21049  0.64340  1.0000
  H   H1986     1.0  0.58933  0.99446  0.58986  1.0000
  C   C1124     1.0  0.63399  0.45572  0.66789  1.0000
  Fe  Fe125     1.0  0.58721  0.10402  0.63890  1.0000
  S   S255      1.0  0.58733  0.09183  0.61041  1.0000
  S   S256      1.0  0.59498  0.14694  0.63967  1.0000
  Fe  Fe126     1.0  0.57749  0.04827  0.66010  1.0000
  S   S257      1.0  0.57686  0.03147  0.63326  1.0000
  S   S258      1.0  0.57255  0.02500  0.69013  1.0000
  Fe  Fe127     1.0  0.61182  0.06727  0.61982  1.0000
  S   S259      1.0  0.64735  0.07100  0.59695  1.0000
  Fe  Fe128     1.0  0.55253  0.05746  0.62614  1.0000
  S   S260      1.0  0.61439  0.08210  0.64728  1.0000
  S   S261      1.0  0.55064  0.07174  0.65398  1.0000
  C   C1125     1.0  0.57322  0.15907  0.65351  1.0000
  C   C1126     1.0  0.57731  0.18614  0.64958  1.0000
  H   H1987     1.0  0.59320  0.19883  0.63804  1.0000
  H   H1988     1.0  0.57474  0.44687  0.69609  1.0000
  C   C1127     1.0  0.70453  0.02495  0.60548  1.0000
  H   H1989     1.0  0.96710  0.14570  0.51763  1.0000
  H   H1990     1.0  0.73447  0.09255  0.62606  1.0000
  H   H1991     1.0  0.82305  0.14330  0.64100  1.0000
  H   H1992     1.0  0.61287  0.99929  0.55664  1.0000
  H   H1993     1.0  0.94251  0.45473  0.71464  1.0000
  H   H1994     1.0  0.61006  0.40562  0.62553  1.0000
  S   S262      1.0  0.81391  0.01148  0.54253  1.0000
  H   H1995     1.0  0.49284  0.16458  0.65579  1.0000
  C   C1128     1.0  0.53673  0.15377  0.67986  1.0000
  H   H1996     1.0  0.53801  0.45725  0.68593  1.0000
  C   C1129     1.0  0.80298  0.05565  0.61591  1.0000
  H   H1997     1.0  0.89078  0.40869  0.65564  1.0000
  C   C1130     1.0  0.87399  0.40477  0.71377  1.0000
  H   H1998     1.0  0.53830  0.41961  0.59623  1.0000
  H   H1999     1.0  0.90222  0.43360  0.63362  1.0000
  H   H2000     1.0  0.82874  0.03177  0.61641  1.0000
  H   H2001     1.0  0.92324  0.15452  0.50628  1.0000
  C   C1131     1.0  0.54443  0.45382  0.64629  1.0000
  H   H2002     1.0  0.97611  0.08148  0.56434  1.0000
  H   H2003     1.0  0.52920  0.00433  0.67246  1.0000
  C   C1132     1.0  0.52791  0.43314  0.66470  1.0000
  H   H2004     1.0  0.57548  0.31813  0.70359  1.0000
  H   H2005     1.0  0.78822  0.10664  0.51698  1.0000
  C   C1133     1.0  0.66397  0.03361  0.61730  1.0000
  C   C1134     1.0  0.66965  0.05397  0.60121  1.0000
  C   C1135     1.0  0.69307  0.06014  0.58750  1.0000
  C   C1136     1.0  0.71036  0.04556  0.58955  1.0000
  C   C1137     1.0  0.54589  0.12812  0.60002  1.0000
  H   H2006     1.0  0.64595  0.02873  0.62793  1.0000
  H   H2007     1.0  0.69759  0.07601  0.57510  1.0000
  H   H2008     1.0  0.72823  0.05031  0.57885  1.0000
  C   C1138     1.0  0.68146  0.01919  0.61945  1.0000
  H   H2009     1.0  0.86825  0.41370  0.64062  1.0000
  H   H2010     1.0  0.54285  0.31840  0.70660  1.0000
  H   H2011     1.0  0.90304  0.20464  0.50226  1.0000
  S   S263      1.0  0.93506  0.36687  0.67400  1.0000
  C   C1139     1.0  0.88523  0.13690  0.58140  1.0000
  C   C1140     1.0  0.86147  0.12807  0.57540  1.0000
  C   C1141     1.0  0.85216  0.10217  0.57265  1.0000
  C   C1142     1.0  0.86653  0.08498  0.57614  1.0000
  C   C1143     1.0  0.88993  0.09367  0.58254  1.0000
  C   C1144     1.0  0.89936  0.11958  0.58504  1.0000
  H   H2012     1.0  0.85058  0.14154  0.57246  1.0000
  H   H2013     1.0  0.83432  0.09572  0.56742  1.0000
  H   H2014     1.0  0.90083  0.08028  0.58554  1.0000
  S   S264      1.0  0.96060  0.30978  0.66088  1.0000
  H   H2015     1.0  0.81248  0.12947  0.52586  1.0000
  Fe  Fe129     1.0  0.94863  0.37376  0.70127  1.0000
  H   H2016     1.0  0.94430  0.07679  0.57902  1.0000
  H   H2017     1.0  0.95243  0.07941  0.53657  1.0000
  S   S265      1.0  0.51704  0.04588  0.61268  1.0000
  C   C1145     1.0  0.53043  0.06840  0.70496  1.0000
  C   C1146     1.0  0.88763  0.04909  0.50891  1.0000
  C   C1147     1.0  0.69900  0.06108  0.53195  1.0000
  H   H2018     1.0  0.53853  0.41975  0.66978  1.0000
  H   H2019     1.0  0.64971  0.03899  0.55500  1.0000
  H   H2020     1.0  0.86192  0.47814  0.67170  1.0000
  H   H2021     1.0  0.69823  0.05419  0.67523  1.0000
  C   C1148     1.0  0.72735  0.07906  0.52754  1.0000
  C   C1149     1.0  0.94379  0.47924  0.68727  1.0000
  S   S266      1.0  0.96655  0.20726  0.59654  1.0000
  C   C1150     1.0  0.63706  0.47966  0.65564  1.0000
  C   C1151     1.0  0.95675  0.10924  0.55390  1.0000
  H   H2022     1.0  0.52098  0.16725  0.63752  1.0000
  H   H2023     1.0  0.70440  0.03335  0.55435  1.0000
  Fe  Fe130     1.0  0.49886  0.17426  0.71797  1.0000
  C   C1152     1.0  0.69680  0.03244  0.54091  1.0000
  H   H2024     1.0  0.55708  0.13827  0.58519  1.0000
  Fe  Fe131     1.0  0.96558  0.40581  0.66046  1.0000
  H   H2025     1.0  0.82467  0.08207  0.49630  1.0000
  H   H2026     1.0  0.69428  0.04198  0.65352  1.0000
  H   H2027     1.0  0.68743  0.06916  0.54208  1.0000
  H   H2028     1.0  0.69202  0.06226  0.51822  1.0000
  H   H2029     1.0  0.56080  0.23812  0.73277  1.0000
  H   H2030     1.0  0.58948  0.22857  0.69547  1.0000
  H   H2031     1.0  0.53487  0.46565  0.61015  1.0000
  H   H2032     1.0  0.53057  0.08814  0.69812  1.0000
  C   C1153     1.0  0.81258  0.03473  0.62642  1.0000
  H   H2033     1.0  0.97833  0.11883  0.51370  1.0000
  H   H2034     1.0  0.51833  0.12716  0.63458  1.0000
  H   H2035     1.0  0.57912  0.42330  0.65755  1.0000
  H   H2036     1.0  0.71108  0.02620  0.53141  1.0000
  H   H2037     1.0  0.60533  0.24322  0.71342  1.0000
  H   H2038     1.0  0.72814  0.09973  0.52262  1.0000
  H   H2039     1.0  0.73590  0.07777  0.54061  1.0000
  C   C1154     1.0  0.56996  0.34363  0.67015  1.0000
  H   H2040     1.0  0.60817  0.02840  0.57998  1.0000
  C   C1155     1.0  0.77963  0.05982  0.62907  1.0000
  H   H2041     1.0  0.58724  0.28065  0.70856  1.0000
  H   H2042     1.0  0.50359  0.03580  0.65407  1.0000
  H   H2043     1.0  0.54925  0.12187  0.67131  1.0000
  N   N64       1.0  0.55303  0.44398  0.62849  1.0000
  H   H2044     1.0  0.86322  0.45802  0.69301  1.0000
  C   C1156     1.0  0.87936  0.44387  0.65725  1.0000
  H   H2045     1.0  0.54952  0.11741  0.71575  1.0000
  Fe  Fe132     1.0  0.57030  0.39919  0.71970  1.0000
  H   H2046     1.0  0.86845  0.03451  0.51646  1.0000
  H   H2047     1.0  0.66167  0.02285  0.57300  1.0000
  H   H2048     1.0  0.58421  0.05653  0.71775  1.0000
  H   H2049     1.0  0.90001  0.38607  0.70042  1.0000
  C   C1157     1.0  0.54050  0.18083  0.67543  1.0000
  C   C1158     1.0  0.94278  0.20954  0.50554  1.0000
  N   N65       1.0  0.90123  0.48011  0.67540  1.0000
  H   H2050     1.0  0.54640  0.22550  0.71394  1.0000
  H   H2051     1.0  0.84650  0.15506  0.61835  1.0000
  H   H2052     1.0  0.88230  0.07724  0.52586  1.0000
  S   S267      1.0  0.53068  0.39302  0.71261  1.0000
  C   C1159     1.0  0.82708  0.12180  0.49812  1.0000
  H   H2053     1.0  0.51599  0.24326  0.71146  1.0000
  H   H2054     1.0  0.90366  0.46210  0.70382  1.0000
  H   H2055     1.0  0.65317  0.03082  0.52346  1.0000
  C   C1160     1.0  0.61143  0.44371  0.68241  1.0000
  H   H2056     1.0  0.89323  0.16014  0.53424  1.0000
  H   H2057     1.0  0.92088  0.46257  0.65507  1.0000
  C   C1161     1.0  0.74183  0.07584  0.63029  1.0000
  H   H2058     1.0  0.89888  0.05540  0.53536  1.0000
  C   C1162     1.0  0.55266  0.14279  0.66851  1.0000
  C   C1163     1.0  0.73355  0.06775  0.65264  1.0000
  C   C1164     1.0  0.58147  0.41827  0.64314  1.0000
  H   H2059     1.0  0.86705  0.40962  0.70081  1.0000
  C   C1165     1.0  0.65230  0.01980  0.56049  1.0000
  H   H2060     1.0  0.52104  0.14124  0.69158  1.0000
  C   C1166     1.0  0.53887  0.27726  0.73182  1.0000
  C   C1167     1.0  0.56382  0.23945  0.71695  1.0000
  H   H2061     1.0  0.88500  0.05996  0.49537  1.0000
  H   H2062     1.0  0.61027  0.40031  0.65099  1.0000
  H   H2063     1.0  0.59379  0.45911  0.63004  1.0000
  C   C1168     1.0  0.60816  0.41408  0.63864  1.0000
  C   C1169     1.0  0.77393  0.08727  0.60011  1.0000
  C   C1170     1.0  0.70376  0.05943  0.65921  1.0000
  C   C1171     1.0  0.48283  0.15542  0.62868  1.0000
  C   C1172     1.0  0.96808  0.21146  0.49640  1.0000
  C   C1173     1.0  0.82529  0.14635  0.62507  1.0000
  C   C1174     1.0  0.76439  0.10941  0.59049  1.0000
  H   H2064     1.0  0.56158  0.46693  0.65029  1.0000
  S   S268      1.0  0.51938  0.19517  0.68763  1.0000
  C   C1175     1.0  0.75310  0.01872  0.49979  1.0000
  C   C1176     1.0  0.77218  0.11435  0.56848  1.0000
  H   H2065     1.0  0.56653  0.39927  0.64377  1.0000
  H   H2066     1.0  0.76319  0.06875  0.59610  1.0000
  H   H2067     1.0  0.79465  0.09163  0.59287  1.0000
  H   H2068     1.0  0.54148  0.10661  0.60108  1.0000
  C   C1177     1.0  0.50670  0.20015  0.63436  1.0000
  H   H2069     1.0  0.78448  0.06090  0.64352  1.0000
  H   H2070     1.0  0.62427  0.43291  0.63626  1.0000
  C   C1178     1.0  0.52047  0.44632  0.68114  1.0000
  H   H2071     1.0  0.86865  0.13027  0.53278  1.0000
  H   H2072     1.0  0.81756  0.12473  0.60305  1.0000
  H   H2073     1.0  0.87436  0.45838  0.64721  1.0000
  H   H2074     1.0  0.74271  0.10386  0.59436  1.0000
  H   H2075     1.0  0.77303  0.12816  0.59490  1.0000
  C   C1179     1.0  0.56081  0.19690  0.66027  1.0000
  H   H2076     1.0  0.57369  0.11613  0.69640  1.0000
  H   H2077     1.0  0.58334  0.20998  0.71975  1.0000
  H   H2078     1.0  0.94495  0.12033  0.56062  1.0000
  H   H2079     1.0  0.48940  0.26912  0.72106  1.0000
  H   H2080     1.0  0.87916  0.15835  0.51315  1.0000
  C   C1180     1.0  0.57974  0.44086  0.62790  1.0000
  H   H2081     1.0  0.79384  0.12093  0.56366  1.0000
  H   H2082     1.0  0.76359  0.09621  0.56327  1.0000
  H   H2083     1.0  0.76477  0.12994  0.56193  1.0000
  H   H2084     1.0  0.81318  0.09632  0.52680  1.0000
  C   C1181     1.0  0.48763  0.04157  0.62879  1.0000
  C   C1182     1.0  0.97935  0.46761  0.64122  1.0000
  C   C1183     1.0  0.61659  0.09293  0.70864  1.0000
  H   H2085     1.0  0.62928  0.07388  0.68592  1.0000
  C   C1184     1.0  0.58726  0.07741  0.71128  1.0000
  C   C1185     1.0  0.58703  0.22986  0.71095  1.0000
  H   H2086     1.0  0.60631  0.18053  0.70665  1.0000
  H   H2087     1.0  0.50990  0.46010  0.67662  1.0000
  C   C1186     1.0  0.62427  0.00009  0.56820  1.0000
  H   H2088     1.0  0.95081  0.14475  0.48597  1.0000
  C   C1187     1.0  0.59223  0.45608  0.68492  1.0000
  H   H2089     1.0  0.50105  0.09957  0.62637  1.0000
  H   H2090     1.0  0.73052  0.05940  0.62440  1.0000
  H   H2091     1.0  0.58382  0.07734  0.69639  1.0000
  H   H2092     1.0  0.69623  0.07567  0.65409  1.0000
  C   C1188     1.0  0.95413  0.47441  0.70561  1.0000
  C   C1189     1.0  0.78487  0.10717  0.62836  1.0000
  S   S269      1.0  0.72647  0.00717  0.60889  1.0000
  H   H2093     1.0  0.54237  0.06107  0.69462  1.0000
  H   H2094     1.0  0.97487  0.47503  0.70162  1.0000
  C   C1190     1.0  0.67515  0.00853  0.50933  1.0000
  C   C1191     1.0  0.91504  0.47957  0.69211  1.0000
  H   H2095     1.0  0.82574  0.10755  0.62371  1.0000
  H   H2096     1.0  0.74206  0.08444  0.65936  1.0000
  H   H2097     1.0  0.76337  0.04095  0.63130  1.0000
  H   H2098     1.0  0.81984  0.07380  0.61070  1.0000
  H   H2099     1.0  0.90410  0.44062  0.67710  1.0000
  H   H2100     1.0  0.60798  0.13645  0.71710  1.0000
  H   H2101     1.0  0.51750  0.36605  0.62447  1.0000
  C   C1192     1.0  0.96407  0.27307  0.61580  1.0000
  C   C1193     1.0  0.80909  0.11294  0.51816  1.0000
  H   H2102     1.0  0.55595  0.35326  0.67618  1.0000
  H   H2103     1.0  0.49542  0.05014  0.69506  1.0000
  H   H2104     1.0  0.63916  0.99635  0.53044  1.0000
  C   C1194     1.0  0.50171  0.17057  0.64012  1.0000
  C   C1195     1.0  0.96261  0.09166  0.57025  1.0000
  C   C1196     1.0  0.60951  0.00845  0.58478  1.0000
  C   C1197     1.0  0.88558  0.42375  0.64612  1.0000
  C   C1198     1.0  0.56870  0.26791  0.70585  1.0000
  H   H2105     1.0  0.79648  0.01572  0.63132  1.0000
  N   N66       1.0  0.66976  0.01260  0.54520  1.0000
  N   N67       1.0  0.77073  0.08287  0.62178  1.0000
  H   H2106     1.0  0.86169  0.43325  0.66881  1.0000
  H   H2107     1.0  0.48142  0.35237  0.70476  1.0000
  H   H2108     1.0  0.55786  0.40336  0.60838  1.0000
  H   H2109     1.0  0.56217  0.45878  0.59747  1.0000
  C   C1199     1.0  0.58836  0.13851  0.71729  1.0000
  C   C1200     1.0  0.89253  0.39136  0.71358  1.0000
  H   H2110     1.0  0.95633  0.25333  0.61356  1.0000
  H   H2111     1.0  0.93863  0.21045  0.52061  1.0000
  H   H2112     1.0  0.81525  0.16052  0.62013  1.0000
  H   H2113     1.0  0.73991  0.05094  0.65835  1.0000
  C   C1201     1.0  0.52351  0.26399  0.70339  1.0000
  S   S270      1.0  0.79245  0.99666  0.58935  1.0000
  C   C1202     1.0  0.81427  0.12030  0.61898  1.0000
  C   C1203     1.0  0.90263  0.45695  0.66630  1.0000
  H   H2114     1.0  0.94571  0.46365  0.67934  1.0000
  N   N68       1.0  0.93618  0.10815  0.52351  1.0000
  C   C1204     1.0  0.92417  0.08866  0.51192  1.0000
  H   H2115     1.0  0.84748  0.12808  0.50017  1.0000
  C   C1205     1.0  0.94145  0.09274  0.54104  1.0000
  C   C1206     1.0  0.91783  0.12254  0.53054  1.0000
  C   C1207     1.0  0.90726  0.13717  0.51504  1.0000
  C   C1208     1.0  0.89741  0.06777  0.52204  1.0000
  H   H2116     1.0  0.53227  0.46654  0.64310  1.0000
  C   C1209     1.0  0.59539  0.48011  0.67266  1.0000
  C   C1210     1.0  0.90075  0.38420  0.73056  1.0000
  C   C1211     1.0  0.88579  0.14704  0.52446  1.0000
  H   H2117     1.0  0.58801  0.43850  0.61332  1.0000
  H   H2118     1.0  0.97500  0.22778  0.68371  1.0000
  H   H2119     1.0  0.93808  0.07803  0.50739  1.0000
  H   H2120     1.0  0.92097  0.09877  0.49833  1.0000
  C   C1212     1.0  0.54033  0.00428  0.69998  1.0000
  C   C1213     1.0  0.55972  0.31398  0.67826  1.0000
  N   N69       1.0  0.54678  0.27928  0.71040  1.0000
  H   H2121     1.0  0.92279  0.07987  0.55084  1.0000
  H   H2122     1.0  0.90073  0.10879  0.54142  1.0000
  H   H2123     1.0  0.92745  0.13759  0.53833  1.0000
  H   H2124     1.0  0.89869  0.12452  0.50544  1.0000
  H   H2125     1.0  0.52583  0.15647  0.60210  1.0000
  S   S271      1.0  0.96903  0.17497  0.56127  1.0000
  H   H2126     1.0  0.62134  0.11200  0.69841  1.0000
  C   C1214     1.0  0.52049  0.13480  0.60410  1.0000
  Fe  Fe133     1.0  0.96824  0.35026  0.66808  1.0000
  C   C1215     1.0  0.73809  0.99299  0.50913  1.0000
  H   H2127     1.0  0.59907  0.16244  0.68807  1.0000
  C   C1216     1.0  0.55615  0.30799  0.70055  1.0000
  C   C1217     1.0  0.48367  0.10825  0.66570  1.0000
  H   H2128     1.0  0.52924  0.40332  0.64045  1.0000
  H   H2129     1.0  0.97269  0.22758  0.65888  1.0000
  H   H2130     1.0  0.55832  0.13452  0.61040  1.0000
  C   C1218     1.0  0.95704  0.27889  0.63395  1.0000
  C   C1219     1.0  0.48696  0.03825  0.64854  1.0000
  H   H2131     1.0  0.73929  0.07356  0.51586  1.0000
  S   S272      1.0  0.84301  0.43051  0.73064  1.0000
  H   H2132     1.0  0.69867  0.99456  0.57196  1.0000
  H   H2133     1.0  0.57242  0.34755  0.65420  1.0000
  C   C1220     1.0  0.87308  0.47762  0.68334  1.0000
  H   H2134     1.0  0.97089  0.25572  0.66910  1.0000
  H   H2135     1.0  0.57392  0.30516  0.67148  1.0000
  H   H2136     1.0  0.48920  0.05743  0.71876  1.0000
  H   H2137     1.0  0.50737  0.43117  0.69363  1.0000
  C   C1221     1.0  0.59178  0.16388  0.70311  1.0000
  Fe  Fe134     1.0  0.75826  0.00974  0.58365  1.0000
  H   H2138     1.0  0.94396  0.26346  0.64563  1.0000
  C   C1222     1.0  0.51777  0.38025  0.61146  1.0000
  C   C1223     1.0  0.54080  0.06861  0.72387  1.0000
  H   H2139     1.0  0.50059  0.02995  0.71545  1.0000
  H   H2140     1.0  0.58925  0.35251  0.67373  1.0000
  C   C1224     1.0  0.96537  0.13531  0.48973  1.0000
  H   H2141     1.0  0.50504  0.29564  0.70051  1.0000
  C   C1225     1.0  0.50216  0.05034  0.70887  1.0000
  H   H2142     1.0  0.50919  0.42111  0.66189  1.0000
  C   C1226     1.0  0.52290  0.99713  0.68792  1.0000
  S   S273      1.0  0.95697  0.43737  0.64084  1.0000
  C   C1227     1.0  0.53277  0.41889  0.62748  1.0000
  C   C1228     1.0  0.49954  0.27412  0.70563  1.0000
  H   H2143     1.0  0.52938  0.26266  0.68807  1.0000
  H   H2144     1.0  0.82012  0.04101  0.63904  1.0000
  S   S274      1.0  0.50699  0.44658  0.73188  1.0000
  H   H2145     1.0  0.97199  0.10388  0.57989  1.0000
  H   H2146     1.0  0.52211  0.37203  0.59852  1.0000
  H   H2147     1.0  0.54088  0.30621  0.67379  1.0000
  C   C1229     1.0  0.66191  0.00955  0.49207  1.0000
  H   H2148     1.0  0.51698  0.20764  0.61899  1.0000
  C   C1230     1.0  0.49104  0.48223  0.64085  1.0000
  H   H2149     1.0  0.97572  0.12342  0.54561  1.0000
  H   H2150     1.0  0.51366  0.42239  0.62761  1.0000
  H   H2151     1.0  0.49806  0.38267  0.61241  1.0000
  H   H2152     1.0  0.57290  0.16809  0.70405  1.0000
  N   N70       1.0  0.56780  0.08743  0.72255  1.0000
  C   C1231     1.0  0.98034  0.24011  0.66892  1.0000
  H   H2153     1.0  0.82843  0.47522  0.70956  1.0000
  C   C1232     1.0  0.53203  0.99473  0.72002  1.0000
  H   H2154     1.0  0.82311  0.13911  0.49041  1.0000
  C   C1233     1.0  0.50474  0.12116  0.62488  1.0000
  S   S275      1.0  0.92362  0.36712  0.73079  1.0000
  H   H2155     1.0  0.67698  0.00342  0.63191  1.0000
  H   H2156     1.0  0.50931  0.12823  0.59312  1.0000
  C   C1234     1.0  0.56904  0.11444  0.71233  1.0000
  H   H2157     1.0  0.62200  0.09638  0.72249  1.0000
  C   C1235     1.0  0.86473  0.41219  0.73067  1.0000
  C   C1236     1.0  0.96715  0.30438  0.63717  1.0000
  C   C1237     1.0  0.82255  0.09926  0.48683  1.0000
  H   H2158     1.0  0.64268  0.99383  0.49534  1.0000
  H   H2159     1.0  0.54552  0.00019  0.72938  1.0000
  H   H2160     1.0  0.53989  0.04798  0.72932  1.0000
  H   H2161     1.0  0.49352  0.09371  0.66213  1.0000
  S   S276      1.0  0.97619  0.41419  0.68841  1.0000
  H   H2162     1.0  0.48933  0.16544  0.61318  1.0000
  H   H2163     1.0  0.49889  0.12681  0.66511  1.0000
  H   H2164     1.0  0.48801  0.20476  0.63660  1.0000
  S   S277      1.0  0.97938  0.35413  0.69670  1.0000
  H   H2165     1.0  0.80161  0.09315  0.48566  1.0000
  Fe  Fe135     1.0  0.98057  0.24414  0.57342  1.0000
  H   H2166     1.0  0.67806  0.98904  0.51221  1.0000
  H   H2167     1.0  0.48150  0.09648  0.69635  1.0000
  H   H2168     1.0  0.48882  0.26668  0.67850  1.0000
  H   H2169     1.0  0.57111  0.48471  0.71167  1.0000
  H   H2170     1.0  0.58062  0.14090  0.73197  1.0000
  H   H2171     1.0  0.48387  0.47902  0.69899  1.0000
  H   H2172     1.0  0.65438  0.48863  0.64426  1.0000
  C   C1238     1.0  0.63577  0.47617  0.89672  1.0000
  H   H2173     1.0  0.60789  0.48542  0.79121  1.0000
  H   H2174     1.0  0.52389  0.28713  0.73473  1.0000
  Fe  Fe136     1.0  0.84616  0.45243  0.75461  1.0000
  S   S278      1.0  0.83596  0.43254  0.78572  1.0000
  H   H2175     1.0  0.79669  0.32027  0.84208  1.0000
  Fe  Fe137     1.0  0.81639  0.46274  0.79040  1.0000
  S   S279      1.0  0.77543  0.45116  0.80801  1.0000
  Fe  Fe138     1.0  0.87250  0.46294  0.78787  1.0000
  H   H2176     1.0  0.96165  0.46561  0.74760  1.0000
  H   H2177     1.0  0.81390  0.44815  0.83123  1.0000
  C   C1239     1.0  0.48434  0.10836  0.81862  1.0000
  S   S280      1.0  0.55774  0.37716  0.79248  1.0000
  H   H2178     1.0  0.86618  0.41096  0.76061  1.0000
  S   S281      1.0  0.54956  0.46155  0.91832  1.0000
  C   C1240     1.0  0.51151  0.20597  0.79932  1.0000
  Fe  Fe139     1.0  0.52917  0.45144  0.86965  1.0000
  S   S282      1.0  0.55842  0.36089  0.74107  1.0000
  C   C1241     1.0  0.49714  0.32495  0.81614  1.0000
  Fe  Fe140     1.0  0.57306  0.47906  0.88813  1.0000
  H   H2179     1.0  0.49809  0.28766  0.95121  1.0000
  Fe  Fe141     1.0  0.53695  0.42454  0.90716  1.0000
  S   S283      1.0  0.53096  0.38562  0.92592  1.0000
  C   C1242     1.0  0.92884  0.47244  0.80290  1.0000
  S   S284      1.0  0.56364  0.44109  0.87789  1.0000
  Fe  Fe142     1.0  0.70094  0.44137  0.91971  1.0000
  S   S285      1.0  0.70504  0.42245  0.89455  1.0000
  C   C1243     1.0  0.56131  0.28952  0.74186  1.0000
  Fe  Fe143     1.0  0.68687  0.38959  0.94849  1.0000
  S   S286      1.0  0.68953  0.36603  0.92544  1.0000
  H   H2180     1.0  0.85948  0.38622  0.85400  1.0000
  Fe  Fe144     1.0  0.72587  0.39989  0.91120  1.0000
  S   S287      1.0  0.76287  0.39630  0.89459  1.0000
  Fe  Fe145     1.0  0.66886  0.39082  0.91059  1.0000
  S   S288      1.0  0.63660  0.37912  0.89479  1.0000
  S   S289      1.0  0.72506  0.42174  0.93552  1.0000
  S   S290      1.0  0.66301  0.41140  0.93477  1.0000
  Fe  Fe146     1.0  0.52498  0.26425  0.88845  1.0000
  S   S291      1.0  0.54915  0.25204  0.86567  1.0000
  H   H2181     1.0  0.59451  0.29703  0.96870  1.0000
  Fe  Fe147     1.0  0.57409  0.24865  0.88726  1.0000
  S   S292      1.0  0.61786  0.26575  0.87821  1.0000
  S   S293      1.0  0.55208  0.26461  0.90906  1.0000
  S   S294      1.0  0.50174  0.43167  0.89811  1.0000
  H   H2182     1.0  0.64365  0.42819  0.78492  1.0000
  C   C1244     1.0  0.63304  0.34878  0.88829  1.0000
  C   C1245     1.0  0.60934  0.33545  0.88393  1.0000
  C   C1246     1.0  0.60547  0.31059  0.87961  1.0000
  C   C1247     1.0  0.62494  0.29862  0.88019  1.0000
  C   C1248     1.0  0.64920  0.31243  0.88363  1.0000
  C   C1249     1.0  0.65325  0.33760  0.88772  1.0000
  H   H2183     1.0  0.59359  0.34395  0.88448  1.0000
  H   H2184     1.0  0.58708  0.30045  0.87624  1.0000
  H   H2185     1.0  0.66434  0.30322  0.88398  1.0000
  H   H2186     1.0  0.67172  0.34805  0.89083  1.0000
  C   C1250     1.0  0.93819  0.37219  0.78161  1.0000
  H   H2187     1.0  0.78348  0.47881  0.85725  1.0000
  C   C1251     1.0  0.57405  0.06462  0.77573  1.0000
  H   H2188     1.0  0.49441  0.30394  0.78486  1.0000
  C   C1252     1.0  0.52488  0.36133  0.91218  1.0000
  C   C1253     1.0  0.52197  0.36723  0.89312  1.0000
  C   C1254     1.0  0.51715  0.34735  0.88245  1.0000
  C   C1255     1.0  0.51569  0.32176  0.89078  1.0000
  C   C1256     1.0  0.51840  0.31592  0.90984  1.0000
  C   C1257     1.0  0.52261  0.33565  0.92055  1.0000
  H   H2189     1.0  0.52328  0.38697  0.88664  1.0000
  H   H2190     1.0  0.51490  0.35187  0.86770  1.0000
  H   H2191     1.0  0.53497  0.08172  0.81446  1.0000
  H   H2192     1.0  0.52411  0.33110  0.93530  1.0000
  C   C1258     1.0  0.50100  0.47241  0.95691  1.0000
  H   H2193     1.0  0.73665  0.46781  0.83975  1.0000
  H   H2194     1.0  0.66656  0.44399  0.86544  1.0000
  H   H2195     1.0  0.55742  0.09634  0.75040  1.0000
  H   H2196     1.0  0.77753  0.45638  0.89081  1.0000
  H   H2197     1.0  0.50714  0.33851  0.80196  1.0000
  H   H2198     1.0  0.52510  0.37043  0.97210  1.0000
  C   C1259     1.0  0.97387  0.40547  0.75673  1.0000
  H   H2199     1.0  0.65436  0.45049  0.91022  1.0000
  H   H2200     1.0  0.61746  0.46071  0.89823  1.0000
  C   C1260     1.0  0.54459  0.39579  0.80673  1.0000
  C   C1261     1.0  0.54693  0.39413  0.82604  1.0000
  C   C1262     1.0  0.53776  0.41019  0.83708  1.0000
  C   C1263     1.0  0.52551  0.42732  0.82901  1.0000
  H   H2201     1.0  0.57966  0.31030  0.80562  1.0000
  C   C1264     1.0  0.53179  0.41246  0.79884  1.0000
  H   H2202     1.0  0.55565  0.38038  0.83253  1.0000
  H   H2203     1.0  0.53992  0.40909  0.85187  1.0000
  C   C1265     1.0  0.50551  0.47593  0.97524  1.0000
  H   H2204     1.0  0.51873  0.13911  0.78640  1.0000
  C   C1266     1.0  0.77257  0.43456  0.83158  1.0000
  C   C1267     1.0  0.79465  0.43657  0.83966  1.0000
  C   C1268     1.0  0.79172  0.42422  0.85894  1.0000
  C   C1269     1.0  0.76679  0.40972  0.87004  1.0000
  C   C1270     1.0  0.74494  0.40682  0.86161  1.0000
  C   C1271     1.0  0.74778  0.41944  0.84250  1.0000
  H   H2205     1.0  0.69046  0.48593  0.95854  1.0000
  H   H2206     1.0  0.80863  0.42660  0.86548  1.0000
  H   H2207     1.0  0.72576  0.39488  0.86987  1.0000
  H   H2208     1.0  0.73067  0.41762  0.83629  1.0000
  C   C1272     1.0  0.53035  0.22232  0.96909  1.0000
  H   H2209     1.0  0.48855  0.24197  0.82830  1.0000
  C   C1273     1.0  0.60798  0.41441  0.85714  1.0000
  C   C1274     1.0  0.82629  0.36693  0.84236  1.0000
  C   C1275     1.0  0.92807  0.34727  0.79799  1.0000
  C   C1276     1.0  0.55063  0.28974  0.76278  1.0000
  H   H2210     1.0  0.82238  0.38327  0.81431  1.0000
  H   H2211     1.0  0.59763  0.31787  0.92548  1.0000
  C   C1277     1.0  0.52824  0.21337  0.82828  1.0000
  C   C1278     1.0  0.97433  0.45284  0.74729  1.0000
  H   H2212     1.0  0.64333  0.37826  0.78634  1.0000
  Fe  Fe148     1.0  0.52376  0.41362  0.73681  1.0000
  H   H2213     1.0  0.71583  0.44104  0.79879  1.0000
  H   H2214     1.0  0.97086  0.34226  0.77501  1.0000
  H   H2215     1.0  0.52912  0.47341  0.77700  1.0000
  H   H2216     1.0  0.92684  0.36816  0.77021  1.0000
  H   H2217     1.0  0.52898  0.13494  0.85131  1.0000
  C   C1279     1.0  0.53188  0.12940  0.81348  1.0000
  H   H2218     1.0  0.49078  0.38507  0.95833  1.0000
  H   H2219     1.0  0.83753  0.30068  0.80497  1.0000
  H   H2220     1.0  0.83760  0.40505  0.85054  1.0000
  C   C1280     1.0  0.53700  0.13852  0.79119  1.0000
  S   S295      1.0  0.50735  0.37674  0.75974  1.0000
  H   H2221     1.0  0.48247  0.37041  0.80830  1.0000
  C   C1281     1.0  0.82293  0.30154  0.81733  1.0000
  H   H2222     1.0  0.52757  0.09205  0.84548  1.0000
  C   C1282     1.0  0.55706  0.16597  0.78439  1.0000
  C   C1283     1.0  0.65055  0.34394  0.81587  1.0000
  C   C1284     1.0  0.50807  0.19133  0.83933  1.0000
  S   S296      1.0  0.56451  0.42276  0.74208  1.0000
  H   H2223     1.0  0.89452  0.35696  0.81207  1.0000
  H   H2224     1.0  0.55053  0.12773  0.81721  1.0000
  H   H2225     1.0  0.52825  0.14604  0.81959  1.0000
  H   H2226     1.0  0.63949  0.31244  0.93076  1.0000
  H   H2227     1.0  0.96994  0.39984  0.74289  1.0000
  C   C1285     1.0  0.62592  0.40906  0.76386  1.0000
  H   H2228     1.0  0.61311  0.41039  0.92700  1.0000
  H   H2229     1.0  0.52625  0.07287  0.73436  1.0000
  H   H2230     1.0  0.51150  0.44021  0.80414  1.0000
  H   H2231     1.0  0.83261  0.30409  0.82977  1.0000
  H   H2232     1.0  0.56334  0.27898  0.82223  1.0000
  C   C1286     1.0  0.52982  0.22080  0.80837  1.0000
  C   C1287     1.0  0.49523  0.05489  0.82001  1.0000
  C   C1288     1.0  0.89867  0.34063  0.80589  1.0000
  H   H2233     1.0  0.56694  0.29935  0.76944  1.0000
  C   C1289     1.0  0.57162  0.08793  0.74293  1.0000
  H   H2234     1.0  0.80468  0.32177  0.79857  1.0000
  H   H2235     1.0  0.82974  0.34292  0.80767  1.0000
  N   N71       1.0  0.63872  0.38725  0.81499  1.0000
  C   C1290     1.0  0.59439  0.39404  0.93104  1.0000
  C   C1291     1.0  0.97267  0.35945  0.76364  1.0000
  H   H2236     1.0  0.67192  0.35389  0.81325  1.0000
  H   H2237     1.0  0.57596  0.16621  0.78847  1.0000
  H   H2238     1.0  0.56055  0.17196  0.76844  1.0000
  H   H2239     1.0  0.54977  0.18055  0.79084  1.0000
  H   H2240     1.0  0.57908  0.40163  0.93776  1.0000
  H   H2241     1.0  0.58119  0.47336  0.75738  1.0000
  C   C1292     1.0  0.48942  0.17690  0.83033  1.0000
  H   H2242     1.0  0.50100  0.45429  0.95239  1.0000
  C   C1293     1.0  0.59487  0.31315  0.95691  1.0000
  H   H2243     1.0  0.49307  0.07995  0.85114  1.0000
  S   S297      1.0  0.51502  0.44874  0.84195  1.0000
  H   H2244     1.0  0.58151  0.44825  0.95174  1.0000
  C   C1294     1.0  0.59664  0.37114  0.94530  1.0000
  H   H2245     1.0  0.54565  0.23769  0.79990  1.0000
  C   C1295     1.0  0.64526  0.31688  0.82855  1.0000
  S   S298      1.0  0.51459  0.21517  0.77423  1.0000
  H   H2246     1.0  0.57090  0.04512  0.78494  1.0000
  C   C1296     1.0  0.60691  0.47929  0.77717  1.0000
  H   H2247     1.0  0.92967  0.47845  0.88045  1.0000
  H   H2248     1.0  0.65292  0.45349  0.96698  1.0000
  H   H2249     1.0  0.50864  0.33228  0.82682  1.0000
  C   C1297     1.0  0.58148  0.48029  0.77114  1.0000
  N   N72       1.0  0.96707  0.38129  0.77261  1.0000
  H   H2250     1.0  0.93211  0.38761  0.78769  1.0000
  H   H2251     1.0  0.53261  0.29994  0.83899  1.0000
  C   C1298     1.0  0.77183  0.47442  0.88777  1.0000
  Fe  Fe149     1.0  0.51648  0.47013  0.90670  1.0000
  S   S299      1.0  0.51413  0.20596  0.95289  1.0000
  H   H2252     1.0  0.60888  0.41359  0.79166  1.0000
  C   C1299     1.0  0.62177  0.29485  0.93401  1.0000
  C   C1300     1.0  0.55427  0.15833  0.97948  1.0000
  C   C1301     1.0  0.52059  0.30256  0.97220  1.0000
  H   H2253     1.0  0.56955  0.22978  0.95312  1.0000
  H   H2254     1.0  0.61112  0.35302  0.97828  1.0000
  S   S300      1.0  0.82325  0.48001  0.75892  1.0000
  H   H2255     1.0  0.54617  0.13838  0.97659  1.0000
  N   N73       1.0  0.78583  0.35171  0.82647  1.0000
  C   C1302     1.0  0.76150  0.34856  0.84123  1.0000
  C   C1303     1.0  0.77997  0.35824  0.80668  1.0000
  C   C1304     1.0  0.80880  0.37388  0.82855  1.0000
  C   C1305     1.0  0.77071  0.38268  0.80268  1.0000
  C   C1306     1.0  0.76248  0.34120  0.86278  1.0000
  C   C1307     1.0  0.73525  0.33373  0.87574  1.0000
  C   C1308     1.0  0.77131  0.39101  0.78120  1.0000
  H   H2256     1.0  0.75662  0.36720  0.83995  1.0000
  H   H2257     1.0  0.74440  0.33364  0.83839  1.0000
  H   H2258     1.0  0.76471  0.34125  0.80401  1.0000
  H   H2259     1.0  0.80189  0.38978  0.83325  1.0000
  H   H2260     1.0  0.81482  0.35657  0.85698  1.0000
  H   H2261     1.0  0.78337  0.39951  0.80728  1.0000
  H   H2262     1.0  0.75024  0.37837  0.81058  1.0000
  H   H2263     1.0  0.76981  0.32433  0.86588  1.0000
  H   H2264     1.0  0.77516  0.35841  0.86710  1.0000
  H   H2265     1.0  0.72201  0.31546  0.87304  1.0000
  H   H2266     1.0  0.73677  0.33034  0.89114  1.0000
  H   H2267     1.0  0.72649  0.34973  0.87320  1.0000
  H   H2268     1.0  0.95790  0.35227  0.75489  1.0000
  H   H2269     1.0  0.79130  0.39537  0.77237  1.0000
  H   H2270     1.0  0.75737  0.37534  0.77625  1.0000
  H   H2271     1.0  0.76571  0.40917  0.77874  1.0000
  S   S301      1.0  0.52215  0.16877  0.74036  1.0000
  H   H2272     1.0  0.93812  0.35028  0.81017  1.0000
  H   H2273     1.0  0.55528  0.35259  0.95218  1.0000
  C   C1309     1.0  0.65664  0.47041  0.90370  1.0000
  H   H2274     1.0  0.62254  0.42697  0.75651  1.0000
  C   C1310     1.0  0.95902  0.42563  0.75963  1.0000
  H   H2275     1.0  0.50866  0.25788  0.84297  1.0000
  C   C1311     1.0  0.89064  0.39080  0.74760  1.0000
  C   C1312     1.0  0.84697  0.39164  0.84431  1.0000
  S   S302      1.0  0.66820  0.37175  0.97971  1.0000
  C   C1313     1.0  0.48195  0.27907  0.83410  1.0000
  H   H2276     1.0  0.97308  0.47587  0.86825  1.0000
  H   H2277     1.0  0.80658  0.28269  0.82119  1.0000
  H   H2278     1.0  0.54298  0.22434  0.83498  1.0000
  H   H2279     1.0  0.48151  0.10467  0.80412  1.0000
  H   H2280     1.0  0.49726  0.26293  0.97124  1.0000
  Fe  Fe150     1.0  0.49535  0.18410  0.75887  1.0000
  C   C1314     1.0  0.50582  0.03458  0.81191  1.0000
  C   C1315     1.0  0.60226  0.46003  0.95047  1.0000
  H   H2281     1.0  0.60719  0.45792  0.96493  1.0000
  H   H2282     1.0  0.53433  0.31046  0.79533  1.0000
  S   S303      1.0  0.50994  0.29700  0.87751  1.0000
  H   H2283     1.0  0.59468  0.07690  0.77431  1.0000
  C   C1316     1.0  0.54265  0.30787  0.82372  1.0000
  S   S304      1.0  0.49879  0.22339  0.90197  1.0000
  Fe  Fe151     1.0  0.52496  0.21100  0.88047  1.0000
  C   C1317     1.0  0.97592  0.48577  0.80044  1.0000
  C   C1318     1.0  0.52181  0.42775  0.81011  1.0000
  C   C1319     1.0  0.87323  0.40536  0.74752  1.0000
  H   H2284     1.0  0.62396  0.30598  0.83280  1.0000
  C   C1320     1.0  0.56837  0.06110  0.75591  1.0000
  H   H2285     1.0  0.51207  0.04034  0.79595  1.0000
  H   H2286     1.0  0.57542  0.27830  0.74184  1.0000
  N   N74       1.0  0.50960  0.10425  0.82235  1.0000
  H   H2287     1.0  0.51680  0.09957  0.88108  1.0000
  H   H2288     1.0  0.57186  0.34182  0.93346  1.0000
  C   C1321     1.0  0.49120  0.18409  0.81037  1.0000
  H   H2289     1.0  0.52276  0.03258  0.81812  1.0000
  H   H2290     1.0  0.79771  0.36192  0.79524  1.0000
  H   H2291     1.0  0.83695  0.35414  0.83666  1.0000
  C   C1322     1.0  0.59701  0.30275  0.93797  1.0000
  C   C1323     1.0  0.68431  0.45054  0.85361  1.0000
  H   H2292     1.0  0.52577  0.27782  0.80857  1.0000
  S   S305      1.0  0.89965  0.44788  0.80347  1.0000
  H   H2293     1.0  0.52957  0.41367  0.78405  1.0000
  H   H2294     1.0  0.65508  0.30512  0.82058  1.0000
  H   H2295     1.0  0.61055  0.36964  0.79876  1.0000
  H   H2296     1.0  0.49745  0.04047  0.76088  1.0000
  C   C1324     1.0  0.95212  0.46617  0.80188  1.0000
  H   H2297     1.0  0.61491  0.36720  0.93955  1.0000
  N   N75       1.0  0.57157  0.32236  0.96228  1.0000
  H   H2298     1.0  0.58691  0.40651  0.85678  1.0000
  H   H2299     1.0  0.89649  0.38512  0.76085  1.0000
  H   H2300     1.0  0.57218  0.31017  0.73460  1.0000
  H   H2301     1.0  0.51918  0.32258  0.96852  1.0000
  H   H2302     1.0  0.54848  0.32960  0.82135  1.0000
  H   H2303     1.0  0.60950  0.39171  0.76323  1.0000
  H   H2304     1.0  0.64392  0.40591  0.84895  1.0000
  H   H2305     1.0  0.58200  0.05154  0.74932  1.0000
  C   C1325     1.0  0.50977  0.09755  0.84356  1.0000
  H   H2306     1.0  0.77309  0.30967  0.82837  1.0000
  H   H2307     1.0  0.70775  0.47084  0.87130  1.0000
  C   C1326     1.0  0.55773  0.23164  0.96612  1.0000
  C   C1327     1.0  0.63004  0.38508  0.79613  1.0000
  H   H2308     1.0  0.65319  0.31894  0.84179  1.0000
  C   C1328     1.0  0.56783  0.30060  0.82036  1.0000
  C   C1329     1.0  0.79127  0.32581  0.82814  1.0000
  H   H2309     1.0  0.59963  0.38669  0.82723  1.0000
  H   H2310     1.0  0.49749  0.25620  0.79450  1.0000
  H   H2311     1.0  0.54086  0.26944  0.77123  1.0000
  C   C1330     1.0  0.51525  0.08284  0.81293  1.0000
  C   C1331     1.0  0.62316  0.39815  0.84791  1.0000
  H   H2312     1.0  0.61481  0.37787  0.85656  1.0000
  S   S306      1.0  0.70547  0.48436  0.91285  1.0000
  H   H2313     1.0  0.66449  0.29185  0.98358  1.0000
  H   H2314     1.0  0.59779  0.37786  0.95903  1.0000
  H   H2315     1.0  0.61486  0.45212  0.94094  1.0000
  H   H2316     1.0  0.60971  0.41330  0.87247  1.0000
  H   H2317     1.0  0.54573  0.29937  0.94662  1.0000
  H   H2318     1.0  0.67508  0.39943  0.82492  1.0000
  H   H2319     1.0  0.72084  0.40959  0.80555  1.0000
  H   H2320     1.0  0.61587  0.43534  0.84953  1.0000
  C   C1332     1.0  0.63549  0.36008  0.82606  1.0000
  H   H2321     1.0  0.88766  0.33707  0.79422  1.0000
  C   C1333     1.0  0.48883  0.25342  0.83976  1.0000
  H   H2322     1.0  0.95175  0.44623  0.80183  1.0000
  H   H2323     1.0  0.68165  0.41894  0.78109  1.0000
  S   S307      1.0  0.55215  0.20619  0.90044  1.0000
  H   H2324     1.0  0.85968  0.40217  0.83000  1.0000
  H   H2325     1.0  0.61359  0.32890  0.95569  1.0000
  C   C1334     1.0  0.81284  0.32454  0.81167  1.0000
  C   C1335     1.0  0.71422  0.42175  0.79476  1.0000
  H   H2326     1.0  0.66678  0.42575  0.81289  1.0000
  H   H2327     1.0  0.59089  0.24911  0.97822  1.0000
  H   H2328     1.0  0.68558  0.38819  0.79016  1.0000
  H   H2329     1.0  0.57946  0.30720  0.83112  1.0000
  H   H2330     1.0  0.58961  0.38792  0.91758  1.0000
  C   C1336     1.0  0.66650  0.40524  0.81246  1.0000
  H   H2331     1.0  0.64464  0.34078  0.80208  1.0000
  H   H2332     1.0  0.64207  0.36112  0.83996  1.0000
  H   H2333     1.0  0.61433  0.34817  0.83008  1.0000
  H   H2334     1.0  0.72750  0.42534  0.78051  1.0000
  C   C1337     1.0  0.52477  0.29762  0.80982  1.0000
  H   H2335     1.0  0.62286  0.41870  0.81986  1.0000
  H   H2336     1.0  0.62261  0.28060  0.94658  1.0000
  H   H2337     1.0  0.64456  0.40771  0.75596  1.0000
  H   H2338     1.0  0.72415  0.38420  0.97711  1.0000
  H   H2339     1.0  0.49022  0.01518  0.81566  1.0000
  H   H2340     1.0  0.51604  0.08745  0.79718  1.0000
  H   H2341     1.0  0.62167  0.28525  0.92141  1.0000
  Fe  Fe152     1.0  0.52820  0.22247  0.92074  1.0000
  C   C1338     1.0  0.62033  0.39808  0.82675  1.0000
  H   H2342     1.0  0.53637  0.30083  0.76344  1.0000
  S   S308      1.0  0.88449  0.48064  0.75612  1.0000
  C   C1339     1.0  0.56963  0.32733  0.98257  1.0000
  H   H2343     1.0  0.51676  0.29608  0.91639  1.0000
  H   H2344     1.0  0.69305  0.43438  0.85380  1.0000
  C   C1340     1.0  0.68614  0.40750  0.79355  1.0000
  C   C1341     1.0  0.54711  0.30069  0.96182  1.0000
  H   H2345     1.0  0.63499  0.40541  0.97336  1.0000
  H   H2346     1.0  0.93984  0.41889  0.75538  1.0000
  Fe  Fe153     1.0  0.54883  0.38394  0.76293  1.0000
  H   H2347     1.0  0.60758  0.45884  0.77888  1.0000
  H   H2348     1.0  0.54513  0.12520  0.78373  1.0000
  C   C1342     1.0  0.70371  0.47533  0.85675  1.0000
  C   C1343     1.0  0.72923  0.48470  0.84092  1.0000
  C   C1344     1.0  0.57273  0.34641  0.94801  1.0000
  H   H2349     1.0  0.58022  0.28495  0.93902  1.0000
  H   H2350     1.0  0.89170  0.32259  0.81746  1.0000
  C   C1345     1.0  0.62725  0.41059  0.78483  1.0000
  H   H2351     1.0  0.75434  0.47230  0.89891  1.0000
  H   H2352     1.0  0.54816  0.28135  0.96854  1.0000
  C   C1346     1.0  0.50938  0.11971  0.85483  1.0000
  C   C1347     1.0  0.49736  0.28343  0.96695  1.0000
  S   S309      1.0  0.50374  0.09506  0.75981  1.0000
  H   H2353     1.0  0.55852  0.17295  0.96576  1.0000
  S   S310      1.0  0.48942  0.48811  0.92201  1.0000
  H   H2354     1.0  0.56071  0.07406  0.78293  1.0000
  H   H2355     1.0  0.56521  0.46631  0.78248  1.0000
  H   H2356     1.0  0.95962  0.40338  0.80580  1.0000
  H   H2357     1.0  0.50332  0.12571  0.88421  1.0000
  N   N76       1.0  0.49671  0.29721  0.81502  1.0000
  H   H2358     1.0  0.74975  0.46010  0.86730  1.0000
  C   C1348     1.0  0.56977  0.24253  0.98036  1.0000
  H   H2359     1.0  0.48761  0.35129  0.96196  1.0000
  H   H2360     1.0  0.93103  0.32998  0.79267  1.0000
  H   H2361     1.0  0.54800  0.04768  0.75843  1.0000
  H   H2362     1.0  0.67830  0.45451  0.83965  1.0000
  H   H2363     1.0  0.54737  0.41440  0.97968  1.0000
  H   H2364     1.0  0.48507  0.28953  0.84616  1.0000
  S   S311      1.0  0.50623  0.18064  0.86414  1.0000
  Fe  Fe154     1.0  0.49094  0.12994  0.75144  1.0000
  C   C1349     1.0  0.65170  0.44252  0.98166  1.0000
  C   C1350     1.0  0.50256  0.10917  0.87665  1.0000
  C   C1351     1.0  0.76572  0.47785  0.86762  1.0000
  S   S312      1.0  0.49062  0.31742  0.73643  1.0000
  H   H2365     1.0  0.52888  0.25647  0.73945  1.0000
  H   H2366     1.0  0.49038  0.04853  0.83592  1.0000
  H   H2367     1.0  0.48545  0.12927  0.81783  1.0000
  C   C1352     1.0  0.48343  0.28991  0.79871  1.0000
  H   H2368     1.0  0.48562  0.27022  0.76407  1.0000
  H   H2369     1.0  0.95499  0.42802  0.77467  1.0000
  H   H2370     1.0  0.48755  0.48174  0.80651  1.0000
  H   H2371     1.0  0.56423  0.39066  0.98321  1.0000
  H   H2372     1.0  0.49497  0.12937  0.85104  1.0000
  H   H2373     1.0  0.54865  0.48209  0.74516  1.0000
  H   H2374     1.0  0.67047  0.43865  0.98239  1.0000
  Fe  Fe155     1.0  0.51803  0.35700  0.73604  1.0000
  H   H2375     1.0  0.48642  0.36466  0.83306  1.0000
  H   H2376     1.0  0.48139  0.45874  0.79084  1.0000
  H   H2377     1.0  0.59118  0.10124  0.74311  1.0000
  H   H2378     1.0  0.48245  0.09492  0.88116  1.0000
  C   C1353     1.0  0.48333  0.47926  0.79212  1.0000
  H   H2379     1.0  0.57173  0.48764  0.96173  1.0000
  C   C1354     1.0  0.98040  0.40752  0.79881  1.0000
  H   H2380     1.0  0.48140  0.75879  0.03962  1.0000
  N   N77       1.0  0.94413  0.62751  0.21931  1.0000
  C   C1355     1.0  0.69060  0.52750  0.17409  1.0000
  C   C1356     1.0  0.68077  0.50170  0.16738  1.0000
  H   H2381     1.0  0.52680  0.62869  0.20489  1.0000
  H   H2382     1.0  0.56377  0.89648  0.20267  1.0000
  H   H2383     1.0  0.56226  0.92375  0.21373  1.0000
  H   H2384     1.0  0.48701  0.78905  0.13804  1.0000
  H   H2385     1.0  0.70421  0.49820  0.00125  1.0000
  H   H2386     1.0  0.93883  0.63193  0.18990  1.0000
  H   H2387     1.0  0.85685  0.52590  0.22114  1.0000
  H   H2388     1.0  0.66018  0.57904  0.20832  1.0000
  H   H2389     1.0  0.90266  0.60644  0.17614  1.0000
  C   C1357     1.0  0.57510  0.91231  0.20900  1.0000
  C   C1358     1.0  0.62224  0.51545  0.02914  1.0000
  C   C1359     1.0  0.90578  0.59982  0.20638  1.0000
  H   H2390     1.0  0.58705  0.55417  0.00834  1.0000
  H   H2391     1.0  0.50974  0.66999  0.19892  1.0000
  C   C1360     1.0  0.59745  0.93092  0.19296  1.0000
  H   H2392     1.0  0.64066  0.49041  0.22328  1.0000
  H   H2393     1.0  0.52955  0.57405  0.12925  1.0000
  C   C1361     1.0  0.51341  0.67388  0.21317  1.0000
  H   H2394     1.0  0.50460  0.76266  0.01760  1.0000
  C   C1362     1.0  0.64805  0.57749  0.22268  1.0000
  C   C1363     1.0  0.55853  0.60568  0.21830  1.0000
  H   H2395     1.0  0.66908  0.51058  0.01672  1.0000
  H   H2396     1.0  0.49270  0.56385  0.03427  1.0000
  H   H2397     1.0  0.49471  0.65401  0.01021  1.0000
  H   H2398     1.0  0.70363  0.54634  0.21528  1.0000
  H   H2399     1.0  0.71326  0.51781  0.22302  1.0000
  H   H2400     1.0  0.90051  0.58251  0.21839  1.0000
  H   H2401     1.0  0.74007  0.57452  0.22656  1.0000
  H   H2402     1.0  0.48901  0.73851  0.99148  1.0000
  H   H2403     1.0  0.52641  0.58362  0.15233  1.0000
  H   H2404     1.0  0.48263  0.68055  0.98495  1.0000
  H   H2405     1.0  0.82238  0.49111  0.15332  1.0000
  H   H2406     1.0  0.50052  0.93798  0.13414  1.0000
  H   H2407     1.0  0.52579  0.97165  0.22446  1.0000
  H   H2408     1.0  0.67092  0.52172  0.14253  1.0000
  H   H2409     1.0  0.59848  0.63111  0.21607  1.0000
  C   C1364     1.0  0.89909  0.58979  0.18842  1.0000
  C   C1365     1.0  0.91846  0.52195  0.21236  1.0000
  H   H2410     1.0  0.50472  0.90666  0.14245  1.0000
  C   C1366     1.0  0.93015  0.64701  0.22352  1.0000
  H   H2411     1.0  0.87807  0.57786  0.19147  1.0000
  H   H2412     1.0  0.73323  0.49842  0.10098  1.0000
  C   C1367     1.0  0.92156  0.52155  0.19268  1.0000
  C   C1368     1.0  0.90045  0.52108  0.18353  1.0000
  C   C1369     1.0  0.48501  0.55782  0.02164  1.0000
  H   H2413     1.0  0.52259  0.54845  0.19029  1.0000
  H   H2414     1.0  0.96758  0.58762  0.22919  1.0000
  C   C1370     1.0  0.89512  0.52355  0.22255  1.0000
  C   C1371     1.0  0.57978  0.55570  0.99470  1.0000
  C   C1372     1.0  0.97342  0.64047  0.21390  1.0000
  C   C1373     1.0  0.58562  0.90095  0.22615  1.0000
  H   H2415     1.0  0.70119  0.54388  0.16154  1.0000
  H   H2416     1.0  0.63144  0.51548  0.99901  1.0000
  H   H2417     1.0  0.93967  0.52036  0.18482  1.0000
  N   N78       1.0  0.54184  0.61806  0.23009  1.0000
  H   H2418     1.0  0.67402  0.53212  0.18229  1.0000
  C   C1374     1.0  0.61395  0.49590  0.13540  1.0000
  C   C1375     1.0  0.93522  0.61601  0.20273  1.0000
  Fe  Fe156     1.0  0.81336  0.49899  0.20777  1.0000
  H   H2419     1.0  0.76619  0.49075  0.17044  1.0000
  C   C1376     1.0  0.48384  0.76019  0.02377  1.0000
  H   H2420     1.0  0.53230  0.68978  0.21107  1.0000
  C   C1377     1.0  0.66152  0.50340  0.15379  1.0000
  S   S313      1.0  0.50953  0.90696  0.20631  1.0000
  C   C1378     1.0  0.50319  0.53482  0.19651  1.0000
  H   H2421     1.0  0.64929  0.59761  0.22486  1.0000
  C   C1379     1.0  0.59881  0.60917  0.19380  1.0000
  C   C1380     1.0  0.51572  0.57737  0.14098  1.0000
  H   H2422     1.0  0.62729  0.56675  0.22299  1.0000
  H   H2423     1.0  0.64460  0.50697  0.16251  1.0000
  H   H2424     1.0  0.53998  0.95689  0.18228  1.0000
  S   S314      1.0  0.78199  0.51726  0.21504  1.0000
  H   H2425     1.0  0.89318  0.61199  0.20993  1.0000
  H   H2426     1.0  0.98046  0.65737  0.18290  1.0000
  C   C1381     1.0  0.52331  0.98830  0.23097  1.0000
  H   H2427     1.0  0.61825  0.62252  0.18554  1.0000
  C   C1382     1.0  0.73998  0.55467  0.22439  1.0000
  H   H2428     1.0  0.55214  0.65454  0.20897  1.0000
  C   C1383     1.0  0.65365  0.49345  0.01440  1.0000
  H   H2429     1.0  0.60399  0.52035  0.02813  1.0000
  C   C1384     1.0  0.48783  0.97986  0.18476  1.0000
  C   C1385     1.0  0.87449  0.52384  0.21332  1.0000
  H   H2430     1.0  0.49152  0.54004  0.12278  1.0000
  H   H2431     1.0  0.54454  0.85901  0.22353  1.0000
  H   H2432     1.0  0.60052  0.89238  0.21997  1.0000
  H   H2433     1.0  0.61540  0.52035  0.10783  1.0000
  C   C1386     1.0  0.50116  0.93527  0.19883  1.0000
  H   H2434     1.0  0.93039  0.66022  0.20995  1.0000
  H   H2435     1.0  0.70444  0.52564  0.18368  1.0000
  C   C1387     1.0  0.52019  0.95725  0.18663  1.0000
  H   H2436     1.0  0.58354  0.64096  0.19650  1.0000
  H   H2437     1.0  0.51470  0.50052  0.19391  1.0000
  C   C1388     1.0  0.49876  0.50774  0.19858  1.0000
  C   C1389     1.0  0.51351  0.97946  0.17953  1.0000
  H   H2438     1.0  0.91104  0.57723  0.18427  1.0000
  H   H2439     1.0  0.58773  0.57647  0.98673  1.0000
  H   H2440     1.0  0.94701  0.60344  0.19809  1.0000
  H   H2441     1.0  0.90901  0.63660  0.22985  1.0000
  H   H2442     1.0  0.58921  0.93892  0.18107  1.0000
  H   H2443     1.0  0.52088  0.81053  0.22909  1.0000
  H   H2444     1.0  0.60896  0.94763  0.19848  1.0000
  H   H2445     1.0  0.50505  0.58930  0.22978  1.0000
  H   H2446     1.0  0.61884  0.51336  0.14206  1.0000
  H   H2447     1.0  0.97344  0.67899  0.19816  1.0000
  H   H2448     1.0  0.50118  0.53715  0.15592  1.0000
  H   H2449     1.0  0.70013  0.51231  0.12193  1.0000
  C   C1390     1.0  0.58539  0.62401  0.20629  1.0000
  H   H2450     1.0  0.61056  0.92035  0.18706  1.0000
  S   S315      1.0  0.84908  0.51754  0.18384  1.0000
  H   H2451     1.0  0.93586  0.57091  0.22571  1.0000
  H   H2452     1.0  0.50056  0.92724  0.15932  1.0000
  H   H2453     1.0  0.90223  0.51959  0.16853  1.0000
  H   H2454     1.0  0.66177  0.53478  0.22170  1.0000
  H   H2455     1.0  0.54731  0.59538  0.20842  1.0000
  H   H2456     1.0  0.61906  0.50241  0.04343  1.0000
  H   H2457     1.0  0.57213  0.85008  0.22803  1.0000
  H   H2458     1.0  0.63828  0.53392  0.02813  1.0000
  H   H2459     1.0  0.58683  0.60184  0.18339  1.0000
  H   H2460     1.0  0.60178  0.59227  0.20299  1.0000
  C   C1391     1.0  0.87667  0.52147  0.19408  1.0000
  H   H2461     1.0  0.50839  0.59343  0.13513  1.0000
  C   C1392     1.0  0.48239  0.54423  0.20201  1.0000
  S   S316      1.0  0.94168  0.51744  0.22555  1.0000
  H   H2462     1.0  0.49216  0.69922  0.00284  1.0000
  S   S317      1.0  0.48755  0.57799  0.19769  1.0000
  H   H2463     1.0  0.58182  0.51757  0.99169  1.0000
  C   C1393     1.0  0.51377  0.64893  0.22613  1.0000
  C   C1394     1.0  0.49291  0.55222  0.14980  1.0000
  C   C1395     1.0  0.53465  0.63776  0.21659  1.0000
  C   C1396     1.0  0.62885  0.50175  0.01282  1.0000
  H   H2464     1.0  0.92382  0.69498  0.22825  1.0000
  H   H2465     1.0  0.50039  0.55300  0.01218  1.0000
  H   H2466     1.0  0.49403  0.63418  0.22877  1.0000
  H   H2467     1.0  0.58335  0.50690  0.12354  1.0000
  C   C1397     1.0  0.49447  0.92073  0.14633  1.0000
  C   C1398     1.0  0.69495  0.49243  0.11862  1.0000
  H   H2468     1.0  0.57007  0.54912  0.22823  1.0000
  S   S318      1.0  0.51220  0.50544  0.00330  1.0000
  H   H2469     1.0  0.68713  0.49319  0.10519  1.0000
  H   H2470     1.0  0.58665  0.66353  0.22532  1.0000
  H   H2471     1.0  0.49751  0.68065  0.22006  1.0000
  H   H2472     1.0  0.65239  0.50537  0.11778  1.0000
  H   H2473     1.0  0.55810  0.55000  0.99845  1.0000
  H   H2474     1.0  0.59684  0.91779  0.23174  1.0000
  H   H2475     1.0  0.75156  0.55678  0.20971  1.0000
  H   H2476     1.0  0.67546  0.49724  0.21681  1.0000
  H   H2477     1.0  0.85590  0.49630  0.14226  1.0000
  H   H2478     1.0  0.69831  0.49767  0.16018  1.0000
  C   C1399     1.0  0.71199  0.53679  0.22630  1.0000
  C   C1400     1.0  0.60174  0.50274  0.11831  1.0000
  H   H2479     1.0  0.56336  0.59045  0.22782  1.0000
  H   H2480     1.0  0.48734  0.98700  0.22257  1.0000
  H   H2481     1.0  0.56727  0.50539  0.22107  1.0000
  H   H2482     1.0  0.96087  0.67723  0.23189  1.0000
  H   H2483     1.0  0.48069  0.57465  0.01351  1.0000
  H   H2484     1.0  0.51810  0.92846  0.24429  1.0000
  H   H2485     1.0  0.67607  0.87745  0.40394  1.0000
  Fe  Fe157     1.0  0.91428  0.77570  0.42026  1.0000
  S   S319      1.0  0.93711  0.75306  0.40582  1.0000
  S   S320      1.0  0.87137  0.75782  0.43366  1.0000
  H   H2486     1.0  0.85402  0.93403  0.36478  1.0000
  Fe  Fe158     1.0  0.95323  0.78965  0.38269  1.0000
  S   S321      1.0  0.77544  0.51828  0.27060  1.0000
  S   S322      1.0  0.94465  0.79100  0.43708  1.0000
  S   S323      1.0  0.92849  0.81153  0.39649  1.0000
  Fe  Fe159     1.0  0.70566  0.74344  0.37148  1.0000
  S   S324      1.0  0.74038  0.77953  0.35887  1.0000
  S   S325      1.0  0.68401  0.72766  0.34886  1.0000
  Fe  Fe160     1.0  0.71160  0.74864  0.41238  1.0000
  S   S326      1.0  0.74655  0.78509  0.40287  1.0000
  S   S327      1.0  0.69425  0.73326  0.44421  1.0000
  Fe  Fe161     1.0  0.72437  0.79804  0.38173  1.0000
  S   S328      1.0  0.72384  0.83979  0.37370  1.0000
  Fe  Fe162     1.0  0.75988  0.76377  0.38101  1.0000
  S   S329      1.0  0.80262  0.76844  0.37121  1.0000
  S   S330      1.0  0.68800  0.76333  0.39283  1.0000
  S   S331      1.0  0.72664  0.72588  0.39197  1.0000
  Fe  Fe163     1.0  0.54823  0.61026  0.31093  1.0000
  S   S332      1.0  0.55480  0.59366  0.33961  1.0000
  Fe  Fe164     1.0  0.57579  0.57871  0.28979  1.0000
  S   S333      1.0  0.58505  0.55927  0.31653  1.0000
  S   S334      1.0  0.58580  0.57313  0.25929  1.0000
  Fe  Fe165     1.0  0.54371  0.55516  0.33023  1.0000
  H   H2487     1.0  0.67231  0.93730  0.40270  1.0000
  Fe  Fe166     1.0  0.59566  0.59938  0.32399  1.0000
  S   S335      1.0  0.62904  0.61101  0.33975  1.0000
  S   S336      1.0  0.53341  0.57125  0.30293  1.0000
  S   S337      1.0  0.59007  0.61930  0.29585  1.0000
  Fe  Fe167     1.0  0.92101  0.59616  0.32819  1.0000
  S   S338      1.0  0.93358  0.60214  0.29610  1.0000
  H   H2488     1.0  0.52714  0.55998  0.24368  1.0000
  Fe  Fe168     1.0  0.90894  0.64744  0.32608  1.0000
  S   S339      1.0  0.92101  0.65835  0.29380  1.0000
  S   S340      1.0  0.89220  0.66991  0.34594  1.0000
  Fe  Fe169     1.0  0.89884  0.61617  0.29465  1.0000
  S   S341      1.0  0.87909  0.60936  0.26959  1.0000
  H   H2489     1.0  0.65027  0.97096  0.29554  1.0000
  H   H2490     1.0  0.70060  0.55124  0.25186  1.0000
  S   S342      1.0  0.88393  0.60616  0.32683  1.0000
  H   H2491     1.0  0.52826  0.87544  0.26094  1.0000
  H   H2492     1.0  0.86087  0.58325  0.24047  1.0000
  S   S343      1.0  0.53596  0.94457  0.30481  1.0000
  C   C1401     1.0  0.70660  0.88927  0.45958  1.0000
  H   H2493     1.0  0.91341  0.84216  0.34074  1.0000
  Fe  Fe170     1.0  0.95470  0.64340  0.29748  1.0000
  S   S344      1.0  0.54759  0.98316  0.33590  1.0000
  H   H2494     1.0  0.54809  0.70726  0.33323  1.0000
  H   H2495     1.0  0.48991  0.95911  0.26242  1.0000
  C   C1402     1.0  0.90576  0.53262  0.34742  1.0000
  H   H2496     1.0  0.57808  0.71732  0.36501  1.0000
  C   C1403     1.0  0.88260  0.53122  0.34105  1.0000
  H   H2497     1.0  0.51537  0.89366  0.30249  1.0000
  Fe  Fe171     1.0  0.55894  0.92191  0.31884  1.0000
  Fe  Fe172     1.0  0.57078  0.95805  0.34716  1.0000
  H   H2498     1.0  0.61844  0.87909  0.27890  1.0000
  C   C1404     1.0  0.49369  0.55462  0.26559  1.0000
  H   H2499     1.0  0.48752  0.98446  0.34431  1.0000
  H   H2500     1.0  0.66646  0.90803  0.42028  1.0000
  C   C1405     1.0  0.58410  0.49734  0.26480  1.0000
  C   C1406     1.0  0.66123  0.98193  0.38445  1.0000
  H   H2501     1.0  0.88346  0.76812  0.39211  1.0000
  C   C1407     1.0  0.82387  0.55386  0.25381  1.0000
  C   C1408     1.0  0.84673  0.57397  0.25382  1.0000
  C   C1409     1.0  0.85121  0.58235  0.27091  1.0000
  C   C1410     1.0  0.83266  0.57033  0.28813  1.0000
  H   H2502     1.0  0.90324  0.66992  0.24885  1.0000
  C   C1411     1.0  0.59518  0.87730  0.35693  1.0000
  C   C1412     1.0  0.61571  0.89331  0.36645  1.0000
  C   C1413     1.0  0.82402  0.89546  0.37202  1.0000
  S   S345      1.0  0.59264  0.95770  0.31797  1.0000
  H   H2503     1.0  0.68603  0.74224  0.48295  1.0000
  H   H2504     1.0  0.82068  0.54764  0.24051  1.0000
  C   C1414     1.0  0.57781  0.87643  0.25929  1.0000
  H   H2505     1.0  0.84088  0.92126  0.39045  1.0000
  H   H2506     1.0  0.61912  0.89333  0.41195  1.0000
  H   H2507     1.0  0.71380  0.91100  0.45483  1.0000
  C   C1415     1.0  0.58016  0.54075  0.25591  1.0000
  H   H2508     1.0  0.53522  0.49442  0.31590  1.0000
  C   C1416     1.0  0.91167  0.50954  0.35333  1.0000
  H   H2509     1.0  0.49665  0.53778  0.27480  1.0000
  H   H2510     1.0  0.54752  0.80150  0.23733  1.0000
  S   S346      1.0  0.95648  0.78478  0.35168  1.0000
  C   C1417     1.0  0.67050  0.69490  0.34626  1.0000
  C   C1418     1.0  0.66898  0.67319  0.36019  1.0000
  C   C1419     1.0  0.65671  0.64756  0.35780  1.0000
  C   C1420     1.0  0.64529  0.64347  0.34175  1.0000
  C   C1421     1.0  0.64719  0.66519  0.32770  1.0000
  C   C1422     1.0  0.66006  0.69073  0.32985  1.0000
  H   H2511     1.0  0.67710  0.67613  0.37283  1.0000
  H   H2512     1.0  0.65559  0.63082  0.36862  1.0000
  H   H2513     1.0  0.63899  0.66227  0.31509  1.0000
  H   H2514     1.0  0.66172  0.70747  0.31885  1.0000
  C   C1423     1.0  0.76600  0.90315  0.40362  1.0000
  C   C1424     1.0  0.75663  0.90983  0.38714  1.0000
  C   C1425     1.0  0.74413  0.89019  0.37802  1.0000
  C   C1426     1.0  0.74011  0.86368  0.38559  1.0000
  C   C1427     1.0  0.74897  0.85689  0.40235  1.0000
  C   C1428     1.0  0.76221  0.87664  0.41122  1.0000
  H   H2515     1.0  0.75960  0.93025  0.38111  1.0000
  H   H2516     1.0  0.73794  0.89563  0.36485  1.0000
  H   H2517     1.0  0.74552  0.83648  0.40851  1.0000
  H   H2518     1.0  0.76927  0.87140  0.42406  1.0000
  C   C1429     1.0  0.93695  0.75405  0.34883  1.0000
  C   C1430     1.0  0.94341  0.74442  0.33225  1.0000
  C   C1431     1.0  0.92974  0.71863  0.33096  1.0000
  C   C1432     1.0  0.90922  0.70272  0.34609  1.0000
  C   C1433     1.0  0.90164  0.71308  0.36194  1.0000
  C   C1434     1.0  0.91553  0.73853  0.36337  1.0000
  H   H2519     1.0  0.62702  0.95792  0.34396  1.0000
  H   H2520     1.0  0.93529  0.71097  0.31844  1.0000
  H   H2521     1.0  0.88529  0.70111  0.37340  1.0000
  H   H2522     1.0  0.90961  0.74611  0.37577  1.0000
  C   C1435     1.0  0.85179  0.76001  0.41653  1.0000
  C   C1436     1.0  0.82500  0.75641  0.42250  1.0000
  C   C1437     1.0  0.80952  0.75869  0.40873  1.0000
  C   C1438     1.0  0.82080  0.76434  0.38902  1.0000
  C   C1439     1.0  0.84743  0.76743  0.38315  1.0000
  C   C1440     1.0  0.86291  0.76551  0.39683  1.0000
  H   H2523     1.0  0.81624  0.75205  0.43773  1.0000
  H   H2524     1.0  0.78894  0.75610  0.41333  1.0000
  H   H2525     1.0  0.85621  0.77167  0.36795  1.0000
  H   H2526     1.0  0.63331  0.51332  0.27326  1.0000
  S   S347      1.0  0.51897  0.51962  0.35286  1.0000
  C   C1441     1.0  0.60810  0.70463  0.29907  1.0000
  H   H2527     1.0  0.59163  0.71821  0.33299  1.0000
  H   H2528     1.0  0.60396  0.69586  0.28643  1.0000
  H   H2529     1.0  0.60536  0.72429  0.29685  1.0000
  H   H2530     1.0  0.62876  0.70685  0.29988  1.0000
  C   C1442     1.0  0.97353  0.54737  0.30166  1.0000
  C   C1443     1.0  0.59419  0.69843  0.33546  1.0000
  C   C1444     1.0  0.60901  0.70528  0.37490  1.0000
  H   H2531     1.0  0.97366  0.76832  0.46411  1.0000
  H   H2532     1.0  0.85027  0.83805  0.46224  1.0000
  N   N79       1.0  0.82713  0.71236  0.34058  1.0000
  C   C1445     1.0  0.84296  0.69663  0.33198  1.0000
  C   C1446     1.0  0.82826  0.71021  0.36165  1.0000
  C   C1447     1.0  0.79936  0.70178  0.33802  1.0000
  C   C1448     1.0  0.83818  0.74103  0.33076  1.0000
  C   C1449     1.0  0.86815  0.75397  0.32865  1.0000
  C   C1450     1.0  0.84545  0.69778  0.30998  1.0000
  C   C1451     1.0  0.77937  0.71356  0.34812  1.0000
  C   C1452     1.0  0.81530  0.68257  0.37487  1.0000
  C   C1453     1.0  0.81644  0.68385  0.39591  1.0000
  C   C1454     1.0  0.87643  0.78356  0.32078  1.0000
  C   C1455     1.0  0.86471  0.68399  0.30262  1.0000
  C   C1456     1.0  0.75199  0.70130  0.34455  1.0000
  H   H2533     1.0  0.83442  0.67546  0.33904  1.0000
  H   H2534     1.0  0.86293  0.70274  0.33498  1.0000
  H   H2535     1.0  0.84888  0.71657  0.36336  1.0000
  H   H2536     1.0  0.81939  0.72392  0.36790  1.0000
  H   H2537     1.0  0.79178  0.68001  0.34290  1.0000
  H   H2538     1.0  0.79877  0.70549  0.32242  1.0000
  H   H2539     1.0  0.83365  0.74423  0.31614  1.0000
  H   H2540     1.0  0.82838  0.75279  0.33882  1.0000
  H   H2541     1.0  0.87947  0.74559  0.31856  1.0000
  H   H2542     1.0  0.87414  0.75109  0.34268  1.0000
  H   H2543     1.0  0.82622  0.68767  0.30686  1.0000
  H   H2544     1.0  0.85255  0.71826  0.30157  1.0000
  H   H2545     1.0  0.78513  0.73503  0.34247  1.0000
  H   H2546     1.0  0.77786  0.71003  0.36398  1.0000
  H   H2547     1.0  0.79442  0.67439  0.37423  1.0000
  H   H2548     1.0  0.82571  0.66876  0.37072  1.0000
  H   H2549     1.0  0.80727  0.66390  0.40518  1.0000
  H   H2550     1.0  0.83708  0.69135  0.39746  1.0000
  H   H2551     1.0  0.80566  0.69696  0.40101  1.0000
  H   H2552     1.0  0.86614  0.79305  0.33067  1.0000
  H   H2553     1.0  0.89785  0.79224  0.31958  1.0000
  H   H2554     1.0  0.87198  0.78767  0.30624  1.0000
  H   H2555     1.0  0.86569  0.68430  0.28699  1.0000
  H   H2556     1.0  0.88464  0.69412  0.30464  1.0000
  H   H2557     1.0  0.85840  0.66317  0.31046  1.0000
  H   H2558     1.0  0.73820  0.71043  0.35158  1.0000
  H   H2559     1.0  0.75212  0.70469  0.32885  1.0000
  H   H2560     1.0  0.74466  0.67985  0.35072  1.0000
  N   N80       1.0  0.98004  0.69826  0.37549  1.0000
  C   C1457     1.0  0.58149  0.69831  0.36978  1.0000
  H   H2561     1.0  0.53368  0.57824  0.26235  1.0000
  N   N81       1.0  0.57767  0.68188  0.35462  1.0000
  C   C1458     1.0  0.54896  0.91660  0.25517  1.0000
  H   H2562     1.0  0.58287  0.64567  0.34832  1.0000
  H   H2563     1.0  0.57470  0.66324  0.26878  1.0000
  C   C1459     1.0  0.80931  0.55071  0.28801  1.0000
  S   S348      1.0  0.53945  0.92016  0.34903  1.0000
  C   C1460     1.0  0.65681  0.92064  0.41279  1.0000
  C   C1461     1.0  0.78036  0.93290  0.48128  1.0000
  C   C1462     1.0  0.66343  0.96930  0.35345  1.0000
  H   H2564     1.0  0.53804  0.70798  0.35819  1.0000
  H   H2565     1.0  0.55532  0.91456  0.26916  1.0000
  S   S349      1.0  0.52964  0.64227  0.30892  1.0000
  H   H2566     1.0  0.88561  0.86971  0.34804  1.0000
  H   H2567     1.0  0.65221  0.52387  0.30933  1.0000
  S   S350      1.0  0.78258  0.92791  0.41459  1.0000
  H   H2568     1.0  0.91891  0.55611  0.26086  1.0000
  H   H2569     1.0  0.70450  0.51992  0.25628  1.0000
  C   C1463     1.0  0.83606  0.92278  0.37590  1.0000
  Fe  Fe173     1.0  0.72514  0.97637  0.43605  1.0000
  Fe  Fe174     1.0  0.76622  0.96171  0.41100  1.0000
  H   H2570     1.0  0.56936  0.68456  0.31530  1.0000
  H   H2571     1.0  0.53704  0.66202  0.36842  1.0000
  H   H2572     1.0  0.82173  0.93378  0.37550  1.0000
  H   H2573     1.0  0.49120  0.49525  0.26646  1.0000
  C   C1464     1.0  0.86523  0.50681  0.34070  1.0000
  H   H2574     1.0  0.84717  0.50615  0.33624  1.0000
  H   H2575     1.0  0.54643  0.82949  0.31055  1.0000
  N   N82       1.0  0.83310  0.85107  0.37137  1.0000
  C   C1465     1.0  0.81243  0.83634  0.38931  1.0000
  C   C1466     1.0  0.82219  0.84659  0.35355  1.0000
  C   C1467     1.0  0.85550  0.83981  0.37131  1.0000
  C   C1468     1.0  0.84385  0.88000  0.37123  1.0000
  C   C1469     1.0  0.82083  0.83798  0.40888  1.0000
  C   C1470     1.0  0.87668  0.84808  0.35229  1.0000
  C   C1471     1.0  0.79300  0.84467  0.35451  1.0000
  C   C1472     1.0  0.78607  0.84471  0.33467  1.0000
  C   C1473     1.0  0.79806  0.82250  0.42572  1.0000
  C   C1474     1.0  0.89882  0.83652  0.35459  1.0000
  H   H2576     1.0  0.80515  0.81514  0.38873  1.0000
  H   H2577     1.0  0.79493  0.84295  0.39004  1.0000
  H   H2578     1.0  0.83433  0.86207  0.34078  1.0000
  H   H2579     1.0  0.82331  0.82750  0.35012  1.0000
  H   H2580     1.0  0.84777  0.81800  0.37452  1.0000
  H   H2581     1.0  0.86604  0.84518  0.38295  1.0000
  H   H2582     1.0  0.80646  0.88535  0.38355  1.0000
  H   H2583     1.0  0.81813  0.89827  0.35791  1.0000
  H   H2584     1.0  0.83677  0.82929  0.41007  1.0000
  H   H2585     1.0  0.82732  0.85863  0.41067  1.0000
  H   H2586     1.0  0.86824  0.84094  0.34024  1.0000
  H   H2587     1.0  0.78019  0.82600  0.36428  1.0000
  H   H2588     1.0  0.78788  0.86084  0.36006  1.0000
  H   H2589     1.0  0.78978  0.82799  0.32884  1.0000
  H   H2590     1.0  0.76494  0.84261  0.33598  1.0000
  H   H2591     1.0  0.79765  0.86347  0.32446  1.0000
  H   H2592     1.0  0.80423  0.82415  0.43965  1.0000
  H   H2593     1.0  0.78124  0.83010  0.42551  1.0000
  H   H2594     1.0  0.79162  0.80145  0.42488  1.0000
  H   H2595     1.0  0.90895  0.84413  0.36582  1.0000
  H   H2596     1.0  0.61637  0.87625  0.24465  1.0000
  C   C1475     1.0  0.53735  0.69500  0.34760  1.0000
  H   H2597     1.0  0.56031  0.67211  0.23774  1.0000
  Fe  Fe175     1.0  0.72748  0.98246  0.39260  1.0000
  H   H2598     1.0  0.92524  0.52991  0.29138  1.0000
  C   C1476     1.0  0.57239  0.63934  0.37916  1.0000
  H   H2599     1.0  0.56276  0.86433  0.27215  1.0000
  C   C1477     1.0  0.67569  0.97700  0.36837  1.0000
  N   N83       1.0  0.56535  0.88080  0.24226  1.0000
  C   C1478     1.0  0.48510  0.66949  0.27655  1.0000
  H   H2600     1.0  0.61315  0.68740  0.38141  1.0000
  H   H2601     1.0  0.51721  0.65348  0.24023  1.0000
  Fe  Fe176     1.0  0.96924  0.77222  0.41993  1.0000
  C   C1479     1.0  0.96154  0.52169  0.29475  1.0000
  C   C1480     1.0  0.90852  0.67617  0.40643  1.0000
  H   H2602     1.0  0.94785  0.54714  0.25383  1.0000
  C   C1481     1.0  0.55533  0.62979  0.24512  1.0000
  H   H2603     1.0  0.60587  0.62696  0.38436  1.0000
  H   H2604     1.0  0.49744  0.60303  0.29131  1.0000
  H   H2605     1.0  0.89058  0.65952  0.40735  1.0000
  H   H2606     1.0  0.58648  0.89538  0.26357  1.0000
  H   H2607     1.0  0.60370  0.86571  0.34784  1.0000
  H   H2608     1.0  0.61526  0.70240  0.33559  1.0000
  H   H2609     1.0  0.83590  0.57680  0.30135  1.0000
  C   C1482     1.0  0.65544  0.86893  0.40246  1.0000
  H   H2610     1.0  0.51534  0.79062  0.25279  1.0000
  H   H2611     1.0  0.57324  0.65005  0.39114  1.0000
  Fe  Fe177     1.0  0.51823  0.94497  0.33501  1.0000
  C   C1483     1.0  0.72264  0.98527  0.47981  1.0000
  H   H2612     1.0  0.62610  0.85082  0.27255  1.0000
  H   H2613     1.0  0.62864  0.91559  0.43938  1.0000
  C   C1484     1.0  0.58514  0.61804  0.38350  1.0000
  H   H2614     1.0  0.91621  0.59912  0.24332  1.0000
  H   H2615     1.0  0.66076  0.54034  0.27343  1.0000
  H   H2616     1.0  0.60205  0.65554  0.25592  1.0000
  H   H2617     1.0  0.95010  0.57446  0.26529  1.0000
  H   H2618     1.0  0.78156  0.77251  0.45602  1.0000
  S   S351      1.0  0.92753  0.56318  0.34775  1.0000
  H   H2619     1.0  0.48125  0.56798  0.32843  1.0000
  H   H2620     1.0  0.49801  0.83277  0.35713  1.0000
  H   H2621     1.0  0.58442  0.60622  0.37213  1.0000
  C   C1485     1.0  0.67124  0.90651  0.37434  1.0000
  C   C1486     1.0  0.68300  0.89390  0.35875  1.0000
  H   H2622     1.0  0.56465  0.93235  0.24451  1.0000
  H   H2623     1.0  0.68403  0.51113  0.28679  1.0000
  C   C1487     1.0  0.65288  0.84184  0.39702  1.0000
  H   H2624     1.0  0.50973  0.85989  0.36864  1.0000
  C   C1488     1.0  0.70398  0.91495  0.34306  1.0000
  H   H2625     1.0  0.53106  0.89086  0.23702  1.0000
  S   S352      1.0  0.94481  0.63657  0.32979  1.0000
  H   H2626     1.0  0.74409  0.93365  0.47231  1.0000
  H   H2627     1.0  0.63138  0.86139  0.37178  1.0000
  C   C1489     1.0  0.57196  0.50981  0.23456  1.0000
  C   C1490     1.0  0.93170  0.51393  0.29843  1.0000
  H   H2628     1.0  0.96993  0.56367  0.29219  1.0000
  H   H2629     1.0  0.56763  0.61805  0.25023  1.0000
  H   H2630     1.0  0.66655  0.92339  0.36689  1.0000
  H   H2631     1.0  0.68753  0.91545  0.38133  1.0000
  H   H2632     1.0  0.66807  0.88316  0.35150  1.0000
  H   H2633     1.0  0.69245  0.88024  0.36535  1.0000
  H   H2634     1.0  0.54075  0.62839  0.25833  1.0000
  C   C1491     1.0  0.71624  0.74673  0.45826  1.0000
  H   H2635     1.0  0.88004  0.79888  0.45464  1.0000
  H   H2636     1.0  0.92947  0.51057  0.35849  1.0000
  C   C1492     1.0  0.72751  0.87906  0.46753  1.0000
  H   H2637     1.0  0.66320  0.84382  0.38203  1.0000
  H   H2638     1.0  0.69497  0.85546  0.44596  1.0000
  H   H2639     1.0  0.97174  0.65625  0.37817  1.0000
  H   H2640     1.0  0.79939  0.96640  0.45741  1.0000
  H   H2641     1.0  0.69505  0.92796  0.33494  1.0000
  H   H2642     1.0  0.71917  0.92718  0.34948  1.0000
  H   H2643     1.0  0.71360  0.90543  0.33280  1.0000
  S   S353      1.0  0.56285  0.88431  0.31123  1.0000
  H   H2644     1.0  0.64332  0.86422  0.41737  1.0000
  C   C1493     1.0  0.66279  0.50319  0.28705  1.0000
  H   H2645     1.0  0.60847  0.74208  0.38338  1.0000
  H   H2646     1.0  0.93559  0.70756  0.44126  1.0000
  H   H2647     1.0  0.63193  0.83056  0.39846  1.0000
  C   C1494     1.0  0.54240  0.88999  0.24856  1.0000
  H   H2648     1.0  0.84418  0.76121  0.46766  1.0000
  H   H2649     1.0  0.60862  0.86265  0.39176  1.0000
  H   H2650     1.0  0.48526  0.56570  0.27519  1.0000
  H   H2651     1.0  0.97560  0.59012  0.31666  1.0000
  C   C1495     1.0  0.62204  0.97009  0.37105  1.0000
  C   C1496     1.0  0.49409  0.62156  0.28710  1.0000
  N   N84       1.0  0.64772  0.88876  0.38927  1.0000
  C   C1497     1.0  0.63654  0.96513  0.35505  1.0000
  C   C1498     1.0  0.62573  0.87515  0.38021  1.0000
  S   S354      1.0  0.70868  0.97887  0.36669  1.0000
  C   C1499     1.0  0.94629  0.69573  0.46836  1.0000
  C   C1500     1.0  0.58623  0.65797  0.35929  1.0000
  H   H2652     1.0  0.50882  0.91099  0.26915  1.0000
  C   C1501     1.0  0.49848  0.85322  0.35770  1.0000
  H   H2653     1.0  0.57453  0.60465  0.39755  1.0000
  H   H2654     1.0  0.54546  0.82709  0.26288  1.0000
  C   C1502     1.0  0.51986  0.57217  0.25289  1.0000
  H   H2655     1.0  0.59956  0.68813  0.25041  1.0000
  C   C1503     1.0  0.69922  0.87711  0.44254  1.0000
  Fe  Fe178     1.0  0.78004  0.49823  0.24559  1.0000
  H   H2656     1.0  0.68140  0.88112  0.43924  1.0000
  C   C1504     1.0  0.65504  0.51999  0.27080  1.0000
  C   C1505     1.0  0.75145  0.76875  0.48055  1.0000
  H   H2657     1.0  0.93979  0.65203  0.25183  1.0000
  H   H2658     1.0  0.59627  0.71345  0.40305  1.0000
  H   H2659     1.0  0.96626  0.50504  0.30261  1.0000
  C   C1506     1.0  0.61031  0.85989  0.27485  1.0000
  H   H2660     1.0  0.87111  0.50209  0.27921  1.0000
  H   H2661     1.0  0.94653  0.61490  0.24886  1.0000
  H   H2662     1.0  0.59248  0.84403  0.25286  1.0000
  H   H2663     1.0  0.62654  0.49467  0.30828  1.0000
  C   C1507     1.0  0.64292  0.93175  0.42803  1.0000
  H   H2664     1.0  0.71810  0.85759  0.47359  1.0000
  H   H2665     1.0  0.60622  0.90531  0.37442  1.0000
  H   H2666     1.0  0.85897  0.89027  0.35790  1.0000
  C   C1508     1.0  0.48600  0.50446  0.35249  1.0000
  H   H2667     1.0  0.50428  0.60436  0.24988  1.0000
  H   H2668     1.0  0.68511  0.83577  0.40982  1.0000
  H   H2669     1.0  0.89075  0.82412  0.46710  1.0000
  H   H2670     1.0  0.55154  0.62928  0.37923  1.0000
  H   H2671     1.0  0.60770  0.66387  0.35840  1.0000
  H   H2672     1.0  0.85434  0.88304  0.38324  1.0000
  C   C1509     1.0  0.87272  0.81000  0.46478  1.0000
  C   C1510     1.0  0.85804  0.82570  0.45351  1.0000
  H   H2673     1.0  0.80046  0.49388  0.29330  1.0000
  C   C1511     1.0  0.87641  0.84391  0.43514  1.0000
  H   H2674     1.0  0.63088  0.72749  0.39298  1.0000
  Fe  Fe179     1.0  0.96116  0.82540  0.41198  1.0000
  H   H2675     1.0  0.65415  0.98605  0.27062  1.0000
  C   C1512     1.0  0.80484  0.54256  0.27081  1.0000
  H   H2676     1.0  0.71530  0.88575  0.42956  1.0000
  N   N85       1.0  0.85704  0.79166  0.48354  1.0000
  H   H2677     1.0  0.89956  0.77389  0.46864  1.0000
  H   H2678     1.0  0.84150  0.81217  0.44912  1.0000
  C   C1513     1.0  0.58948  0.68671  0.31740  1.0000
  C   C1514     1.0  0.65440  0.53458  0.23704  1.0000
  C   C1515     1.0  0.93184  0.71026  0.45638  1.0000
  C   C1516     1.0  0.50729  0.64351  0.29382  1.0000
  H   H2679     1.0  0.88284  0.83221  0.42505  1.0000
  H   H2680     1.0  0.86613  0.85617  0.42783  1.0000
  H   H2681     1.0  0.89396  0.85726  0.43862  1.0000
  H   H2682     1.0  0.76454  0.92174  0.45713  1.0000
  C   C1517     1.0  0.61112  0.72317  0.38948  1.0000
  C   C1518     1.0  0.65973  0.49123  0.24820  1.0000
  H   H2683     1.0  0.62460  0.71570  0.36189  1.0000
  C   C1519     1.0  0.76072  0.76625  0.46185  1.0000
  H   H2684     1.0  0.75051  0.75267  0.43655  1.0000
  H   H2685     1.0  0.79469  0.54194  0.30122  1.0000
  H   H2686     1.0  0.95904  0.68282  0.35432  1.0000
  C   C1520     1.0  0.94040  0.56389  0.25503  1.0000
  H   H2687     1.0  0.54519  0.65846  0.34438  1.0000
  H   H2688     1.0  0.89117  0.81474  0.35865  1.0000
  C   C1521     1.0  0.53386  0.86375  0.30680  1.0000
  H   H2689     1.0  0.59244  0.66722  0.31862  1.0000
  H   H2690     1.0  0.64611  0.56419  0.25266  1.0000
  H   H2691     1.0  0.66268  0.80642  0.40602  1.0000
  S   S355      1.0  0.72256  0.94804  0.41622  1.0000
  C   C1522     1.0  0.54903  0.67291  0.35393  1.0000
  H   H2692     1.0  0.51809  0.83530  0.25575  1.0000
  H   H2693     1.0  0.63230  0.92106  0.39245  1.0000
  C   C1523     1.0  0.69594  0.53219  0.24704  1.0000
  H   H2694     1.0  0.57812  0.86385  0.36801  1.0000
  H   H2695     1.0  0.94984  0.71581  0.38262  1.0000
  H   H2696     1.0  0.87783  0.54893  0.33667  1.0000
  H   H2697     1.0  0.96771  0.81912  0.48095  1.0000
  C   C1524     1.0  0.74318  0.75523  0.45075  1.0000
  H   H2698     1.0  0.96149  0.54552  0.31612  1.0000
  C   C1525     1.0  0.58816  0.66690  0.25457  1.0000
  H   H2699     1.0  0.56660  0.68864  0.38338  1.0000
  H   H2700     1.0  0.67458  0.96546  0.34098  1.0000
  C   C1526     1.0  0.51399  0.87363  0.30213  1.0000
  C   C1527     1.0  0.53132  0.83737  0.30679  1.0000
  H   H2701     1.0  0.52988  0.94466  0.26289  1.0000
  H   H2702     1.0  0.49169  0.50726  0.32173  1.0000
  C   C1528     1.0  0.63753  0.90557  0.40148  1.0000
  C   C1529     1.0  0.66412  0.82540  0.41050  1.0000
  S   S356      1.0  0.76864  0.98818  0.43227  1.0000
  C   C1530     1.0  0.51678  0.59653  0.24030  1.0000
  C   C1531     1.0  0.85027  0.49458  0.27822  1.0000
  H   H2703     1.0  0.63190  0.90666  0.35471  1.0000
  C   C1532     1.0  0.64797  0.50346  0.30693  1.0000
  C   C1533     1.0  0.52490  0.92571  0.25805  1.0000
  H   H2704     1.0  0.58809  0.89080  0.34750  1.0000
  H   H2705     1.0  0.50871  0.86621  0.34346  1.0000
  C   C1534     1.0  0.53670  0.83170  0.25038  1.0000
  C   C1535     1.0  0.49259  0.85777  0.29625  1.0000
  C   C1536     1.0  0.58467  0.52179  0.26927  1.0000
  H   H2706     1.0  0.58998  0.52652  0.28253  1.0000
  H   H2707     1.0  0.50699  0.67103  0.33541  1.0000
  H   H2708     1.0  0.93479  0.65575  0.39709  1.0000
  H   H2709     1.0  0.96726  0.70317  0.46114  1.0000
  H   H2710     1.0  0.50072  0.69965  0.34203  1.0000
  H   H2711     1.0  0.63246  0.94440  0.42139  1.0000
  H   H2712     1.0  0.83853  0.49762  0.30714  1.0000
  H   H2713     1.0  0.59444  0.84679  0.28699  1.0000
  H   H2714     1.0  0.91038  0.70258  0.46229  1.0000
  Fe  Fe180     1.0  0.56744  0.98029  0.30675  1.0000
  H   H2715     1.0  0.65756  0.94382  0.43495  1.0000
  H   H2716     1.0  0.91348  0.67529  0.42091  1.0000
  H   H2717     1.0  0.74289  0.88076  0.45472  1.0000
  S   S357      1.0  0.70407  0.96426  0.46716  1.0000
  C   C1537     1.0  0.52979  0.80715  0.24178  1.0000
  S   S358      1.0  0.58853  0.96585  0.37299  1.0000
  C   C1538     1.0  0.50964  0.82133  0.30135  1.0000
  H   H2718     1.0  0.65415  0.49178  0.31834  1.0000
  H   H2719     1.0  0.49677  0.67151  0.36058  1.0000
  H   H2720     1.0  0.65312  0.82125  0.42564  1.0000
  C   C1539     1.0  0.77503  0.86996  0.47574  1.0000
  C   C1540     1.0  0.50246  0.66731  0.28871  1.0000
  H   H2721     1.0  0.92334  0.50941  0.31412  1.0000
  C   C1541     1.0  0.49071  0.83175  0.29549  1.0000
  N   N86       1.0  0.66667  0.51962  0.25030  1.0000
  H   H2722     1.0  0.95968  0.75651  0.32076  1.0000
  H   H2723     1.0  0.63296  0.52423  0.23970  1.0000
  H   H2724     1.0  0.79604  0.92409  0.47757  1.0000
  C   C1542     1.0  0.50871  0.68350  0.34638  1.0000
  C   C1543     1.0  0.93102  0.67426  0.39166  1.0000
  H   H2725     1.0  0.82146  0.77769  0.47311  1.0000
  H   H2726     1.0  0.79467  0.49675  0.32719  1.0000
  C   C1544     1.0  0.59978  0.86365  0.25642  1.0000
  H   H2727     1.0  0.74777  0.70913  0.47255  1.0000
  H   H2728     1.0  0.90820  0.49129  0.26376  1.0000
  H   H2729     1.0  0.92381  0.49600  0.29282  1.0000
  C   C1545     1.0  0.57799  0.49144  0.24738  1.0000
  H   H2730     1.0  0.51239  0.68427  0.29401  1.0000
  H   H2731     1.0  0.90424  0.69479  0.40215  1.0000
  H   H2732     1.0  0.68838  0.88356  0.47086  1.0000
  H   H2733     1.0  0.93853  0.67465  0.46792  1.0000
  C   C1546     1.0  0.75641  0.92041  0.47265  1.0000
  H   H2734     1.0  0.50805  0.80110  0.30095  1.0000
  H   H2735     1.0  0.92424  0.67266  0.37796  1.0000
  H   H2736     1.0  0.93892  0.73164  0.45611  1.0000
  H   H2737     1.0  0.84476  0.51144  0.27138  1.0000
  H   H2738     1.0  0.78605  0.88745  0.46414  1.0000
  S   S359      1.0  0.97178  0.86434  0.42148  1.0000
  C   C1547     1.0  0.57351  0.53459  0.23866  1.0000
  C   C1548     1.0  0.57262  0.65912  0.23923  1.0000
  H   H2739     1.0  0.96887  0.52413  0.27903  1.0000
  H   H2740     1.0  0.87292  0.74542  0.48146  1.0000
  C   C1549     1.0  0.70690  0.74873  0.47715  1.0000
  C   C1550     1.0  0.95566  0.69868  0.38855  1.0000
  H   H2741     1.0  0.79222  0.50006  0.36344  1.0000
  H   H2742     1.0  0.97043  0.66524  0.41285  1.0000
  C   C1551     1.0  0.65779  0.56347  0.23871  1.0000
  H   H2743     1.0  0.62327  0.98259  0.39812  1.0000
  H   H2744     1.0  0.97088  0.51645  0.33563  1.0000
  C   C1552     1.0  0.92373  0.68200  0.24184  1.0000
  C   C1553     1.0  0.63445  0.97869  0.38569  1.0000
  H   H2745     1.0  0.97563  0.84811  0.46218  1.0000
  H   H2746     1.0  0.56365  0.50229  0.33974  1.0000
  H   H2747     1.0  0.97571  0.69364  0.31748  1.0000
  H   H2748     1.0  0.97724  0.62420  0.40501  1.0000
  C   C1554     1.0  0.79195  0.96241  0.47326  1.0000
  H   H2749     1.0  0.58011  0.49519  0.31843  1.0000
  H   H2750     1.0  0.81002  0.71727  0.47909  1.0000
  H   H2751     1.0  0.77705  0.97239  0.47648  1.0000
  H   H2752     1.0  0.76448  0.85427  0.46884  1.0000
  C   C1555     1.0  0.83592  0.76981  0.47917  1.0000
  H   H2753     1.0  0.67861  0.57471  0.23762  1.0000
  C   C1556     1.0  0.94639  0.58215  0.23529  1.0000
  C   C1557     1.0  0.49435  0.98593  0.23621  1.0000
  C   C1558     1.0  0.94042  0.66431  0.23780  1.0000
  H   H2754     1.0  0.96901  0.71725  0.35100  1.0000
  H   H2755     1.0  0.95952  0.70181  0.40297  1.0000
  H   H2756     1.0  0.48186  0.68815  0.27244  1.0000
  H   H2757     1.0  0.80786  0.85477  0.47414  1.0000
  H   H2758     1.0  0.80853  0.97066  0.48011  1.0000
  C   C1559     1.0  0.97549  0.70003  0.35519  1.0000
  H   H2759     1.0  0.93178  0.69448  0.25177  1.0000
  C   C1560     1.0  0.93766  0.60652  0.23733  1.0000
  H   H2760     1.0  0.89285  0.52430  0.23771  1.0000
  H   H2761     1.0  0.74532  0.67947  0.46363  1.0000
  C   C1561     1.0  0.73448  0.68928  0.47283  1.0000
  H   H2762     1.0  0.71751  0.69120  0.46661  1.0000
  C   C1562     1.0  0.55549  0.85580  0.23506  1.0000
  H   H2763     1.0  0.74959  0.54626  0.23519  1.0000
  N   N87       1.0  0.73970  0.89258  0.48236  1.0000
  H   H2764     1.0  0.67062  0.98804  0.39596  1.0000
  C   C1563     1.0  0.88793  0.76318  0.48315  1.0000
  H   H2765     1.0  0.78616  0.73410  0.48363  1.0000
  H   H2766     1.0  0.68737  0.90967  0.52412  1.0000
  H   H2767     1.0  0.89587  0.69654  0.55564  1.0000
  H   H2768     1.0  0.93113  0.54912  0.69221  1.0000
  Fe  Fe181     1.0  0.95917  0.77978  0.54664  1.0000
  H   H2769     1.0  0.70716  0.91212  0.54203  1.0000
  S   S360      1.0  0.91930  0.75873  0.54210  1.0000
  H   H2770     1.0  0.90547  0.65170  0.49932  1.0000
  C   C1564     1.0  0.68052  0.95285  0.57728  1.0000
  H   H2771     1.0  0.58749  0.51685  0.69621  1.0000
  H   H2772     1.0  0.55144  0.51369  0.59419  1.0000
  H   H2773     1.0  0.97016  0.66828  0.61546  1.0000
  H   H2774     1.0  0.58574  0.53130  0.59120  1.0000
  S   S361      1.0  0.54997  0.52360  0.66145  1.0000
  Fe  Fe182     1.0  0.78838  0.78630  0.55943  1.0000
  S   S362      1.0  0.75022  0.77432  0.58086  1.0000
  S   S363      1.0  0.82662  0.80211  0.56868  1.0000
  Fe  Fe183     1.0  0.76135  0.77815  0.52565  1.0000
  S   S364      1.0  0.72085  0.76552  0.54407  1.0000
  H   H2775     1.0  0.96238  0.70855  0.52496  1.0000
  Fe  Fe184     1.0  0.73778  0.79892  0.55838  1.0000
  S   S365      1.0  0.71701  0.82791  0.56546  1.0000
  Fe  Fe185     1.0  0.73679  0.74202  0.56489  1.0000
  S   S366      1.0  0.71987  0.69883  0.57900  1.0000
  S   S367      1.0  0.77688  0.81327  0.53814  1.0000
  S   S368      1.0  0.77619  0.75216  0.54519  1.0000
  C   C1565     1.0  0.89154  0.58739  0.69458  1.0000
  H   H2776     1.0  0.83670  0.50987  0.70927  1.0000
  C   C1566     1.0  0.90281  0.54716  0.71750  1.0000
  H   H2777     1.0  0.63708  0.72893  0.67938  1.0000
  H   H2778     1.0  0.64583  0.71199  0.64951  1.0000
  C   C1567     1.0  0.62249  0.72534  0.67005  1.0000
  C   C1568     1.0  0.91074  0.57726  0.68675  1.0000
  H   H2779     1.0  0.83294  0.73738  0.50319  1.0000
  C   C1569     1.0  0.57136  0.51165  0.59248  1.0000
  C   C1570     1.0  0.95505  0.66654  0.58983  1.0000
  Fe  Fe186     1.0  0.58613  0.59733  0.63619  1.0000
  S   S369      1.0  0.59823  0.57734  0.66141  1.0000
  S   S370      1.0  0.60144  0.64064  0.62162  1.0000
  Fe  Fe187     1.0  0.59212  0.54295  0.64663  1.0000
  S   S371      1.0  0.62144  0.52113  0.64161  1.0000
  S   S372      1.0  0.58340  0.56441  0.62034  1.0000
  C   C1571     1.0  0.92081  0.69378  0.52990  1.0000
  H   H2780     1.0  0.83424  0.79238  0.51094  1.0000
  H   H2781     1.0  0.80925  0.75410  0.50767  1.0000
  H   H2782     1.0  0.94142  0.68998  0.67767  1.0000
  C   C1572     1.0  0.91513  0.50572  0.66117  1.0000
  H   H2783     1.0  0.60830  0.70531  0.67582  1.0000
  H   H2784     1.0  0.66680  0.65295  0.50960  1.0000
  H   H2785     1.0  0.65340  0.97007  0.55223  1.0000
  H   H2786     1.0  0.74042  0.92171  0.56771  1.0000
  C   C1573     1.0  0.94240  0.69997  0.48943  1.0000
  C   C1574     1.0  0.67926  0.98075  0.57197  1.0000
  C   C1575     1.0  0.82010  0.74693  0.49646  1.0000
  C   C1576     1.0  0.84415  0.80567  0.49667  1.0000
  H   H2787     1.0  0.70419  0.87215  0.50384  1.0000
  C   C1577     1.0  0.80006  0.72572  0.48999  1.0000
  C   C1578     1.0  0.86258  0.83076  0.50098  1.0000
  C   C1579     1.0  0.67192  0.98572  0.55195  1.0000
  C   C1580     1.0  0.86846  0.49840  0.69492  1.0000
  H   H2788     1.0  0.69990  0.69743  0.63296  1.0000
  H   H2789     1.0  0.73322  0.83594  0.62941  1.0000
  H   H2790     1.0  0.89189  0.79747  0.49538  1.0000
  H   H2791     1.0  0.82821  0.81096  0.49076  1.0000
  C   C1581     1.0  0.68705  0.68328  0.59129  1.0000
  C   C1582     1.0  0.66776  0.69508  0.58908  1.0000
  C   C1583     1.0  0.64158  0.68174  0.59847  1.0000
  C   C1584     1.0  0.63448  0.65641  0.60997  1.0000
  C   C1585     1.0  0.65376  0.64452  0.61210  1.0000
  C   C1586     1.0  0.68000  0.65800  0.60286  1.0000
  H   H2792     1.0  0.67304  0.71433  0.58001  1.0000
  H   H2793     1.0  0.62662  0.69085  0.59671  1.0000
  H   H2794     1.0  0.64846  0.62501  0.62096  1.0000
  H   H2795     1.0  0.69484  0.64870  0.60458  1.0000
  S   S373      1.0  0.97115  0.80293  0.56900  1.0000
  H   H2796     1.0  0.78875  0.70975  0.50262  1.0000
  C   C1587     1.0  0.49755  0.97980  0.69576  1.0000
  H   H2797     1.0  0.73015  0.71600  0.63836  1.0000
  C   C1588     1.0  0.95984  0.69121  0.66786  1.0000
  H   H2798     1.0  0.91974  0.60240  0.51405  1.0000
  Fe  Fe188     1.0  0.54151  0.54749  0.63633  1.0000
  H   H2799     1.0  0.62278  0.76300  0.57868  1.0000
  H   H2800     1.0  0.70588  0.90429  0.49211  1.0000
  H   H2801     1.0  0.71729  0.76193  0.50269  1.0000
  C   C1589     1.0  0.77412  0.90833  0.56540  1.0000
  C   C1590     1.0  0.78294  0.88657  0.56477  1.0000
  C   C1591     1.0  0.76539  0.86182  0.56525  1.0000
  C   C1592     1.0  0.73884  0.85862  0.56618  1.0000
  C   C1593     1.0  0.72976  0.88015  0.56749  1.0000
  C   C1594     1.0  0.74741  0.90508  0.56695  1.0000
  H   H2802     1.0  0.80350  0.88887  0.56392  1.0000
  H   H2803     1.0  0.77247  0.84521  0.56511  1.0000
  H   H2804     1.0  0.70912  0.87757  0.56879  1.0000
  H   H2805     1.0  0.62038  0.72256  0.64088  1.0000
  H   H2806     1.0  0.87685  0.82578  0.50905  1.0000
  C   C1595     1.0  0.84709  0.84398  0.51344  1.0000
  H   H2807     1.0  0.48431  0.50251  0.59528  1.0000
  H   H2808     1.0  0.48084  0.62784  0.72688  1.0000
  H   H2809     1.0  0.87826  0.51860  0.68630  1.0000
  N   N88       1.0  0.95429  0.68520  0.50316  1.0000
  C   C1596     1.0  0.72557  0.90451  0.51538  1.0000
  H   H2810     1.0  0.96789  0.55751  0.72617  1.0000
  H   H2811     1.0  0.56768  0.50026  0.62300  1.0000
  H   H2812     1.0  0.74162  0.85704  0.49959  1.0000
  C   C1597     1.0  0.89328  0.76975  0.55068  1.0000
  C   C1598     1.0  0.89666  0.78928  0.56152  1.0000
  C   C1599     1.0  0.87587  0.79877  0.56727  1.0000
  C   C1600     1.0  0.85177  0.78889  0.56205  1.0000
  C   C1601     1.0  0.84826  0.76890  0.55159  1.0000
  C   C1602     1.0  0.86888  0.75908  0.54617  1.0000
  H   H2813     1.0  0.91524  0.79704  0.56548  1.0000
  H   H2814     1.0  0.87838  0.81374  0.57580  1.0000
  H   H2815     1.0  0.82966  0.76088  0.54778  1.0000
  H   H2816     1.0  0.86595  0.74335  0.53832  1.0000
  H   H2817     1.0  0.63657  0.64934  0.53945  1.0000
  H   H2818     1.0  0.73818  0.98590  0.52399  1.0000
  H   H2819     1.0  0.83838  0.83130  0.52803  1.0000
  S   S374      1.0  0.54327  0.58218  0.65007  1.0000
  H   H2820     1.0  0.72285  0.75763  0.62507  1.0000
  C   C1603     1.0  0.48920  0.54033  0.72834  1.0000
  H   H2821     1.0  0.71078  0.95669  0.50650  1.0000
  H   H2822     1.0  0.91591  0.74230  0.48617  1.0000
  H   H2823     1.0  0.71603  0.84013  0.61021  1.0000
  H   H2824     1.0  0.64760  0.76395  0.55853  1.0000
  N   N89       1.0  0.93533  0.88274  0.54943  1.0000
  H   H2825     1.0  0.95441  0.65246  0.48933  1.0000
  C   C1604     1.0  0.90748  0.87854  0.55947  1.0000
  H   H2826     1.0  0.91602  0.49709  0.69858  1.0000
  C   C1605     1.0  0.93718  0.86052  0.53943  1.0000
  C   C1606     1.0  0.93369  0.86332  0.51816  1.0000
  H   H2827     1.0  0.91164  0.53944  0.61655  1.0000
  C   C1607     1.0  0.94226  0.85915  0.58170  1.0000
  C   C1608     1.0  0.88677  0.87600  0.54677  1.0000
  C   C1609     1.0  0.86049  0.87562  0.55827  1.0000
  C   C1610     1.0  0.71773  0.89259  0.49807  1.0000
  C   C1611     1.0  0.91603  0.64172  0.50832  1.0000
  C   C1612     1.0  0.88447  0.55824  0.72556  1.0000
  H   H2828     1.0  0.89985  0.86005  0.57060  1.0000
  H   H2829     1.0  0.90685  0.89464  0.56735  1.0000
  H   H2830     1.0  0.97215  0.88569  0.55825  1.0000
  H   H2831     1.0  0.62458  0.98001  0.57374  1.0000
  H   H2832     1.0  0.92255  0.84184  0.54783  1.0000
  H   H2833     1.0  0.83121  0.84789  0.50673  1.0000
  H   H2834     1.0  0.91580  0.86825  0.51628  1.0000
  C   C1613     1.0  0.70128  0.90138  0.53061  1.0000
  H   H2835     1.0  0.91650  0.55276  0.63770  1.0000
  H   H2836     1.0  0.92472  0.85945  0.59180  1.0000
  H   H2837     1.0  0.89275  0.89247  0.53409  1.0000
  H   H2838     1.0  0.88331  0.85705  0.54192  1.0000
  H   H2839     1.0  0.86224  0.89453  0.56294  1.0000
  H   H2840     1.0  0.84559  0.87256  0.54916  1.0000
  H   H2841     1.0  0.85336  0.85929  0.57119  1.0000
  H   H2842     1.0  0.88859  0.60348  0.50912  1.0000
  S   S375      1.0  0.50979  0.53323  0.61992  1.0000
  C   C1614     1.0  0.93228  0.83794  0.51102  1.0000
  C   C1615     1.0  0.79457  0.85996  0.48515  1.0000
  C   C1616     1.0  0.75515  0.87626  0.49080  1.0000
  H   H2843     1.0  0.97143  0.64100  0.73179  1.0000
  C   C1617     1.0  0.57134  0.50545  0.70869  1.0000
  H   H2844     1.0  0.71124  0.78810  0.63688  1.0000
  S   S376      1.0  0.92745  0.59021  0.66265  1.0000
  S   S377      1.0  0.53885  0.55675  0.70591  1.0000
  H   H2845     1.0  0.61163  0.73978  0.67064  1.0000
  H   H2846     1.0  0.88701  0.60283  0.68576  1.0000
  C   C1618     1.0  0.91648  0.55720  0.69823  1.0000
  H   H2847     1.0  0.73960  0.82254  0.60833  1.0000
  H   H2848     1.0  0.95653  0.85729  0.53923  1.0000
  H   H2849     1.0  0.94882  0.65886  0.70865  1.0000
  H   H2850     1.0  0.91686  0.61366  0.48959  1.0000
  H   H2851     1.0  0.68793  0.80552  0.63868  1.0000
  H   H2852     1.0  0.92937  0.84027  0.49593  1.0000
  H   H2853     1.0  0.90671  0.49537  0.63397  1.0000
  N   N90       1.0  0.69498  0.66961  0.52634  1.0000
  C   C1619     1.0  0.68465  0.68699  0.53781  1.0000
  C   C1620     1.0  0.71366  0.65978  0.53657  1.0000
  C   C1621     1.0  0.71056  0.68656  0.50697  1.0000
  C   C1622     1.0  0.67339  0.64703  0.52306  1.0000
  C   C1623     1.0  0.64802  0.63543  0.53919  1.0000
  C   C1624     1.0  0.66848  0.70217  0.52771  1.0000
  C   C1625     1.0  0.72532  0.67315  0.49349  1.0000
  C   C1626     1.0  0.70157  0.64033  0.55621  1.0000
  C   C1627     1.0  0.72281  0.63463  0.56615  1.0000
  H   H2854     1.0  0.92202  0.77112  0.49648  1.0000
  C   C1628     1.0  0.65209  0.71240  0.54200  1.0000
  C   C1629     1.0  0.94755  0.63784  0.71065  1.0000
  H   H2855     1.0  0.70116  0.70201  0.54122  1.0000
  H   H2856     1.0  0.67265  0.67571  0.55215  1.0000
  H   H2857     1.0  0.72364  0.64899  0.52770  1.0000
  H   H2858     1.0  0.72943  0.67677  0.53875  1.0000
  H   H2859     1.0  0.72531  0.70452  0.50895  1.0000
  H   H2860     1.0  0.69749  0.69382  0.49865  1.0000
  C   C1630     1.0  0.95155  0.88353  0.56478  1.0000
  H   H2861     1.0  0.68109  0.63065  0.52047  1.0000
  H   H2862     1.0  0.57592  0.50470  0.57896  1.0000
  H   H2863     1.0  0.65208  0.63129  0.55378  1.0000
  H   H2864     1.0  0.68197  0.71946  0.51689  1.0000
  H   H2865     1.0  0.65528  0.68985  0.52002  1.0000
  H   H2866     1.0  0.80650  0.87534  0.49159  1.0000
  H   H2867     1.0  0.74311  0.67137  0.49854  1.0000
  H   H2868     1.0  0.68955  0.64808  0.56616  1.0000
  H   H2869     1.0  0.68921  0.62128  0.55402  1.0000
  H   H2870     1.0  0.71350  0.62061  0.58018  1.0000
  H   H2871     1.0  0.73492  0.62578  0.55706  1.0000
  H   H2872     1.0  0.73563  0.65295  0.56908  1.0000
  H   H2873     1.0  0.71271  0.65331  0.49301  1.0000
  H   H2874     1.0  0.91579  0.82123  0.52024  1.0000
  H   H2875     1.0  0.97193  0.68276  0.67638  1.0000
  H   H2876     1.0  0.66507  0.72639  0.54881  1.0000
  H   H2877     1.0  0.64067  0.72290  0.53427  1.0000
  H   H2878     1.0  0.63820  0.69593  0.55336  1.0000
  C   C1631     1.0  0.63032  0.60983  0.53576  1.0000
  H   H2879     1.0  0.68713  0.98203  0.54144  1.0000
  H   H2880     1.0  0.94187  0.92466  0.54341  1.0000
  C   C1632     1.0  0.91438  0.69199  0.55168  1.0000
  H   H2881     1.0  0.66092  0.93822  0.57895  1.0000
  H   H2882     1.0  0.87341  0.84538  0.48755  1.0000
  H   H2883     1.0  0.93731  0.84058  0.57637  1.0000
  H   H2884     1.0  0.73585  0.92590  0.51054  1.0000
  C   C1633     1.0  0.72264  0.97640  0.49920  1.0000
  H   H2885     1.0  0.69127  0.88029  0.53736  1.0000
  H   H2886     1.0  0.95034  0.72146  0.48891  1.0000
  C   C1634     1.0  0.94787  0.69016  0.52334  1.0000
  N   N91       1.0  0.93320  0.67611  0.62158  1.0000
  C   C1635     1.0  0.91665  0.68992  0.61184  1.0000
  C   C1636     1.0  0.91767  0.64759  0.63030  1.0000
  C   C1637     1.0  0.94055  0.68957  0.63784  1.0000
  C   C1638     1.0  0.95819  0.67835  0.60796  1.0000
  H   H2887     1.0  0.66472  0.98310  0.58366  1.0000
  C   C1639     1.0  0.93027  0.71936  0.60206  1.0000
  C   C1640     1.0  0.50572  0.55500  0.71072  1.0000
  C   C1641     1.0  0.89712  0.63318  0.61955  1.0000
  C   C1642     1.0  0.88715  0.60359  0.62780  1.0000
  H   H2888     1.0  0.90723  0.53163  0.72628  1.0000
  C   C1643     1.0  0.91104  0.73145  0.59392  1.0000
  S   S378      1.0  0.75051  0.98603  0.56081  1.0000
  H   H2889     1.0  0.89880  0.68846  0.62253  1.0000
  H   H2890     1.0  0.90916  0.68022  0.60041  1.0000
  H   H2891     1.0  0.93124  0.63591  0.63238  1.0000
  H   H2892     1.0  0.90611  0.64561  0.64505  1.0000
  H   H2893     1.0  0.92288  0.69190  0.64663  1.0000
  H   H2894     1.0  0.95451  0.70974  0.63200  1.0000
  C   C1644     1.0  0.95373  0.67584  0.65206  1.0000
  H   H2895     1.0  0.83102  0.49816  0.68759  1.0000
  C   C1645     1.0  0.90644  0.75405  0.49438  1.0000
  H   H2896     1.0  0.77552  0.92988  0.49717  1.0000
  H   H2897     1.0  0.93814  0.73121  0.61234  1.0000
  H   H2898     1.0  0.94659  0.72153  0.58990  1.0000
  S   S379      1.0  0.77421  0.78346  0.49359  1.0000
  H   H2899     1.0  0.94114  0.65562  0.65933  1.0000
  H   H2900     1.0  0.88000  0.64052  0.62137  1.0000
  H   H2901     1.0  0.90495  0.63624  0.60390  1.0000
  H   H2902     1.0  0.87880  0.59942  0.64355  1.0000
  H   H2903     1.0  0.87163  0.59385  0.62052  1.0000
  H   H2904     1.0  0.90336  0.59507  0.62542  1.0000
  C   C1646     1.0  0.48909  0.97030  0.71576  1.0000
  H   H2905     1.0  0.92787  0.62641  0.70896  1.0000
  C   C1647     1.0  0.72452  0.75980  0.48832  1.0000
  H   H2906     1.0  0.89489  0.73096  0.60567  1.0000
  H   H2907     1.0  0.92139  0.75226  0.58662  1.0000
  H   H2908     1.0  0.90262  0.72083  0.58316  1.0000
  C   C1648     1.0  0.91918  0.53715  0.63002  1.0000
  H   H2909     1.0  0.94747  0.64478  0.59409  1.0000
  H   H2910     1.0  0.49407  0.50757  0.67972  1.0000
  H   H2911     1.0  0.49928  0.48988  0.65230  1.0000
  H   H2912     1.0  0.86025  0.86302  0.51494  1.0000
  H   H2913     1.0  0.93592  0.50742  0.65601  1.0000
  S   S380      1.0  0.79738  0.93900  0.56415  1.0000
  H   H2914     1.0  0.66759  0.78700  0.58174  1.0000
  H   H2915     1.0  0.95079  0.83338  0.51124  1.0000
  H   H2916     1.0  0.61212  0.60239  0.54720  1.0000
  H   H2917     1.0  0.72664  0.71847  0.61370  1.0000
  H   H2918     1.0  0.91600  0.52272  0.66822  1.0000
  H   H2919     1.0  0.78409  0.84208  0.49656  1.0000
  H   H2920     1.0  0.69473  0.94912  0.56604  1.0000
  H   H2921     1.0  0.86483  0.58701  0.72026  1.0000
  H   H2922     1.0  0.86532  0.77013  0.50843  1.0000
  H   H2923     1.0  0.89541  0.74159  0.50866  1.0000
  H   H2924     1.0  0.59444  0.51589  0.72939  1.0000
  H   H2925     1.0  0.67764  0.75865  0.58014  1.0000
  H   H2926     1.0  0.73815  0.89497  0.52250  1.0000
  C   C1649     1.0  0.95179  0.62857  0.73073  1.0000
  H   H2927     1.0  0.59374  0.49312  0.60843  1.0000
  C   C1650     1.0  0.87894  0.57837  0.71407  1.0000
  H   H2928     1.0  0.50808  0.57939  0.68348  1.0000
  H   H2929     1.0  0.95056  0.87905  0.50845  1.0000
  H   H2930     1.0  0.94175  0.67379  0.58196  1.0000
  C   C1651     1.0  0.49541  0.56735  0.69678  1.0000
  H   H2931     1.0  0.94043  0.53964  0.62605  1.0000
  N   N92       1.0  0.67049  0.75938  0.62011  1.0000
  C   C1652     1.0  0.65593  0.75507  0.64066  1.0000
  C   C1653     1.0  0.68878  0.78734  0.61338  1.0000
  C   C1654     1.0  0.65033  0.75512  0.60757  1.0000
  C   C1655     1.0  0.68513  0.73988  0.61775  1.0000
  C   C1656     1.0  0.70578  0.73951  0.63026  1.0000
  C   C1657     1.0  0.63596  0.72727  0.64927  1.0000
  C   C1658     1.0  0.66092  0.76524  0.58544  1.0000
  C   C1659     1.0  0.70245  0.80068  0.62837  1.0000
  C   C1660     1.0  0.72411  0.82636  0.61844  1.0000
  C   C1661     1.0  0.71614  0.71639  0.62870  1.0000
  H   H2932     1.0  0.63255  0.73416  0.57668  1.0000
  C   C1662     1.0  0.63958  0.75593  0.57422  1.0000
  H   H2933     1.0  0.64522  0.76967  0.64173  1.0000
  H   H2934     1.0  0.66957  0.75882  0.65064  1.0000
  H   H2935     1.0  0.70413  0.78862  0.60072  1.0000
  H   H2936     1.0  0.67798  0.80071  0.60815  1.0000
  H   H2937     1.0  0.63549  0.76491  0.61174  1.0000
  H   H2938     1.0  0.63923  0.73384  0.60985  1.0000
  H   H2939     1.0  0.67118  0.71961  0.62053  1.0000
  H   H2940     1.0  0.69565  0.74338  0.60254  1.0000
  H   H2941     1.0  0.69758  0.73766  0.64573  1.0000
  Fe  Fe189     1.0  0.55504  0.55979  0.67418  1.0000
  H   H2942     1.0  0.90810  0.64035  0.52380  1.0000
  H   H2943     1.0  0.76576  0.88552  0.50124  1.0000
  C   C1663     1.0  0.90423  0.51003  0.64271  1.0000
  H   H2944     1.0  0.68701  0.95029  0.59120  1.0000
  H   H2945     1.0  0.97860  0.66446  0.56310  1.0000
  H   H2946     1.0  0.96271  0.63552  0.69939  1.0000
  H   H2947     1.0  0.90457  0.67901  0.52631  1.0000
  Fe  Fe190     1.0  0.78711  0.97641  0.56457  1.0000
  C   C1664     1.0  0.57302  0.49265  0.60996  1.0000
  H   H2948     1.0  0.64032  0.59462  0.53634  1.0000
  C   C1665     1.0  0.61769  0.49188  0.65793  1.0000
  H   H2949     1.0  0.93503  0.90976  0.52385  1.0000
  H   H2950     1.0  0.97074  0.69922  0.60323  1.0000
  H   H2951     1.0  0.93285  0.58811  0.72929  1.0000
  C   C1666     1.0  0.91006  0.61362  0.50505  1.0000
  C   C1667     1.0  0.49349  0.49933  0.62351  1.0000
  H   H2952     1.0  0.57726  0.53847  0.72191  1.0000
  H   H2953     1.0  0.97237  0.67461  0.64436  1.0000
  C   C1668     1.0  0.87538  0.78106  0.49355  1.0000
  H   H2954     1.0  0.96756  0.59839  0.72388  1.0000
  C   C1669     1.0  0.96335  0.85896  0.59342  1.0000
  H   H2955     1.0  0.97340  0.93450  0.49757  1.0000
  C   C1670     1.0  0.94568  0.90923  0.53581  1.0000
  C   C1671     1.0  0.94587  0.65615  0.50339  1.0000
  H   H2956     1.0  0.95254  0.90113  0.57124  1.0000
  H   H2957     1.0  0.55248  0.50606  0.70490  1.0000
  C   C1672     1.0  0.57566  0.51753  0.72619  1.0000
  H   H2958     1.0  0.96885  0.87715  0.59924  1.0000
  C   C1673     1.0  0.97430  0.49121  0.63538  1.0000
  H   H2959     1.0  0.95397  0.64572  0.51425  1.0000
  H   H2960     1.0  0.97101  0.71218  0.66159  1.0000
  H   H2961     1.0  0.92117  0.71352  0.52263  1.0000
  H   H2962     1.0  0.94973  0.67417  0.53423  1.0000
  H   H2963     1.0  0.95689  0.49843  0.67839  1.0000
  H   H2964     1.0  0.93021  0.70642  0.55612  1.0000
  H   H2965     1.0  0.95594  0.84173  0.60569  1.0000
  C   C1674     1.0  0.50626  0.97807  0.72795  1.0000
  C   C1675     1.0  0.97552  0.91858  0.52689  1.0000
  H   H2966     1.0  0.97689  0.95788  0.51333  1.0000
  H   H2967     1.0  0.92097  0.69486  0.49453  1.0000
  H   H2968     1.0  0.91174  0.67185  0.55957  1.0000
  C   C1676     1.0  0.83933  0.49513  0.70062  1.0000
  H   H2969     1.0  0.95320  0.48978  0.71405  1.0000
  H   H2970     1.0  0.88329  0.50866  0.64619  1.0000
  H   H2971     1.0  0.48462  0.97355  0.68620  1.0000
  H   H2972     1.0  0.95730  0.49096  0.62932  1.0000
  H   H2973     1.0  0.58026  0.48924  0.67418  1.0000
  H   H2974     1.0  0.62481  0.61310  0.52152  1.0000
  Fe  Fe191     1.0  0.97048  0.59618  0.65911  1.0000
  H   H2975     1.0  0.87566  0.49624  0.70855  1.0000
  C   C1677     1.0  0.48262  0.48934  0.60870  1.0000
  C   C1678     1.0  0.57884  0.58910  0.74926  1.0000
  H   H2976     1.0  0.65928  0.58980  0.91781  1.0000
  H   H2977     1.0  0.87869  0.55486  0.80971  1.0000
  C   C1679     1.0  0.77164  0.52151  0.80671  1.0000
  H   H2978     1.0  0.55609  0.52448  0.96876  1.0000
  H   H2979     1.0  0.72464  0.52812  0.85497  1.0000
  C   C1680     1.0  0.79766  0.52783  0.79243  1.0000
  H   H2980     1.0  0.91102  0.50286  0.80481  1.0000
  C   C1681     1.0  0.55745  0.54923  0.90644  1.0000
  H   H2981     1.0  0.55057  0.55197  0.93621  1.0000
  N   N93       1.0  0.55532  0.51198  0.76236  1.0000
  H   H2982     1.0  0.91047  0.59006  0.75921  1.0000
  C   C1682     1.0  0.94746  0.55822  0.75503  1.0000
  H   H2983     1.0  0.53499  0.50707  0.73881  1.0000
  H   H2984     1.0  0.61025  0.54465  0.97892  1.0000
  H   H2985     1.0  0.63127  0.53286  0.91532  1.0000
  S   S381      1.0  0.61223  0.51069  0.88106  1.0000
  H   H2986     1.0  0.95279  0.53698  0.80449  1.0000
  H   H2987     1.0  0.50512  0.88864  0.88255  1.0000
  H   H2988     1.0  0.67140  0.56207  0.92209  1.0000
  C   C1683     1.0  0.63076  0.55172  0.91894  1.0000
  H   H2989     1.0  0.78031  0.49497  0.82805  1.0000
  H   H2990     1.0  0.61794  0.56812  0.94245  1.0000
  N   N94       1.0  0.75056  0.50803  0.84337  1.0000
  C   C1684     1.0  0.57449  0.52599  0.93262  1.0000
  C   C1685     1.0  0.69205  0.50516  0.96253  1.0000
  C   C1686     1.0  0.91138  0.56591  0.78526  1.0000
  H   H2991     1.0  0.55129  0.56664  0.90193  1.0000
  H   H2992     1.0  0.76530  0.53922  0.80484  1.0000
  H   H2993     1.0  0.63173  0.54314  0.94923  1.0000
  H   H2994     1.0  0.59298  0.56247  0.76663  1.0000
  C   C1687     1.0  0.96722  0.52357  0.74614  1.0000
  C   C1688     1.0  0.52149  0.92712  0.88750  1.0000
  C   C1689     1.0  0.63859  0.50196  0.88804  1.0000
  C   C1690     1.0  0.95269  0.51737  0.80334  1.0000
  H   H2995     1.0  0.67431  0.52350  0.98244  1.0000
  H   H2996     1.0  0.65120  0.50050  0.97341  1.0000
  C   C1691     1.0  0.49608  0.51563  0.95039  1.0000
  H   H2997     1.0  0.72319  0.48921  0.82702  1.0000
  H   H2998     1.0  0.50165  0.52118  0.87950  1.0000
  H   H2999     1.0  0.48552  0.86548  0.86389  1.0000
  H   H3000     1.0  0.57338  0.54890  0.89482  1.0000
  H   H3001     1.0  0.55574  0.50954  0.93823  1.0000
  H   H3002     1.0  0.54710  0.54301  0.77550  1.0000
  C   C1692     1.0  0.96946  0.55268  0.74147  1.0000
  C   C1693     1.0  0.58233  0.56214  0.75460  1.0000
  H   H3003     1.0  0.74188  0.50250  0.87465  1.0000
  H   H3004     1.0  0.52073  0.92023  0.90307  1.0000
  C   C1694     1.0  0.77449  0.51304  0.82774  1.0000
  C   C1695     1.0  0.74841  0.58001  0.84029  1.0000
  C   C1696     1.0  0.60677  0.48888  0.94179  1.0000
  C   C1697     1.0  0.69262  0.52467  0.94455  1.0000
  C   C1698     1.0  0.97191  0.49516  0.87094  1.0000
  C   C1699     1.0  0.50136  0.51944  0.96838  1.0000
  C   C1700     1.0  0.57946  0.50850  0.76876  1.0000
  H   H3005     1.0  0.73234  0.57594  0.85311  1.0000
  H   H3006     1.0  0.77492  0.51958  0.86370  1.0000
  C   C1701     1.0  0.55541  0.54011  0.76108  1.0000
  H   H3007     1.0  0.66487  0.54156  0.87873  1.0000
  H   H3008     1.0  0.53508  0.49655  0.79230  1.0000
  C   C1702     1.0  0.92586  0.58877  0.76755  1.0000
  H   H3009     1.0  0.58351  0.56897  0.92312  1.0000
  S   S382      1.0  0.87042  0.54945  0.75036  1.0000
  C   C1703     1.0  0.66251  0.52172  0.88581  1.0000
  H   H3010     1.0  0.74042  0.58181  0.82698  1.0000
  C   C1704     1.0  0.65882  0.57055  0.91413  1.0000
  H   H3011     1.0  0.54234  0.54450  0.75139  1.0000
  C   C1705     1.0  0.76100  0.55818  0.84147  1.0000
  H   H3012     1.0  0.79165  0.52792  0.83046  1.0000
  H   H3013     1.0  0.54042  0.53129  0.90831  1.0000
  H   H3014     1.0  0.89627  0.58962  0.80317  1.0000
  C   C1706     1.0  0.55250  0.50365  0.74346  1.0000
  H   H3015     1.0  0.58424  0.52047  0.91987  1.0000
  H   H3016     1.0  0.59828  0.60456  0.74528  1.0000
  H   H3017     1.0  0.59762  0.52147  0.75860  1.0000
  H   H3018     1.0  0.61979  0.56006  0.90928  1.0000
  C   C1707     1.0  0.61797  0.54815  0.94049  1.0000
  C   C1708     1.0  0.68296  0.51614  0.89341  1.0000
  H   H3019     1.0  0.79517  0.53366  0.77748  1.0000
  C   C1709     1.0  0.56686  0.55065  0.92537  1.0000
  C   C1710     1.0  0.74056  0.53129  0.84219  1.0000
  C   C1711     1.0  0.75791  0.50303  0.86274  1.0000
  H   H3020     1.0  0.71035  0.52744  0.93342  1.0000
  H   H3021     1.0  0.59505  0.55941  0.74202  1.0000
  H   H3022     1.0  0.87438  0.57439  0.78856  1.0000
  H   H3023     1.0  0.70103  0.53171  0.89228  1.0000
  H   H3024     1.0  0.66699  0.57400  0.89843  1.0000
  H   H3025     1.0  0.60198  0.50184  0.96824  1.0000
  H   H3026     1.0  0.50517  0.51853  0.77725  1.0000
  C   C1712     1.0  0.88884  0.57170  0.79739  1.0000
  H   H3027     1.0  0.49226  0.61736  0.82784  1.0000
  H   H3028     1.0  0.49710  0.53077  0.73915  1.0000
  N   N95       1.0  0.59086  0.52843  0.94784  1.0000
  H   H3029     1.0  0.57588  0.55737  0.95909  1.0000
  H   H3030     1.0  0.81297  0.54423  0.79555  1.0000
  C   C1713     1.0  0.50513  0.49841  0.77601  1.0000
  H   H3031     1.0  0.76929  0.55780  0.85466  1.0000
  H   H3032     1.0  0.90272  0.54741  0.78047  1.0000
  H   H3033     1.0  0.76331  0.59905  0.83991  1.0000
  N   N96       1.0  0.94973  0.58669  0.75455  1.0000
  H   H3034     1.0  0.49992  0.97063  0.74338  1.0000
  Fe  Fe192     1.0  0.86061  0.50666  0.76333  1.0000
  H   H3035     1.0  0.96470  0.58568  0.79111  1.0000
  H   H3036     1.0  0.67513  0.51706  0.93843  1.0000
  H   H3037     1.0  0.97425  0.62160  0.76155  1.0000
  H   H3038     1.0  0.77731  0.56359  0.82870  1.0000
  C   C1714     1.0  0.57678  0.53727  0.96413  1.0000
  H   H3039     1.0  0.62814  0.49919  0.93897  1.0000
  H   H3040     1.0  0.54123  0.92919  0.87922  1.0000
  H   H3041     1.0  0.49234  0.53099  0.94084  1.0000
  H   H3042     1.0  0.50269  0.91505  0.86487  1.0000
  H   H3043     1.0  0.73124  0.53322  0.82950  1.0000
  H   H3044     1.0  0.92860  0.54795  0.75130  1.0000
  H   H3045     1.0  0.92459  0.56223  0.79478  1.0000
  H   H3046     1.0  0.50186  0.53786  0.97262  1.0000
  H   H3047     1.0  0.93081  0.60736  0.77296  1.0000
  H   H3048     1.0  0.71120  0.51236  0.96675  1.0000
  C   C1715     1.0  0.50064  0.90744  0.88046  1.0000
  H   H3049     1.0  0.94122  0.51375  0.87310  1.0000
  H   H3050     1.0  0.51860  0.94672  0.88531  1.0000
  H   H3051     1.0  0.69338  0.54410  0.94799  1.0000
  H   H3052     1.0  0.94653  0.54791  0.76983  1.0000
  H   H3053     1.0  0.58061  0.51466  0.78284  1.0000
  H   H3054     1.0  0.62414  0.49221  0.76599  1.0000
  H   H3055     1.0  0.56673  0.59321  0.76164  1.0000
  C   C1716     1.0  0.59202  0.50147  0.95585  1.0000
  C   C1717     1.0  0.53187  0.49437  0.77755  1.0000
  C   C1718     1.0  0.92908  0.49809  0.80364  1.0000
  H   H3056     1.0  0.48379  0.73827  0.93230  1.0000
  C   C1719     1.0  0.67998  0.49052  0.90258  1.0000
  H   H3057     1.0  0.69380  0.49057  0.85656  1.0000
  H   H3058     1.0  0.75719  0.50541  0.80256  1.0000
  H   H3059     1.0  0.80435  0.51028  0.79315  1.0000
  H   H3060     1.0  0.94052  0.49355  0.85513  1.0000
  H   H3061     1.0  0.93678  0.63211  0.74138  1.0000
  H   H3062     1.0  0.48490  0.69515  0.86572  1.0000
  H   H3063     1.0  0.50007  0.49487  0.76209  1.0000
  C   C1720     1.0  0.66936  0.50338  0.97928  1.0000
  C   C1721     1.0  0.50553  0.49945  0.98100  1.0000
  H   H3064     1.0  0.56929  0.58998  0.73665  1.0000
  S   S383      1.0  0.54076  0.49092  0.87744  1.0000
  C   C1722     1.0  0.97461  0.60165  0.75993  1.0000
  H   H3065     1.0  0.78827  0.49146  0.88882  1.0000
  H   H3066     1.0  0.94781  0.51113  0.74467  1.0000
  H   H3067     1.0  0.49154  0.54444  0.86428  1.0000
  S   S384      1.0  0.85204  0.49176  0.79549  1.0000
  C   C1723     1.0  0.97620  0.51143  0.80110  1.0000
  H   H3068     1.0  0.97475  0.49668  0.88577  1.0000
  C   C1724     1.0  0.95036  0.59923  0.73410  1.0000
  H   H3069     1.0  0.96984  0.51786  0.76106  1.0000
  C   C1725     1.0  0.94418  0.49534  0.86979  1.0000
  C   C1726     1.0  0.58855  0.53771  0.98254  1.0000
  C   C1727     1.0  0.49596  0.49219  0.94462  1.0000
  H   H3070     1.0  0.60043  0.48954  0.92786  1.0000
  C   C1728     1.0  0.48446  0.52601  0.87547  1.0000
  H   H3071     1.0  0.49128  0.60046  0.73586  1.0000
  H   H3072     1.0  0.48223  0.59900  0.79819  1.0000
