data_image0
_chemical_formula_structural       SH3CHCH2SHC2H3CHC2H2SH7CH4CHC2HC2H3CH3SH3SHCH5C2SCH4CSH2CHFe2NFeH2CHSFeCH3CH3CSH4CHC2HSCHSFeH2CH5CHCHCH2C2HC2HCHC3FeH2CHSCH3SC2HCS2H6SC2H2CHCHFeCH3FeHCH4SHSC2H2CH2CH4CH2C3H2CH2C2H3C2HCHCH5FeH2CNHCHCNH2C2SC2H3C3HCSHCHC3FeHC2HCH2SCFeH4CH9CHSCH2SNSH2NSH2CH4FeH3CHC2H4C2SH2C2H2SCH2C2SH2SHCSH2NHCH2C3HCH5CHCH2SH3CH5SH8C4H3CHCSHCSHCHCH2CHCHC2HCH2SC2H2CSCHNHCNHCH3FeHCSH4C2HC2H2FeCHSC2HCHCH2FeCH5CH4CHC2H2CH3Fe2C2H2CHCHCHCH7CH4SC5FeCH10CHSHSC2H7CHSCH3SHCHCHCH3FeH7SHSCHCSCHCHSCSCSHCH2C2SCHCNHCH2C2HCH2SH2C2HCH2C3HCH5CH5CSH2C2HC2FeCH3CH2NCHCH3SCHCHSH2CHC2S2CH4C2H9CH3CHC2HNCHNCH2SH2FeH2NC5HCHSH5FeCH2SFeHCH4C2H5C2HC2H2C2SCH4CH2CHCFeSH3CHC2FeCH2FeNH2CHC2H2CHC4SH5SHCH2FeH4C2HC2H2CFeCH5CH3C2HC2H5C2HNH2CSHCSH2SHC2H8CSHC2H2C2H3NFeHCHCH9C3H2C2HFeH2C2H4C2SHCH2C3HCH2CHFeC2H5CSH2SCSH2CHCHCH2FeHCH3FeCHCHCHCH4CH2C2H2NCH2FeCHCHCHCH3CH2FeC5H2S2H2FeC2H4CH2CHNHC3HCH2C2HSH3CSH5CHCHC2HC2HC3H3CH4SCH3CH2NH3CS2CHSHFeHCH2CNH2CS2HC2H2CHC2H4C2H6CHC2HCH3SH6C2FeHFeCH2CHCH3C3HC2H8C4H2NCSH3CHC2HC2HSH7C4FeC4HC2HCHC5H2C3HSHSHCHFeCH2CHFeHCH2SH7CH3FeSH2C2H3CH2CHCH10SC2H9CH3C2H6CH5CHCSHC2HCHFeCH5C3H3CHC5H4SH6FeC3NFeHC2H2CH4CHCFeS2H2CH5SH2CFeH2CHCHNH2CH3NC2H2C4H3CHC2HCH3CH3C2FeH2CH7SC2HC5H4C2H4C2H4C2H2SFeHC2H2CSH9SC2H4CHC2HNH2C2S2HCH2CSH2C2HSHCFeHSHNCNC3H2NCH2SHCH4SH2SHFeNH3CH5C2H2S2CH2CHCHSHCHCHCHCHC2H2C2HSCH3C2H3FeH2CSC3HCHFeHC2HCH2CHCHCHCHCH4CH3C2H7CHCH2CH5SH2SHFeS2HC4H3FeCH5C2H2CH2SHC2H2CHFeCH2CH7CSCH4SFeHCH2C2SCH3C2H2SH2SCSCHNHCH2SH2CHCSCH6FeHCHNSC4HFeS2NH2C2H2C3SH2CH2C2H5FeH2C2H2NH2CH6CHC2SH4FeCH5CHCH3SH2SCH2SHCSHCH3CSCHFeHFeCSHFeH2SHCSHC2HCH4SH6C2H2SC2H6C2FeHCH2CH2C4H6CH4FeC4H3SH2CHCFeHC3H2CHC7SCNC2HCHCH4CH3C2H2CFeH3CH4C2HCH5CH3C2SCSH2CHC2SH2CFeHCH6CNH4CNCH3CH3CSCHCFeH3SHC2H2CH2CH4C2H4CHCH2C3HNHCHCHCSH4C3H2CHCH4C2H6CH3CH2C2H3NSHC2H3FeCHNC2H2CHFeHCHCHCHNCSCHCSC2SCH2CHCH2C2HCHS2HC2H3SH4CH2CHSNCSH9CHFeCHCH2CHSH2CH3C2H3C2FeCH3CHCHC2HFeH8SH2CH2C3HC2H2CH3CH5CHSHCHC2SHCH2SHFeH2SCHCH4S2HCHSC2H3CH3SH9SH2CH6C4H7FeCH3C2SH3CNCH4CH8SHCHCH2CH4FeCSHSCHCHCH2C3HCHCHCHCHCFeH4SHC3HCHC2HCH2C2HCHSH2CHC2HFeCH2CHC2H2FeH5CH3CNH2FeCHFeHCFeCHFeCH5CHS2C3HCH3CHCNH2SH3CHSC3HCHC2H2FeHC2S2H2CH4CH3CHCHCFeCHCHCHCH7CHCSCSHC2HCFeH2CH4C2H2FeH2CHCHC2SCH6NH3CH2CH2CH2CH3C2HCHC2H5C3HNHCH3FeH4CH2CH4C2H4SH3CHCFeCHCHC3HFeH4CHCH3CH5CHCH3SCHCH3SH2SH2C3H4CH2CH3CSC2HCH2CHFeHC2HSC2FeH7C2H5C4H3CSHNH3NC2HCHCSCSH2CH7CH2CSC2FeC2H3CNH2C2H2CHCH3CH3FeCH2CH2FeHNH2CHFeH6CSFeC2HCH2CH2C2HC2H6C2HCHC3HC2FeC2SH2CH9CNHC2HC2H2CH3CNH3CH3C2SC6H7C2HCH5SH2C3H2CHC3HSFeCH2CHC3H2NHCHC2H5FeH9SHC3SCHCSC3HC6NSH2CSHSCH3C2HCHSCHSCH5CHCH3CH6CSHC2H2CH2C2H3C2HCH2SH2CH2CFeCSHC2FeSH4CFeH3CHSHSH2SH3FeC2SH2CHCSHCHFeH2CH2CHC2H5C2H4CS3H2SC2H3CFeH3SCH3CH2CH2SC6H3CH2CH2SCS2H4CH7CH2C4FeHN2HNCH6CSHSH4SH3FeCHC2NSHCHCHCHCH3C2HCH3CH3C7HFeH3C2H6C2H2CH2CH2CHFeH2C3HC2HCH7C2NC3H2CH3SH2SH2NCHCH2CH2C2SH2CH6CH3SHCH5C2HCHCH3C2FeHC2HCH5CH3C2SC2HCNH3CH2CH5SHSH5CFeC2H2C2HCH2CH2CH3CHC2H2CH2C2H2CH3CH2SH5CFeS2H2C2HCH2CHSCFeCHCH3CHFeH3CS2FeCH5CHCHCHC4H4C3H3CHCNH7CSHC2H2FeH3C3HCH3S2H2CH5C2H2CHCFeCH4SC3H3CH7C2H2CH4FeC2H3CHFeHFeH4CHC2SH3CNC2SHSCH2CH4CHC2H3CH10SHCH3CH2C3HCH10SCSCSCH2FeC2H3FeHSC3H4C7H2CHC2HCHSH4CHCH7CSFeH2NH3SCHCSH2C2FeCHSC3HC4H4SH2SH2CSH4CHCSH6S2FeH4FeH2FeCH6CHSHC2H2CH7C2H8CNCHFeCHCSCH8C3H3C2SH2CHCHCH10C2H3CHCSH3SH4SCH2CH3C2FeHSHSC2HCHFeCHCHCH7CH3C4H2C2H2C3HC2HFeHCH2CFeHC3H4FeCH4C2HCH2SH2SHC2SHSH2CSC2NH3CFeH2CH2SH2C4H2C2H2CH2CH2CH6C3HFeH5CFeH2CHFeC2H2SH2SHCH4C2HCH2CSC3H4SH2C2H3NHCH3CH2CH2CH2CFeH2NS3H2FeH4NC2HFeHC3HSHNCH4C2S2H2CHSNCHC2H2CHC3H3CH4NH2C
_chemical_formula_sum              "S288 H2304 C1296 Fe144 N72"
_cell_length_a       45.05
_cell_length_b       45.2641
_cell_length_c       29.5948
_cell_angle_alpha    78.5842
_cell_angle_beta     76.518
_cell_angle_gamma    114.616

_space_group_name_H-M_alt    "P 1"
_space_group_IT_number       1

loop_
  _space_group_symop_operation_xyz
  'x, y, z'

loop_
  _atom_site_type_symbol
  _atom_site_label
  _atom_site_symmetry_multiplicity
  _atom_site_fract_x
  _atom_site_fract_y
  _atom_site_fract_z
  _atom_site_occupancy
  S   S1        1.0  0.42667  0.95177  0.94084  1.0000
  H   H1        1.0  0.22325  0.14749  0.88336  1.0000
  H   H2        1.0  0.11894  0.16880  0.17106  1.0000
  H   H3        1.0  0.16985  0.43379  0.01752  1.0000
  C   C1        1.0  0.10621  0.24271  0.91765  1.0000
  H   H4        1.0  0.47618  0.31785  0.07208  1.0000
  C   C2        1.0  0.35480  0.99494  0.03539  1.0000
  H   H5        1.0  0.25403  0.20947  0.83169  1.0000
  H   H6        1.0  0.22052  0.32407  0.19030  1.0000
  S   S2        1.0  0.37161  0.39031  0.22816  1.0000
  H   H7        1.0  0.26939  0.32203  0.16005  1.0000
  C   C3        1.0  0.42953  0.03274  0.97122  1.0000
  C   C4        1.0  0.36186  0.31882  0.87159  1.0000
  H   H8        1.0  0.11267  0.09039  0.21988  1.0000
  H   H9        1.0  0.03602  0.37483  0.90645  1.0000
  H   H10       1.0  0.24791  0.99920  0.83069  1.0000
  C   C5        1.0  0.47848  0.34042  0.78623  1.0000
  H   H11       1.0  0.28886  0.00173  0.73742  1.0000
  C   C6        1.0  0.30152  0.38883  0.12594  1.0000
  C   C7        1.0  0.20491  0.23805  0.80956  1.0000
  H   H12       1.0  0.16825  0.32968  0.21626  1.0000
  H   H13       1.0  0.45387  0.98901  0.81409  1.0000
  S   S3        1.0  0.48747  0.24108  0.88015  1.0000
  H   H14       1.0  0.42811  0.00120  0.08529  1.0000
  H   H15       1.0  0.10008  0.19798  0.04040  1.0000
  H   H16       1.0  0.50460  0.22998  0.06385  1.0000
  H   H17       1.0  0.02594  0.18834  0.08088  1.0000
  H   H18       1.0  0.31394  0.96243  0.74447  1.0000
  H   H19       1.0  0.27572  0.39614  0.07450  1.0000
  H   H20       1.0  0.06538  0.10595  0.96380  1.0000
  C   C8        1.0  0.19340  0.28459  0.77402  1.0000
  H   H21       1.0  0.10664  0.12927  0.97079  1.0000
  H   H22       1.0  0.19257  0.95030  0.83295  1.0000
  H   H23       1.0  0.28800  0.17961  0.85622  1.0000
  H   H24       1.0  0.42263  0.00776  0.99765  1.0000
  C   C9        1.0  0.47838  0.39472  0.76005  1.0000
  H   H25       1.0  0.02265  0.08701  0.05775  1.0000
  C   C10       1.0  0.08914  0.02041  0.17481  1.0000
  C   C11       1.0  0.21541  0.33884  0.16142  1.0000
  H   H26       1.0  0.28742  0.17949  0.17495  1.0000
  C   C12       1.0  0.10102  0.35093  0.80760  1.0000
  C   C13       1.0  0.46280  0.35907  0.76920  1.0000
  H   H27       1.0  0.01417  0.16985  0.97132  1.0000
  H   H28       1.0  0.20884  0.05293  0.04645  1.0000
  H   H29       1.0  0.14115  0.22224  0.85505  1.0000
  C   C14       1.0  0.29844  0.09215  0.17997  1.0000
  H   H30       1.0  0.43367  0.19259  0.00636  1.0000
  H   H31       1.0  0.38635  0.34389  0.85266  1.0000
  H   H32       1.0  0.03668  0.13506  0.07408  1.0000
  S   S4        1.0  0.17624  0.24472  0.20486  1.0000
  H   H33       1.0  0.10401  0.10876  0.92398  1.0000
  H   H34       1.0  0.46240  0.02960  0.17045  1.0000
  H   H35       1.0  0.22769  0.33983  0.75963  1.0000
  S   S5        1.0  0.15451  0.30836  0.06711  1.0000
  H   H36       1.0  0.24361  0.96420  0.90350  1.0000
  C   C15       1.0  0.07051  0.39188  0.00881  1.0000
  H   H37       1.0  0.33568  0.19891  0.91523  1.0000
  H   H38       1.0  0.40996  0.02500  0.75002  1.0000
  H   H39       1.0  0.20145  0.97371  0.94874  1.0000
  H   H40       1.0  0.02483  0.39769  0.81033  1.0000
  H   H41       1.0  0.41211  0.94912  0.15285  1.0000
  C   C16       1.0  0.03211  0.38116  0.83258  1.0000
  C   C17       1.0  0.13971  0.26488  0.87252  1.0000
  S   S6        1.0  0.48174  0.22756  0.77712  1.0000
  C   C18       1.0  0.15961  0.24487  0.86164  1.0000
  H   H42       1.0  0.46342  0.98240  0.00235  1.0000
  H   H43       1.0  0.08743  0.22368  0.07161  1.0000
  H   H44       1.0  0.04194  0.34018  0.77031  1.0000
  H   H45       1.0  0.48265  0.23501  0.18848  1.0000
  C   C19       1.0  0.09282  0.43617  0.92998  1.0000
  S   S7        1.0  0.42138  0.06122  0.09097  1.0000
  H   H46       1.0  0.48288  0.26463  0.02574  1.0000
  H   H47       1.0  0.31303  0.39213  0.05012  1.0000
  C   C20       1.0  0.19692  0.08654  0.19674  1.0000
  H   H48       1.0  0.49259  0.02622  0.19870  1.0000
  Fe  Fe1       1.0  0.20757  0.21893  0.18242  1.0000
  Fe  Fe2       1.0  0.17351  0.36496  0.03611  1.0000
  N   N1        1.0  0.32150  0.17903  0.08450  1.0000
  Fe  Fe3       1.0  0.46146  0.34741  0.21358  1.0000
  H   H49       1.0  0.35841  0.97542  0.79055  1.0000
  H   H50       1.0  0.36074  0.30989  0.80361  1.0000
  C   C21       1.0  0.31323  0.02673  0.90120  1.0000
  H   H51       1.0  0.07364  0.94561  0.19741  1.0000
  S   S8        1.0  0.10987  0.38538  0.92831  1.0000
  Fe  Fe4       1.0  0.42657  0.09141  0.14282  1.0000
  C   C22       1.0  0.18426  0.21491  0.78322  1.0000
  H   H52       1.0  0.40383  0.94420  0.81995  1.0000
  H   H53       1.0  0.39414  0.20128  0.06622  1.0000
  H   H54       1.0  0.35393  0.19764  0.12761  1.0000
  C   C23       1.0  0.28385  0.95275  0.21278  1.0000
  H   H55       1.0  0.50674  0.03148  0.73498  1.0000
  H   H56       1.0  0.01099  0.41061  0.92988  1.0000
  H   H57       1.0  0.16060  0.30024  0.18198  1.0000
  C   C24       1.0  0.23274  0.11699  0.79994  1.0000
  S   S9        1.0  0.04502  0.05490  0.78340  1.0000
  H   H58       1.0  0.38667  0.97424  0.87627  1.0000
  H   H59       1.0  0.34946  0.27132  0.76578  1.0000
  H   H60       1.0  0.11997  0.42141  0.08446  1.0000
  H   H61       1.0  0.30253  0.08051  0.15100  1.0000
  C   C25       1.0  0.19161  0.23644  0.07989  1.0000
  H   H62       1.0  0.29645  0.94610  0.18240  1.0000
  C   C26       1.0  0.15050  0.04445  0.01954  1.0000
  C   C27       1.0  0.37311  0.05600  0.99829  1.0000
  H   H63       1.0  0.37038  0.09715  0.05641  1.0000
  S   S10       1.0  0.01749  0.42870  0.17029  1.0000
  C   C28       1.0  0.32371  0.24833  0.78784  1.0000
  H   H64       1.0  0.12719  0.32202  0.82382  1.0000
  S   S11       1.0  0.10300  0.29695  0.00144  1.0000
  Fe  Fe5       1.0  0.42813  0.15413  0.16196  1.0000
  H   H65       1.0  0.27191  0.33503  0.94748  1.0000
  H   H66       1.0  0.15573  0.28834  0.87996  1.0000
  C   C29       1.0  0.42541  0.24369  0.18785  1.0000
  H   H67       1.0  0.29676  0.27566  0.16078  1.0000
  H   H68       1.0  0.17604  0.22537  0.11868  1.0000
  H   H69       1.0  0.27068  0.38515  0.00341  1.0000
  H   H70       1.0  0.48156  0.15812  0.96931  1.0000
  H   H71       1.0  0.39264  0.20119  0.91089  1.0000
  C   C30       1.0  0.06611  0.14594  0.22120  1.0000
  H   H72       1.0  0.43494  0.05200  0.99039  1.0000
  C   C31       1.0  0.13372  0.42452  0.11125  1.0000
  H   H73       1.0  0.32765  0.09131  0.05998  1.0000
  C   C32       1.0  0.39887  0.95905  0.79062  1.0000
  H   H74       1.0  0.10080  0.14904  0.74518  1.0000
  H   H75       1.0  0.09187  0.42162  0.17175  1.0000
  C   C33       1.0  0.10144  0.04210  0.08351  1.0000
  C   C34       1.0  0.08453  0.12448  0.15712  1.0000
  H   H76       1.0  0.37167  0.24210  0.89312  1.0000
  C   C35       1.0  0.35033  0.18535  0.03923  1.0000
  C   C36       1.0  0.39972  0.02903  0.95120  1.0000
  H   H77       1.0  0.32578  0.94746  0.02081  1.0000
  C   C37       1.0  0.19158  0.96116  0.86358  1.0000
  H   H78       1.0  0.17002  0.42479  0.82609  1.0000
  C   C38       1.0  0.31944  0.42758  0.11709  1.0000
  C   C39       1.0  0.20684  0.06217  0.88701  1.0000
  C   C40       1.0  0.41156  0.99595  0.12209  1.0000
  Fe  Fe6       1.0  0.47057  0.12571  0.20092  1.0000
  H   H79       1.0  0.14996  0.02207  0.04388  1.0000
  H   H80       1.0  0.21413  0.18729  0.78192  1.0000
  C   C41       1.0  0.50711  0.13362  0.00296  1.0000
  H   H81       1.0  0.30825  0.37620  0.93836  1.0000
  S   S12       1.0  0.42996  0.07151  0.21628  1.0000
  C   C42       1.0  0.06375  0.94567  0.03703  1.0000
  H   H82       1.0  0.39459  0.00803  0.93495  1.0000
  H   H83       1.0  0.18658  0.10021  0.99103  1.0000
  H   H84       1.0  0.28906  0.02130  0.93007  1.0000
  S   S13       1.0  0.16240  0.16624  0.22483  1.0000
  C   C43       1.0  0.19863  0.26284  0.99583  1.0000
  C   C44       1.0  0.30234  0.14168  0.11717  1.0000
  H   H85       1.0  0.12585  0.37526  0.79660  1.0000
  C   C45       1.0  0.42778  0.12433  0.85259  1.0000
  S   S14       1.0  0.10653  0.09649  0.82460  1.0000
  S   S15       1.0  0.18989  0.06992  0.14938  1.0000
  H   H86       1.0  0.19423  0.02036  0.81051  1.0000
  H   H87       1.0  0.25808  0.94402  0.99985  1.0000
  H   H88       1.0  0.38319  0.29251  0.83357  1.0000
  H   H89       1.0  0.09393  0.28658  0.20983  1.0000
  H   H90       1.0  0.06562  0.05121  0.99044  1.0000
  H   H91       1.0  0.21798  0.13904  0.15126  1.0000
  S   S16       1.0  0.31689  0.07208  0.74822  1.0000
  C   C46       1.0  0.32538  0.26065  0.86439  1.0000
  C   C47       1.0  0.25982  0.30629  0.80371  1.0000
  H   H92       1.0  0.06411  0.37320  0.14092  1.0000
  H   H93       1.0  0.30461  0.25791  0.78837  1.0000
  C   C48       1.0  0.05614  0.36890  0.75837  1.0000
  H   H94       1.0  0.17065  0.34398  0.15350  1.0000
  C   C49       1.0  0.35115  0.09150  0.03729  1.0000
  H   H95       1.0  0.46989  0.11575  0.96579  1.0000
  Fe  Fe7       1.0  0.10306  0.08415  0.75573  1.0000
  C   C50       1.0  0.26213  0.35856  0.00277  1.0000
  H   H96       1.0  0.04563  0.32906  0.84721  1.0000
  H   H97       1.0  0.23084  0.16983  0.06056  1.0000
  H   H98       1.0  0.48632  0.97242  0.76130  1.0000
  Fe  Fe8       1.0  0.12421  0.35417  0.97861  1.0000
  H   H99       1.0  0.31833  0.04669  0.86732  1.0000
  C   C51       1.0  0.09630  0.41546  0.78222  1.0000
  H   H100      1.0  0.11256  0.23562  0.95087  1.0000
  H   H101      1.0  0.08871  0.21891  0.91204  1.0000
  H   H102      1.0  0.11753  0.41587  0.75341  1.0000
  H   H103      1.0  0.37096  0.03055  0.18813  1.0000
  S   S17       1.0  0.22739  0.01283  0.17971  1.0000
  H   H104      1.0  0.33383  0.20602  0.20746  1.0000
  S   S18       1.0  0.04885  0.01473  0.88473  1.0000
  C   C52       1.0  0.10345  0.32303  0.84251  1.0000
  C   C53       1.0  0.28884  0.38072  0.08307  1.0000
  H   H105      1.0  0.34443  0.14167  0.14440  1.0000
  H   H106      1.0  0.48510  0.05891  0.07891  1.0000
  C   C54       1.0  0.08913  0.00960  0.02557  1.0000
  H   H107      1.0  0.35374  0.23039  0.08417  1.0000
  H   H108      1.0  0.27454  0.13349  0.13712  1.0000
  C   C55       1.0  0.06933  0.35494  0.83274  1.0000
  H   H109      1.0  0.03820  0.39718  0.06997  1.0000
  H   H110      1.0  0.22019  0.27170  0.87354  1.0000
  H   H111      1.0  0.06735  0.36793  0.03059  1.0000
  H   H112      1.0  0.06096  0.01269  0.18531  1.0000
  C   C56       1.0  0.31590  0.13137  0.15787  1.0000
  H   H113      1.0  0.49089  0.06228  0.81542  1.0000
  H   H114      1.0  0.34737  0.06394  0.92558  1.0000
  C   C57       1.0  0.34081  0.05643  0.03042  1.0000
  C   C58       1.0  0.07841  0.19764  0.06809  1.0000
  C   C59       1.0  0.36734  0.96332  0.81684  1.0000
  H   H115      1.0  0.48484  0.26949  0.08285  1.0000
  H   H116      1.0  0.07161  0.17913  0.10454  1.0000
  C   C60       1.0  0.41020  0.21069  0.18495  1.0000
  H   H117      1.0  0.34905  0.24829  0.16480  1.0000
  H   H118      1.0  0.17172  0.16469  0.83055  1.0000
  C   C61       1.0  0.47397  0.30576  0.04286  1.0000
  C   C62       1.0  0.41449  0.09808  0.77742  1.0000
  H   H119      1.0  0.42214  0.29932  0.05232  1.0000
  H   H120      1.0  0.28631  0.19317  0.90819  1.0000
  H   H121      1.0  0.23441  0.09861  0.01534  1.0000
  C   C63       1.0  0.38521  0.20403  0.87785  1.0000
  C   C64       1.0  0.31734  0.30298  0.14165  1.0000
  H   H122      1.0  0.29889  0.22125  0.13548  1.0000
  C   C65       1.0  0.25558  0.11254  0.82199  1.0000
  H   H123      1.0  0.33915  0.21607  0.75224  1.0000
  C   C66       1.0  0.32590  0.22255  0.18619  1.0000
  H   H124      1.0  0.37159  0.96175  0.00277  1.0000
  H   H125      1.0  0.08516  0.98970  0.12818  1.0000
  H   H126      1.0  0.40150  0.17445  0.97937  1.0000
  H   H127      1.0  0.09273  0.00394  0.20387  1.0000
  H   H128      1.0  0.31266  0.00410  0.99321  1.0000
  Fe  Fe9       1.0  0.05143  0.00888  0.81041  1.0000
  H   H129      1.0  0.48602  0.12243  0.03924  1.0000
  H   H130      1.0  0.32889  0.03679  0.06763  1.0000
  C   C67       1.0  0.46331  0.04410  0.92931  1.0000
  N   N2        1.0  0.26534  0.34327  0.09042  1.0000
  H   H131      1.0  0.09889  0.34373  0.77448  1.0000
  C   C68       1.0  0.03635  0.39417  0.87661  1.0000
  H   H132      1.0  0.20294  0.22133  0.84450  1.0000
  C   C69       1.0  0.09010  0.40591  0.95814  1.0000
  N   N3        1.0  0.06349  0.38093  0.80084  1.0000
  H   H133      1.0  0.30650  0.22575  0.21281  1.0000
  H   H134      1.0  0.10667  0.41962  0.81248  1.0000
  C   C70       1.0  0.25456  0.20261  0.86943  1.0000
  C   C71       1.0  0.50181  0.23367  0.20525  1.0000
  S   S19       1.0  0.05489  0.26359  0.14574  1.0000
  C   C72       1.0  0.50834  0.07898  0.08269  1.0000
  C   C73       1.0  0.44585  0.10818  0.83381  1.0000
  H   H135      1.0  0.42232  0.26306  0.08988  1.0000
  H   H136      1.0  0.17237  0.08155  0.05700  1.0000
  H   H137      1.0  0.29554  0.96717  0.83964  1.0000
  C   C74       1.0  0.17635  0.32741  0.17924  1.0000
  C   C75       1.0  0.45216  0.00824  0.78627  1.0000
  C   C76       1.0  0.05346  0.40806  0.03098  1.0000
  H   H138      1.0  0.34563  0.97313  0.88175  1.0000
  C   C77       1.0  0.17957  0.94864  0.95244  1.0000
  S   S20       1.0  0.17951  0.36497  0.95888  1.0000
  H   H139      1.0  0.13136  0.07558  0.95776  1.0000
  C   C78       1.0  0.27777  0.16471  0.03789  1.0000
  H   H140      1.0  0.38808  0.13857  0.84977  1.0000
  C   C79       1.0  0.22491  0.23982  0.06362  1.0000
  C   C80       1.0  0.43514  0.28318  0.05301  1.0000
  C   C81       1.0  0.40117  0.01962  0.13264  1.0000
  Fe  Fe10      1.0  0.49242  0.27147  0.80643  1.0000
  H   H141      1.0  0.05187  0.15556  0.00983  1.0000
  C   C82       1.0  0.04650  0.18787  0.05255  1.0000
  C   C83       1.0  0.11808  0.07285  0.99639  1.0000
  H   H142      1.0  0.26436  0.13687  0.05976  1.0000
  C   C84       1.0  0.18654  0.18163  0.79148  1.0000
  H   H143      1.0  0.05243  0.23035  0.76356  1.0000
  H   H144      1.0  0.30121  0.12475  0.09424  1.0000
  S   S21       1.0  0.16953  0.98275  0.12759  1.0000
  C   C85       1.0  0.21335  0.07450  0.01536  1.0000
  Fe  Fe11      1.0  0.17999  0.01584  0.17485  1.0000
  H   H145      1.0  0.11818  0.98294  0.00381  1.0000
  H   H146      1.0  0.07374  0.03603  0.09349  1.0000
  H   H147      1.0  0.23586  0.15481  0.00903  1.0000
  H   H148      1.0  0.10008  0.97184  0.06935  1.0000
  C   C86       1.0  0.33833  0.01235  0.96549  1.0000
  H   H149      1.0  0.47415  0.07124  0.90607  1.0000
  H   H150      1.0  0.30886  0.21483  0.04368  1.0000
  H   H151      1.0  0.38442  0.00968  0.83785  1.0000
  H   H152      1.0  0.49889  0.09530  0.09807  1.0000
  H   H153      1.0  0.33512  0.98915  0.95527  1.0000
  H   H154      1.0  0.27917  0.32802  0.85704  1.0000
  H   H155      1.0  0.25200  0.22169  0.88619  1.0000
  H   H156      1.0  0.34700  0.20348  0.82307  1.0000
  H   H157      1.0  0.22251  0.01068  0.87268  1.0000
  C   C87       1.0  0.38220  0.18325  0.04746  1.0000
  H   H158      1.0  0.22906  0.36660  0.15704  1.0000
  S   S22       1.0  0.21407  0.40481  0.05583  1.0000
  C   C88       1.0  0.30802  0.32043  0.10181  1.0000
  H   H159      1.0  0.13478  0.09688  0.00237  1.0000
  H   H160      1.0  0.36786  0.04604  0.88809  1.0000
  S   S23       1.0  0.30044  0.14037  0.79469  1.0000
  N   N4        1.0  0.36644  0.02300  0.98766  1.0000
  S   S24       1.0  0.45885  0.29598  0.79658  1.0000
  H   H161      1.0  0.03486  0.26164  0.05944  1.0000
  H   H162      1.0  0.05675  0.35856  0.20566  1.0000
  N   N5        1.0  0.11480  0.04173  0.03208  1.0000
  S   S25       1.0  0.40648  0.32281  0.21347  1.0000
  H   H163      1.0  0.30928  0.00291  0.89256  1.0000
  H   H164      1.0  0.08026  0.29746  0.85229  1.0000
  C   C89       1.0  0.22731  0.33336  0.11182  1.0000
  H   H165      1.0  0.07359  0.36181  0.86549  1.0000
  H   H166      1.0  0.10557  0.32904  0.87666  1.0000
  H   H167      1.0  0.33936  0.32386  0.87759  1.0000
  H   H168      1.0  0.27032  0.25593  0.00055  1.0000
  Fe  Fe12      1.0  0.10062  0.30051  0.07667  1.0000
  H   H169      1.0  0.29919  0.34554  0.02292  1.0000
  H   H170      1.0  0.27455  0.35702  0.81088  1.0000
  H   H171      1.0  0.48460  0.32665  0.00757  1.0000
  C   C90       1.0  0.05514  0.43757  0.00199  1.0000
  H   H172      1.0  0.37286  0.17836  0.87348  1.0000
  C   C91       1.0  0.27939  0.36107  0.95014  1.0000
  C   C92       1.0  0.21044  0.12185  0.18782  1.0000
  H   H173      1.0  0.05385  0.20812  0.01760  1.0000
  H   H174      1.0  0.37622  0.11533  0.78334  1.0000
  H   H175      1.0  0.06966  0.07207  0.03618  1.0000
  H   H176      1.0  0.27063  0.37424  0.92471  1.0000
  C   C93       1.0  0.37198  0.98405  0.21862  1.0000
  C   C94       1.0  0.43854  0.09426  0.79702  1.0000
  S   S26       1.0  0.42858  0.20319  0.13277  1.0000
  H   H177      1.0  0.10516  0.12621  0.12749  1.0000
  H   H178      1.0  0.45866  0.02730  0.90615  1.0000
  C   C95       1.0  0.10241  0.01642  0.12529  1.0000
  C   C96       1.0  0.19958  0.32186  0.76907  1.0000
  H   H179      1.0  0.26040  0.08175  0.88236  1.0000
  H   H180      1.0  0.34243  0.30361  0.12472  1.0000
  S   S27       1.0  0.47067  0.14440  0.12488  1.0000
  C   C97       1.0  0.10508  0.40640  0.16345  1.0000
  H   H181      1.0  0.27073  0.28836  0.80697  1.0000
  H   H182      1.0  0.37684  0.24765  0.80698  1.0000
  C   C98       1.0  0.40211  0.12617  0.83519  1.0000
  C   C99       1.0  0.34907  0.95953  0.03095  1.0000
  S   S28       1.0  0.04158  0.06640  0.14256  1.0000
  H   H183      1.0  0.22275  0.01107  0.76848  1.0000
  H   H184      1.0  0.26262  0.19960  0.00048  1.0000
  S   S29       1.0  0.47528  0.96164  0.16066  1.0000
  H   H185      1.0  0.36046  0.21134  0.01211  1.0000
  C   C100      1.0  0.18387  0.06643  0.86514  1.0000
  S   S30       1.0  0.24351  0.23082  0.10640  1.0000
  H   H186      1.0  0.08857  0.35389  0.16229  1.0000
  H   H187      1.0  0.45286  0.08231  0.78177  1.0000
  N   N6        1.0  0.43225  0.99116  0.75595  1.0000
  H   H188      1.0  0.15883  0.04345  0.98179  1.0000
  C   C101      1.0  0.09243  0.14844  0.18208  1.0000
  H   H189      1.0  0.32067  0.05151  0.01310  1.0000
  H   H190      1.0  0.32944  0.98976  0.06103  1.0000
  C   C102      1.0  0.22231  0.16752  0.89926  1.0000
  C   C103      1.0  0.17856  0.24815  0.04603  1.0000
  C   C104      1.0  0.29597  0.18716  0.06679  1.0000
  H   H191      1.0  0.15299  0.24595  0.05897  1.0000
  C   C105      1.0  0.40320  0.96690  0.16053  1.0000
  H   H192      1.0  0.16240  0.23367  0.89654  1.0000
  H   H193      1.0  0.19564  0.22907  0.74301  1.0000
  H   H194      1.0  0.43154  0.27066  0.02453  1.0000
  H   H195      1.0  0.50022  0.08493  0.99632  1.0000
  H   H196      1.0  0.22063  0.15986  0.93809  1.0000
  C   C106      1.0  0.19674  0.09393  0.82164  1.0000
  H   H197      1.0  0.06104  0.41846  0.86492  1.0000
  C   C107      1.0  0.02377  0.09590  0.20950  1.0000
  H   H198      1.0  0.34021  0.16645  0.02032  1.0000
  H   H199      1.0  0.50706  0.02960  0.04308  1.0000
  S   S31       1.0  0.13932  0.03668  0.89257  1.0000
  H   H200      1.0  0.36223  0.30659  0.90776  1.0000
  H   H201      1.0  0.23256  0.25040  0.78478  1.0000
  H   H202      1.0  0.26998  0.08109  0.19973  1.0000
  C   C108      1.0  0.25126  0.43765  0.00603  1.0000
  H   H203      1.0  0.43805  0.01871  0.80787  1.0000
  H   H204      1.0  0.16787  0.26951  0.77017  1.0000
  H   H205      1.0  0.17495  0.16756  0.76787  1.0000
  H   H206      1.0  0.26283  0.31582  0.76452  1.0000
  H   H207      1.0  0.25602  0.31037  0.04546  1.0000
  S   S32       1.0  0.38401  0.10279  0.17436  1.0000
  H   H208      1.0  0.32924  0.43271  0.14737  1.0000
  H   H209      1.0  0.29678  0.16937  0.00232  1.0000
  H   H210      1.0  0.22222  0.07030  0.98009  1.0000
  H   H211      1.0  0.02440  0.15335  0.77636  1.0000
  H   H212      1.0  0.27436  0.18345  0.09856  1.0000
  H   H213      1.0  0.21412  0.30660  0.84863  1.0000
  H   H214      1.0  0.00888  0.35488  0.84726  1.0000
  H   H215      1.0  0.18541  0.32363  0.80329  1.0000
  C   C109      1.0  0.35967  0.29577  0.83974  1.0000
  C   C110      1.0  0.45865  0.95616  0.00989  1.0000
  C   C111      1.0  0.37178  0.98131  0.85528  1.0000
  C   C112      1.0  0.22240  0.99855  0.84370  1.0000
  H   H216      1.0  0.24154  0.94643  0.82385  1.0000
  H   H217      1.0  0.10404  0.04763  0.17258  1.0000
  H   H218      1.0  0.47957  0.95679  0.06837  1.0000
  C   C113      1.0  0.37963  0.01259  0.18015  1.0000
  H   H219      1.0  0.09216  0.25751  0.92409  1.0000
  C   C114      1.0  0.03897  0.20258  0.78587  1.0000
  S   S33       1.0  0.43936  0.14475  0.89464  1.0000
  H   H220      1.0  0.35120  0.41322  0.76200  1.0000
  C   C115      1.0  0.28852  0.20129  0.86903  1.0000
  S   S34       1.0  0.18484  0.28241  0.95447  1.0000
  H   H221      1.0  0.32068  0.37993  0.12934  1.0000
  C   C116      1.0  0.04370  0.96458  0.73376  1.0000
  H   H222      1.0  0.01647  0.94492  0.21094  1.0000
  C   C117      1.0  0.03337  0.15210  0.04537  1.0000
  H   H223      1.0  0.41038  0.05285  0.91943  1.0000
  H   H224      1.0  0.44837  0.26457  0.15822  1.0000
  C   C118      1.0  0.05036  0.09765  0.17169  1.0000
  H   H225      1.0  0.13203  0.27204  0.84081  1.0000
  C   C119      1.0  0.08341  0.07326  0.99904  1.0000
  H   H226      1.0  0.01734  0.31014  0.15615  1.0000
  C   C120      1.0  0.49185  0.14018  0.96351  1.0000
  C   C121      1.0  0.23095  0.26395  0.97908  1.0000
  H   H227      1.0  0.48918  0.06488  0.18830  1.0000
  C   C122      1.0  0.49358  0.28442  0.04322  1.0000
  H   H228      1.0  0.08923  0.01515  0.98713  1.0000
  H   H229      1.0  0.36270  0.11211  0.00099  1.0000
  S   S35       1.0  0.02335  0.95992  0.79513  1.0000
  C   C123      1.0  0.39547  0.11306  0.79749  1.0000
  C   C124      1.0  0.31828  0.22339  0.75776  1.0000
  H   H230      1.0  0.30957  0.14135  0.18804  1.0000
  H   H231      1.0  0.37455  0.15661  0.06890  1.0000
  C   C125      1.0  0.33658  0.20371  0.11098  1.0000
  S   S36       1.0  0.11915  0.35721  0.05424  1.0000
  C   C126      1.0  0.01332  0.24171  0.09126  1.0000
  H   H232      1.0  0.12933  0.02089  0.11945  1.0000
  N   N7        1.0  0.19478  0.26456  0.82010  1.0000
  H   H233      1.0  0.22036  0.34838  0.08635  1.0000
  C   C127      1.0  0.24264  0.08536  0.86568  1.0000
  N   N8        1.0  0.32241  0.23416  0.83925  1.0000
  H   H234      1.0  0.14773  0.40931  0.10718  1.0000
  C   C128      1.0  0.18004  0.07727  0.02147  1.0000
  H   H235      1.0  0.40935  0.22163  0.84526  1.0000
  H   H236      1.0  0.19832  0.16883  0.89885  1.0000
  H   H237      1.0  0.24647  0.27519  0.94021  1.0000
  Fe  Fe13      1.0  0.15792  0.30805  0.99054  1.0000
  H   H238      1.0  0.32933  0.34743  0.08291  1.0000
  C   C129      1.0  0.07702  0.37086  0.16817  1.0000
  S   S37       1.0  0.10983  0.03779  0.77840  1.0000
  H   H239      1.0  0.29252  0.19984  0.77634  1.0000
  H   H240      1.0  0.24066  0.04777  0.78828  1.0000
  H   H241      1.0  0.23348  0.34542  0.01116  1.0000
  H   H242      1.0  0.46617  0.10741  0.84661  1.0000
  C   C130      1.0  0.48955  0.03897  0.75758  1.0000
  C   C131      1.0  0.09519  0.97787  0.03466  1.0000
  H   H243      1.0  0.43882  0.34604  0.76258  1.0000
  C   C132      1.0  0.22106  0.28733  0.83861  1.0000
  C   C133      1.0  0.21972  0.02064  0.80012  1.0000
  H   H244      1.0  0.11564  0.06838  0.08562  1.0000
  H   H245      1.0  0.17907  0.09718  0.80446  1.0000
  Fe  Fe14      1.0  0.48058  0.19877  0.84877  1.0000
  C   C134      1.0  0.38520  0.96213  0.20911  1.0000
  H   H246      1.0  0.41958  0.21956  0.97470  1.0000
  S   S38       1.0  0.25004  0.97971  0.06779  1.0000
  C   C135      1.0  0.35208  0.22617  0.83568  1.0000
  C   C136      1.0  0.25016  0.17290  0.02630  1.0000
  H   H247      1.0  0.30696  0.30673  0.07441  1.0000
  C   C137      1.0  0.27220  0.31871  0.12338  1.0000
  H   H248      1.0  0.39213  0.06231  0.01751  1.0000
  C   C138      1.0  0.21270  0.13481  0.22674  1.0000
  H   H249      1.0  0.16729  0.96332  0.87070  1.0000
  H   H250      1.0  0.15634  0.20773  0.79485  1.0000
  Fe  Fe15      1.0  0.04824  0.06397  0.85434  1.0000
  C   C139      1.0  0.48844  0.04427  0.17297  1.0000
  H   H251      1.0  0.06186  0.00124  0.04891  1.0000
  H   H252      1.0  0.48281  0.04219  0.94475  1.0000
  H   H253      1.0  0.31006  0.34762  0.79477  1.0000
  H   H254      1.0  0.23982  0.41506  0.95066  1.0000
  H   H255      1.0  0.32199  0.25007  0.90367  1.0000
  C   C140      1.0  0.35973  0.21828  0.88377  1.0000
  H   H256      1.0  0.11652  0.40246  0.19200  1.0000
  H   H257      1.0  0.19716  0.04041  0.91976  1.0000
  H   H258      1.0  0.37350  0.00342  0.05496  1.0000
  H   H259      1.0  0.38599  0.07824  0.96350  1.0000
  C   C141      1.0  0.34423  0.03981  0.91865  1.0000
  H   H260      1.0  0.30383  0.26683  0.86556  1.0000
  C   C142      1.0  0.28217  0.33662  0.81761  1.0000
  C   C143      1.0  0.27134  0.33812  0.04076  1.0000
  H   H261      1.0  0.21047  0.30596  0.11589  1.0000
  H   H262      1.0  0.30067  0.43747  0.11629  1.0000
  C   C144      1.0  0.41082  0.19312  0.99882  1.0000
  H   H263      1.0  0.24291  0.13813  0.76614  1.0000
  H   H264      1.0  0.05399  0.19860  0.80912  1.0000
  H   H265      1.0  0.30432  0.97364  0.21984  1.0000
  Fe  Fe16      1.0  0.21439  0.97652  0.13729  1.0000
  Fe  Fe17      1.0  0.10713  0.04677  0.85040  1.0000
  C   C145      1.0  0.24437  0.25293  0.01311  1.0000
  C   C146      1.0  0.03375  0.38033  0.73436  1.0000
  H   H266      1.0  0.32033  0.31666  0.16887  1.0000
  H   H267      1.0  0.26708  0.96250  0.20083  1.0000
  C   C147      1.0  0.30950  0.20554  0.15219  1.0000
  H   H268      1.0  0.27988  0.37602  0.16188  1.0000
  C   C148      1.0  0.03692  0.18066  0.75236  1.0000
  H   H269      1.0  0.25189  0.29161  0.13189  1.0000
  C   C149      1.0  0.09045  0.10640  0.96209  1.0000
  H   H270      1.0  0.38866  0.94083  0.77067  1.0000
  C   C150      1.0  0.46721  0.94146  0.04796  1.0000
  H   H271      1.0  0.06731  0.29637  0.74868  1.0000
  H   H272      1.0  0.46637  0.40913  0.74644  1.0000
  H   H273      1.0  0.22325  0.16217  0.21949  1.0000
  H   H274      1.0  0.05799  0.95006  0.00252  1.0000
  H   H275      1.0  0.50103  0.20847  0.20845  1.0000
  H   H276      1.0  0.15753  0.95398  0.95277  1.0000
  H   H277      1.0  0.21349  0.28752  0.74073  1.0000
  C   C151      1.0  0.46721  0.95828  0.74521  1.0000
  H   H278      1.0  0.31015  0.08514  0.20631  1.0000
  H   H279      1.0  0.36693  0.94460  0.08923  1.0000
  H   H280      1.0  0.18519  0.96323  0.03783  1.0000
  H   H281      1.0  0.37035  0.15786  0.22260  1.0000
  S   S39       1.0  0.01959  0.08600  0.89698  1.0000
  C   C152      1.0  0.01627  0.23712  0.13785  1.0000
  C   C153      1.0  0.24961  0.94028  0.07593  1.0000
  C   C154      1.0  0.25650  0.43722  0.95768  1.0000
  C   C155      1.0  0.41199  0.24964  0.23032  1.0000
  C   C156      1.0  0.38168  0.18351  0.22487  1.0000
  Fe  Fe18      1.0  0.32155  0.12460  0.73331  1.0000
  C   C157      1.0  0.50635  0.05291  0.79341  1.0000
  H   H282      1.0  0.03171  0.32510  0.95567  1.0000
  H   H283      1.0  0.48897  0.06043  0.73292  1.0000
  H   H284      1.0  0.01243  0.19496  0.81052  1.0000
  H   H285      1.0  0.11981  0.20986  0.74135  1.0000
  H   H286      1.0  0.13924  0.94236  0.04584  1.0000
  H   H287      1.0  0.16042  0.31825  0.73525  1.0000
  H   H288      1.0  0.50812  0.03252  0.81867  1.0000
  H   H289      1.0  0.01123  0.27881  0.98066  1.0000
  H   H290      1.0  0.27456  0.08893  0.58857  1.0000
  H   H291      1.0  0.02279  0.21183  0.44121  1.0000
  C   C158      1.0  0.45157  0.23891  0.35063  1.0000
  H   H292      1.0  0.16418  0.35337  0.57332  1.0000
  S   S40       1.0  0.39240  0.97223  0.53308  1.0000
  H   H293      1.0  0.37706  0.97258  0.34352  1.0000
  S   S41       1.0  0.44703  0.31432  0.29052  1.0000
  C   C159      1.0  0.39195  0.02636  0.67001  1.0000
  C   C160      1.0  0.30053  0.10034  0.29774  1.0000
  H   H294      1.0  0.34456  0.16941  0.29724  1.0000
  H   H295      1.0  0.49933  0.28781  0.48632  1.0000
  H   H296      1.0  0.43764  0.21173  0.28000  1.0000
  H   H297      1.0  0.47393  0.02691  0.28401  1.0000
  H   H298      1.0  0.46595  0.18496  0.60199  1.0000
  H   H299      1.0  0.27212  0.38342  0.44378  1.0000
  H   H300      1.0  0.31740  0.22199  0.68578  1.0000
  C   C161      1.0  0.23527  0.12775  0.40186  1.0000
  H   H301      1.0  0.28287  0.08443  0.50494  1.0000
  S   S42       1.0  0.20943  0.29167  0.29207  1.0000
  C   C162      1.0  0.16677  0.01650  0.41482  1.0000
  H   H302      1.0  0.03174  0.02303  0.64755  1.0000
  H   H303      1.0  0.31384  0.40342  0.24027  1.0000
  H   H304      1.0  0.10785  0.02498  0.62646  1.0000
  S   S43       1.0  0.12854  0.12050  0.67842  1.0000
  H   H305      1.0  0.12387  0.08598  0.27473  1.0000
  C   C163      1.0  0.47865  0.04032  0.39373  1.0000
  H   H306      1.0  0.19384  0.34129  0.59331  1.0000
  C   C164      1.0  0.17751  0.01243  0.68442  1.0000
  H   H307      1.0  0.46111  0.29572  0.38305  1.0000
  C   C165      1.0  0.22698  0.03750  0.45247  1.0000
  H   H308      1.0  0.36796  0.34963  0.40658  1.0000
  H   H309      1.0  0.30546  0.13120  0.47824  1.0000
  H   H310      1.0  0.23643  0.04767  0.35849  1.0000
  Fe  Fe19      1.0  0.43757  0.96223  0.53023  1.0000
  H   H311      1.0  0.47443  0.24505  0.67227  1.0000
  H   H312      1.0  0.19147  0.36145  0.72770  1.0000
  H   H313      1.0  0.11698  0.30675  0.40826  1.0000
  H   H314      1.0  0.36520  0.10778  0.43343  1.0000
  H   H315      1.0  0.50038  0.04948  0.40813  1.0000
  H   H316      1.0  0.24718  0.15912  0.44946  1.0000
  H   H317      1.0  0.35238  0.09487  0.38433  1.0000
  S   S44       1.0  0.43090  0.13925  0.23677  1.0000
  H   H318      1.0  0.01404  0.07565  0.40856  1.0000
  S   S45       1.0  0.19879  0.95632  0.31982  1.0000
  C   C166      1.0  0.20214  0.34105  0.49688  1.0000
  H   H319      1.0  0.28034  0.35548  0.41328  1.0000
  C   C167      1.0  0.24515  0.98596  0.36338  1.0000
  S   S46       1.0  0.12632  0.35571  0.67222  1.0000
  C   C168      1.0  0.07147  0.07181  0.37112  1.0000
  H   H320      1.0  0.04493  0.22859  0.26465  1.0000
  C   C169      1.0  0.16932  0.33165  0.58512  1.0000
  H   H321      1.0  0.00994  0.07121  0.70745  1.0000
  S   S47       1.0  0.30674  0.12391  0.66624  1.0000
  C   C170      1.0  0.01862  0.28617  0.67496  1.0000
  S   S48       1.0  0.49435  0.00094  0.49698  1.0000
  C   C171      1.0  0.43746  0.27089  0.40689  1.0000
  S   S49       1.0  0.18819  0.12707  0.32387  1.0000
  H   H322      1.0  0.19724  0.27026  0.41656  1.0000
  C   C172      1.0  0.08729  0.00008  0.65196  1.0000
  H   H323      1.0  0.38150  0.97651  0.71198  1.0000
  H   H324      1.0  0.23505  0.08638  0.34148  1.0000
  C   C173      1.0  0.49212  0.21185  0.64539  1.0000
  C   C174      1.0  0.39816  0.14521  0.35968  1.0000
  S   S50       1.0  0.14257  0.41735  0.53887  1.0000
  C   C175      1.0  0.42455  0.01608  0.72573  1.0000
  H   H325      1.0  0.44632  0.31257  0.70266  1.0000
  C   C176      1.0  0.25752  0.16083  0.41066  1.0000
  N   N9        1.0  0.20546  0.32876  0.45294  1.0000
  H   H326      1.0  0.14888  0.12833  0.55237  1.0000
  C   C177      1.0  0.26769  0.35389  0.26459  1.0000
  H   H327      1.0  0.26517  0.00288  0.24004  1.0000
  H   H328      1.0  0.39685  0.01887  0.32396  1.0000
  C   C178      1.0  0.21132  0.07777  0.64656  1.0000
  C   C179      1.0  0.27340  0.41044  0.52318  1.0000
  H   H329      1.0  0.44901  0.03991  0.70131  1.0000
  C   C180      1.0  0.10056  0.08076  0.43482  1.0000
  H   H330      1.0  0.38829  0.41648  0.32251  1.0000
  H   H331      1.0  0.17560  0.29274  0.55996  1.0000
  S   S51       1.0  0.33648  0.41426  0.51653  1.0000
  H   H332      1.0  0.28506  0.16622  0.40118  1.0000
  H   H333      1.0  0.38857  0.28243  0.49487  1.0000
  C   C181      1.0  0.07841  0.33044  0.62896  1.0000
  C   C182      1.0  0.19405  0.04319  0.63704  1.0000
  H   H334      1.0  0.34030  0.36210  0.38110  1.0000
  C   C183      1.0  0.06571  0.06522  0.42672  1.0000
  H   H335      1.0  0.28889  0.42623  0.36256  1.0000
  H   H336      1.0  0.25733  0.18293  0.38660  1.0000
  C   C184      1.0  0.02703  0.28032  0.71729  1.0000
  C   C185      1.0  0.42951  0.29831  0.64330  1.0000
  C   C186      1.0  0.07536  0.97193  0.63540  1.0000
  H   H337      1.0  0.05767  0.13084  0.44841  1.0000
  C   C187      1.0  0.30211  0.02423  0.27491  1.0000
  H   H338      1.0  0.13851  0.22793  0.57894  1.0000
  H   H339      1.0  0.04508  0.18941  0.59878  1.0000
  H   H340      1.0  0.06805  0.09308  0.28362  1.0000
  H   H341      1.0  0.25032  0.43476  0.70598  1.0000
  H   H342      1.0  0.46535  0.24529  0.52603  1.0000
  C   C188      1.0  0.29298  0.99093  0.70860  1.0000
  H   H343      1.0  0.08745  0.10021  0.35139  1.0000
  H   H344      1.0  0.10589  0.20340  0.55632  1.0000
  H   H345      1.0  0.18169  0.34579  0.36973  1.0000
  H   H346      1.0  0.28882  0.07734  0.28679  1.0000
  H   H347      1.0  0.12342  0.08413  0.59297  1.0000
  C   C189      1.0  0.46060  0.10797  0.54044  1.0000
  S   S52       1.0  0.34773  0.05365  0.32071  1.0000
  H   H348      1.0  0.41718  0.99750  0.38718  1.0000
  H   H349      1.0  0.49409  0.26339  0.25037  1.0000
  C   C190      1.0  0.01952  0.11833  0.65464  1.0000
  C   C191      1.0  0.01899  0.00630  0.62745  1.0000
  H   H350      1.0  0.22321  0.97100  0.39765  1.0000
  C   C192      1.0  0.48876  0.13786  0.59556  1.0000
  C   C193      1.0  0.01664  0.01916  0.38681  1.0000
  Fe  Fe20      1.0  0.39015  0.08636  0.24670  1.0000
  C   C194      1.0  0.14091  0.16286  0.67629  1.0000
  H   H351      1.0  0.41558  0.13384  0.35335  1.0000
  H   H352      1.0  0.03295  0.00721  0.39429  1.0000
  H   H353      1.0  0.05540  0.10081  0.67098  1.0000
  C   C195      1.0  0.31567  0.23245  0.53698  1.0000
  H   H354      1.0  0.45757  0.15762  0.66025  1.0000
  H   H355      1.0  0.43295  0.24364  0.33524  1.0000
  N   N10       1.0  0.22192  0.06400  0.42014  1.0000
  C   C196      1.0  0.27985  0.11120  0.55811  1.0000
  H   H356      1.0  0.17405  0.07452  0.55758  1.0000
  C   C197      1.0  0.16241  0.23110  0.67241  1.0000
  H   H357      1.0  0.47447  0.05737  0.61669  1.0000
  H   H358      1.0  0.45613  0.18448  0.28757  1.0000
  H   H359      1.0  0.26202  0.38775  0.55533  1.0000
  S   S53       1.0  0.28811  0.24976  0.52996  1.0000
  C   C198      1.0  0.48261  0.03241  0.56381  1.0000
  H   H360      1.0  0.12390  0.26976  0.41126  1.0000
  C   C199      1.0  0.21294  0.99810  0.53757  1.0000
  H   H361      1.0  0.39391  0.15302  0.32475  1.0000
  S   S54       1.0  0.37887  0.15311  0.69041  1.0000
  H   H362      1.0  0.48631  0.14866  0.71007  1.0000
  H   H363      1.0  0.24098  0.30643  0.38685  1.0000
  C   C200      1.0  0.30532  0.96393  0.63322  1.0000
  H   H364      1.0  0.25432  0.04905  0.45185  1.0000
  C   C201      1.0  0.23387  0.35945  0.40904  1.0000
  C   C202      1.0  0.42164  0.33442  0.49191  1.0000
  S   S55       1.0  0.07651  0.17153  0.25865  1.0000
  S   S56       1.0  0.26156  0.31593  0.55602  1.0000
  C   C203      1.0  0.41340  0.17670  0.37713  1.0000
  H   H365      1.0  0.39259  0.40084  0.42648  1.0000
  H   H366      1.0  0.41477  0.26861  0.39606  1.0000
  H   H367      1.0  0.12322  0.05712  0.24062  1.0000
  H   H368      1.0  0.16690  0.09418  0.63326  1.0000
  C   C204      1.0  0.01549  0.18451  0.71967  1.0000
  C   C205      1.0  0.20246  0.02104  0.50738  1.0000
  H   H369      1.0  0.03808  0.31494  0.59765  1.0000
  H   H370      1.0  0.16910  0.94264  0.47318  1.0000
  H   H371      1.0  0.32304  0.41698  0.36981  1.0000
  H   H372      1.0  0.43131  0.27069  0.44540  1.0000
  H   H373      1.0  0.08369  0.24146  0.28053  1.0000
  H   H374      1.0  0.21872  0.24005  0.46959  1.0000
  H   H375      1.0  0.22690  0.38051  0.40338  1.0000
  H   H376      1.0  0.40362  0.42933  0.56530  1.0000
  H   H377      1.0  0.32403  0.03868  0.24068  1.0000
  C   C206      1.0  0.42186  0.29695  0.69684  1.0000
  H   H378      1.0  0.29757  0.24555  0.71015  1.0000
  H   H379      1.0  0.05024  0.22206  0.62514  1.0000
  H   H380      1.0  0.05090  0.07718  0.44265  1.0000
  C   C207      1.0  0.29706  0.40612  0.36606  1.0000
  H   H381      1.0  0.41954  0.40878  0.34064  1.0000
  C   C208      1.0  0.47675  0.20101  0.36520  1.0000
  C   C209      1.0  0.46455  0.03044  0.31971  1.0000
  H   H382      1.0  0.09306  0.30199  0.26139  1.0000
  N   N11       1.0  0.49123  0.03638  0.34447  1.0000
  C   C210      1.0  0.18047  0.22391  0.63477  1.0000
  H   H383      1.0  0.24643  0.19908  0.63878  1.0000
  N   N12       1.0  0.45015  0.20572  0.34614  1.0000
  C   C211      1.0  0.47319  0.37909  0.52638  1.0000
  H   H384      1.0  0.22412  0.40789  0.52631  1.0000
  H   H385      1.0  0.01675  0.13914  0.41015  1.0000
  S   S57       1.0  0.36340  0.23328  0.31857  1.0000
  H   H386      1.0  0.43019  0.97423  0.35165  1.0000
  H   H387      1.0  0.50582  0.95856  0.41928  1.0000
  Fe  Fe21      1.0  0.30492  0.35920  0.56532  1.0000
  H   H388      1.0  0.15750  0.33065  0.45686  1.0000
  H   H389      1.0  0.16822  0.04727  0.46322  1.0000
  N   N13       1.0  0.22216  0.10963  0.60465  1.0000
  C   C212      1.0  0.37279  0.36331  0.67171  1.0000
  C   C213      1.0  0.18994  0.11080  0.59878  1.0000
  C   C214      1.0  0.03700  0.16125  0.41545  1.0000
  C   C215      1.0  0.50565  0.14229  0.69021  1.0000
  C   C216      1.0  0.08542  0.20271  0.63115  1.0000
  H   H390      1.0  0.27600  0.94441  0.42537  1.0000
  C   C217      1.0  0.24395  0.17878  0.66983  1.0000
  H   H391      1.0  0.02569  0.94115  0.34876  1.0000
  S   S58       1.0  0.26036  0.26617  0.65561  1.0000
  H   H392      1.0  0.39278  0.31548  0.44517  1.0000
  H   H393      1.0  0.19305  0.13718  0.59306  1.0000
  H   H394      1.0  0.44496  0.10847  0.51664  1.0000
  H   H395      1.0  0.44528  0.08891  0.44333  1.0000
  H   H396      1.0  0.01790  0.98107  0.64058  1.0000
  Fe  Fe22      1.0  0.28751  0.28474  0.57390  1.0000
  C   C218      1.0  0.01958  0.07659  0.36966  1.0000
  H   H397      1.0  0.50121  0.20659  0.67621  1.0000
  H   H398      1.0  0.13620  0.30071  0.35243  1.0000
  S   S59       1.0  0.45736  0.37444  0.37180  1.0000
  Fe  Fe23      1.0  0.04725  0.94184  0.55446  1.0000
  H   H399      1.0  0.49185  0.11558  0.68994  1.0000
  C   C219      1.0  0.40347  0.42163  0.34742  1.0000
  H   H400      1.0  0.43766  0.05410  0.38909  1.0000
  H   H401      1.0  0.21382  0.04068  0.61004  1.0000
  H   H402      1.0  0.15557  0.01242  0.71108  1.0000
  H   H403      1.0  0.25344  0.13556  0.52735  1.0000
  C   C220      1.0  0.50714  0.02775  0.53167  1.0000
  C   C221      1.0  0.27109  0.37473  0.41154  1.0000
  H   H404      1.0  0.35839  0.21851  0.61289  1.0000
  H   H405      1.0  0.17293  0.04133  0.62290  1.0000
  H   H406      1.0  0.17544  0.05962  0.32092  1.0000
  H   H407      1.0  0.02621  0.16236  0.45239  1.0000
  H   H408      1.0  0.03501  0.01861  0.58753  1.0000
  C   C222      1.0  0.14488  0.10178  0.55730  1.0000
  C   C223      1.0  0.31329  0.32657  0.25997  1.0000
  H   H409      1.0  0.19227  0.07585  0.68022  1.0000
  C   C224      1.0  0.48400  0.17170  0.35621  1.0000
  C   C225      1.0  0.12292  0.16993  0.71429  1.0000
  H   H410      1.0  0.17703  0.03720  0.25150  1.0000
  H   H411      1.0  0.27026  0.18351  0.66926  1.0000
  C   C226      1.0  0.07184  0.04637  0.28379  1.0000
  C   C227      1.0  0.31364  0.95547  0.67492  1.0000
  S   S60       1.0  0.17777  0.27352  0.67174  1.0000
  C   C228      1.0  0.32672  0.21914  0.50168  1.0000
  H   H412      1.0  0.43934  0.04730  0.47440  1.0000
  H   H413      1.0  0.23734  0.30859  0.47611  1.0000
  H   H414      1.0  0.32375  0.10983  0.51148  1.0000
  H   H415      1.0  0.45736  0.41194  0.66137  1.0000
  C   C229      1.0  0.42822  0.99812  0.34918  1.0000
  H   H416      1.0  0.02973  0.05791  0.28892  1.0000
  H   H417      1.0  0.50217  0.40547  0.56915  1.0000
  C   C230      1.0  0.07099  0.99658  0.70072  1.0000
  H   H418      1.0  0.22154  0.12388  0.69796  1.0000
  C   C231      1.0  0.29899  0.10900  0.51007  1.0000
  Fe  Fe24      1.0  0.14594  0.40636  0.61447  1.0000
  S   S61       1.0  0.38993  0.18996  0.55105  1.0000
  H   H419      1.0  0.22997  0.18013  0.70474  1.0000
  H   H420      1.0  0.35819  0.98069  0.25610  1.0000
  H   H421      1.0  0.18335  0.18445  0.60688  1.0000
  C   C232      1.0  0.28462  0.99947  0.66705  1.0000
  H   H422      1.0  0.46978  0.11684  0.63076  1.0000
  C   C233      1.0  0.39014  0.30804  0.48452  1.0000
  C   C234      1.0  0.49393  0.23834  0.25573  1.0000
  Fe  Fe25      1.0  0.39983  0.36134  0.24589  1.0000
  C   C235      1.0  0.30685  0.96847  0.71286  1.0000
  H   H423      1.0  0.40999  0.26988  0.72120  1.0000
  H   H424      1.0  0.36569  0.30641  0.50661  1.0000
  Fe  Fe26      1.0  0.30707  0.07369  0.67712  1.0000
  N   N14       1.0  0.03907  0.05717  0.35782  1.0000
  H   H425      1.0  0.31901  0.24317  0.60370  1.0000
  H   H426      1.0  0.43574  0.26913  0.57525  1.0000
  C   C236      1.0  0.12826  0.00451  0.42316  1.0000
  H   H427      1.0  0.06135  0.19240  0.33924  1.0000
  C   C237      1.0  0.02843  0.08971  0.67026  1.0000
  C   C238      1.0  0.16934  0.18983  0.63625  1.0000
  H   H428      1.0  0.16834  0.99570  0.43900  1.0000
  H   H429      1.0  0.44516  0.33508  0.46846  1.0000
  C   C239      1.0  0.28289  0.09148  0.35270  1.0000
  H   H430      1.0  0.49950  0.99753  0.31975  1.0000
  C   C240      1.0  0.36729  0.18993  0.26694  1.0000
  C   C241      1.0  0.30949  0.42867  0.49803  1.0000
  C   C242      1.0  0.47892  0.18005  0.62811  1.0000
  C   C243      1.0  0.04952  0.19545  0.37410  1.0000
  S   S62       1.0  0.03737  0.95729  0.48484  1.0000
  H   H431      1.0  0.25011  0.36454  0.26648  1.0000
  H   H432      1.0  0.02099  0.25049  0.32969  1.0000
  H   H433      1.0  0.28367  0.94057  0.34192  1.0000
  H   H434      1.0  0.11412  0.00101  0.46160  1.0000
  H   H435      1.0  0.47782  0.26144  0.32837  1.0000
  S   S63       1.0  0.47435  0.94843  0.27315  1.0000
  H   H436      1.0  0.11636  0.97944  0.41677  1.0000
  C   C244      1.0  0.46325  0.22051  0.66436  1.0000
  H   H437      1.0  0.46856  0.19573  0.40573  1.0000
  H   H438      1.0  0.41131  0.16674  0.41595  1.0000
  Fe  Fe27      1.0  0.13277  0.19192  0.25221  1.0000
  H   H439      1.0  0.09575  0.07538  0.47487  1.0000
  H   H440      1.0  0.29734  0.12125  0.27643  1.0000
  H   H441      1.0  0.14611  0.30503  0.54028  1.0000
  H   H442      1.0  0.46120  0.05363  0.30972  1.0000
  C   C245      1.0  0.13471  0.29760  0.39124  1.0000
  C   C246      1.0  0.24562  0.11155  0.55721  1.0000
  H   H443      1.0  0.05969  0.03292  0.26005  1.0000
  C   C247      1.0  0.48547  0.94732  0.70683  1.0000
  C   C248      1.0  0.46321  0.06525  0.39431  1.0000
  H   H444      1.0  0.42001  0.21689  0.43071  1.0000
  H   H445      1.0  0.08626  0.17873  0.64574  1.0000
  C   C249      1.0  0.06690  0.15359  0.41569  1.0000
  Fe  Fe28      1.0  0.43832  0.35437  0.31483  1.0000
  C   C250      1.0  0.46781  0.13781  0.56059  1.0000
  H   H446      1.0  0.38464  0.42657  0.70356  1.0000
  H   H447      1.0  0.02704  0.07568  0.64337  1.0000
  H   H448      1.0  0.23941  0.01366  0.53825  1.0000
  H   H449      1.0  0.28197  0.00830  0.39828  1.0000
  H   H450      1.0  0.20836  0.12405  0.41013  1.0000
  C   C251      1.0  0.03245  0.37025  0.68829  1.0000
  H   H451      1.0  0.05145  0.03721  0.44773  1.0000
  H   H452      1.0  0.22606  0.34858  0.50640  1.0000
  H   H453      1.0  0.26706  0.14253  0.62029  1.0000
  C   C252      1.0  0.35003  0.20663  0.50561  1.0000
  C   C253      1.0  0.38210  0.22335  0.26904  1.0000
  H   H454      1.0  0.25081  0.16490  0.58642  1.0000
  C   C254      1.0  0.31959  0.24002  0.70682  1.0000
  C   C255      1.0  0.45536  0.28644  0.53837  1.0000
  H   H455      1.0  0.33079  0.31585  0.25863  1.0000
  H   H456      1.0  0.43024  0.34735  0.62109  1.0000
  H   H457      1.0  0.38098  0.01779  0.64212  1.0000
  H   H458      1.0  0.19412  0.98551  0.57613  1.0000
  H   H459      1.0  0.44322  0.19993  0.69927  1.0000
  C   C256      1.0  0.19830  0.11225  0.27515  1.0000
  C   C257      1.0  0.06111  0.30005  0.71557  1.0000
  H   H460      1.0  0.35878  0.19677  0.47788  1.0000
  N   N15       1.0  0.45351  0.34067  0.55421  1.0000
  H   H461      1.0  0.19928  0.36463  0.48776  1.0000
  H   H462      1.0  0.08919  0.17576  0.41776  1.0000
  C   C258      1.0  0.22189  0.28572  0.42205  1.0000
  S   S64       1.0  0.26973  0.02959  0.66068  1.0000
  H   H463      1.0  0.26033  0.10344  0.43810  1.0000
  C   C259      1.0  0.35323  0.36405  0.40891  1.0000
  S   S65       1.0  0.27653  0.34516  0.64569  1.0000
  H   H464      1.0  0.03961  0.13651  0.61832  1.0000
  H   H465      1.0  0.26720  0.27710  0.28277  1.0000
  S   S66       1.0  0.14270  0.97186  0.24534  1.0000
  H   H466      1.0  0.49218  0.33945  0.49626  1.0000
  C   C260      1.0  0.21444  0.30016  0.46409  1.0000
  C   C261      1.0  0.22368  0.14333  0.66607  1.0000
  H   H467      1.0  0.05818  0.25984  0.34695  1.0000
  H   H468      1.0  0.07135  0.21631  0.37951  1.0000
  H   H469      1.0  0.18797  0.30901  0.37381  1.0000
  H   H470      1.0  0.19708  0.01320  0.70167  1.0000
  H   H471      1.0  0.11535  0.10914  0.41593  1.0000
  H   H472      1.0  0.42365  0.36018  0.47839  1.0000
  H   H473      1.0  0.43752  0.96620  0.70177  1.0000
  H   H474      1.0  0.39420  0.18645  0.37935  1.0000
  C   C262      1.0  0.08638  0.32609  0.67182  1.0000
  S   S67       1.0  0.09140  0.97806  0.57241  1.0000
  H   H475      1.0  0.13687  0.09367  0.52711  1.0000
  C   C263      1.0  0.40290  0.37390  0.68416  1.0000
  C   C264      1.0  0.43423  0.42374  0.60909  1.0000
  H   H476      1.0  0.41387  0.05305  0.65193  1.0000
  H   H477      1.0  0.46591  0.24361  0.41605  1.0000
  C   C265      1.0  0.06142  0.24622  0.28065  1.0000
  C   C266      1.0  0.24260  0.14104  0.61705  1.0000
  H   H478      1.0  0.19885  0.11950  0.52020  1.0000
  H   H479      1.0  0.48070  0.09052  0.36479  1.0000
  H   H480      1.0  0.36136  0.41320  0.41298  1.0000
  N   N16       1.0  0.02184  0.20554  0.37060  1.0000
  Fe  Fe29      1.0  0.30399  0.31430  0.65568  1.0000
  H   H481      1.0  0.45850  0.01494  0.42207  1.0000
  C   C267      1.0  0.44670  0.33580  0.60823  1.0000
  H   H482      1.0  0.08859  0.06089  0.35846  1.0000
  C   C268      1.0  0.47534  0.32469  0.53564  1.0000
  H   H483      1.0  0.04385  0.40844  0.72382  1.0000
  H   H484      1.0  0.45558  0.01999  0.56655  1.0000
  H   H485      1.0  0.01096  0.11913  0.26259  1.0000
  H   H486      1.0  0.29170  0.07524  0.37276  1.0000
  H   H487      1.0  0.23696  0.42177  0.65719  1.0000
  H   H488      1.0  0.26246  0.27623  0.43904  1.0000
  H   H489      1.0  0.23147  0.08974  0.54535  1.0000
  H   H490      1.0  0.40267  0.35836  0.71718  1.0000
  H   H491      1.0  0.20295  0.24458  0.60423  1.0000
  C   C269      1.0  0.25450  0.31832  0.27549  1.0000
  C   C270      1.0  0.18409  0.05072  0.42562  1.0000
  C   C271      1.0  0.04454  0.31046  0.63046  1.0000
  H   H492      1.0  0.19713  0.13883  0.66932  1.0000
  H   H493      1.0  0.09808  0.34969  0.59484  1.0000
  C   C272      1.0  0.49718  0.00562  0.35288  1.0000
  C   C273      1.0  0.36144  0.20637  0.54570  1.0000
  H   H494      1.0  0.18114  0.07017  0.40026  1.0000
  Fe  Fe30      1.0  0.23579  0.29880  0.63759  1.0000
  H   H495      1.0  0.03609  0.10443  0.34691  1.0000
  H   H496      1.0  0.49351  0.42863  0.40695  1.0000
  C   C274      1.0  0.50795  0.40010  0.53399  1.0000
  C   C275      1.0  0.40368  0.41404  0.59838  1.0000
  H   H497      1.0  0.12519  0.02348  0.39724  1.0000
  H   H498      1.0  0.49445  0.27270  0.55072  1.0000
  H   H499      1.0  0.19294  0.27770  0.49599  1.0000
  H   H500      1.0  0.34378  0.12691  0.40274  1.0000
  C   C276      1.0  0.11021  0.07166  0.25299  1.0000
  C   C277      1.0  0.45344  0.98102  0.72121  1.0000
  S   S68       1.0  0.14918  0.19311  0.31820  1.0000
  H   H501      1.0  0.07044  0.02624  0.31378  1.0000
  C   C278      1.0  0.27730  0.30462  0.27333  1.0000
  H   H502      1.0  0.48241  0.08457  0.44926  1.0000
  H   H503      1.0  0.41227  0.99809  0.28513  1.0000
  C   C279      1.0  0.40211  0.99700  0.32374  1.0000
  C   C280      1.0  0.34966  0.21881  0.58180  1.0000
  C   C281      1.0  0.13344  0.20420  0.71194  1.0000
  H   H504      1.0  0.14751  0.31236  0.61960  1.0000
  C   C282      1.0  0.03996  0.24139  0.33349  1.0000
  H   H505      1.0  0.28414  0.99245  0.59722  1.0000
  H   H506      1.0  0.47962  0.38404  0.48603  1.0000
  C   C283      1.0  0.25199  0.42186  0.50684  1.0000
  H   H507      1.0  0.24124  0.25118  0.40465  1.0000
  Fe  Fe31      1.0  0.36403  0.14806  0.62434  1.0000
  C   C284      1.0  0.23418  0.09581  0.43509  1.0000
  C   C285      1.0  0.48038  0.27237  0.52446  1.0000
  H   H508      1.0  0.50539  0.16692  0.41469  1.0000
  H   H509      1.0  0.49264  0.17477  0.31647  1.0000
  H   H510      1.0  0.47398  0.98291  0.38268  1.0000
  H   H511      1.0  0.11672  0.06937  0.42037  1.0000
  H   H512      1.0  0.48162  0.16181  0.52845  1.0000
  C   C286      1.0  0.41890  0.32618  0.54665  1.0000
  S   S69       1.0  0.33526  0.32324  0.70571  1.0000
  H   H513      1.0  0.16706  0.98810  0.67585  1.0000
  H   H514      1.0  0.17965  0.01933  0.37623  1.0000
  S   S70       1.0  0.38166  0.32801  0.32418  1.0000
  C   C287      1.0  0.43379  0.40422  0.65266  1.0000
  S   S71       1.0  0.36358  0.09777  0.63107  1.0000
  H   H515      1.0  0.15273  0.28853  0.46952  1.0000
  H   H516      1.0  0.44759  0.28764  0.63589  1.0000
  C   C288      1.0  0.17127  0.31845  0.39209  1.0000
  H   H517      1.0  0.05913  0.38115  0.66111  1.0000
  C   C289      1.0  0.17070  0.31585  0.44536  1.0000
  H   H518      1.0  0.40457  0.28157  0.63967  1.0000
  C   C290      1.0  0.45791  0.20862  0.29255  1.0000
  H   H519      1.0  0.20456  0.33834  0.69188  1.0000
  H   H520      1.0  0.29227  0.11608  0.36050  1.0000
  Fe  Fe32      1.0  0.19462  0.24466  0.26903  1.0000
  H   H521      1.0  0.29926  0.39876  0.33233  1.0000
  C   C291      1.0  0.49936  0.40984  0.34579  1.0000
  H   H522      1.0  0.20323  0.04085  0.52440  1.0000
  H   H523      1.0  0.40360  0.30703  0.70695  1.0000
  H   H524      1.0  0.47131  0.34963  0.61479  1.0000
  Fe  Fe33      1.0  0.18273  0.17165  0.28664  1.0000
  C   C292      1.0  0.24028  0.98428  0.31882  1.0000
  H   H525      1.0  0.47600  0.00427  0.69133  1.0000
  C   C293      1.0  0.36271  0.11705  0.39757  1.0000
  H   H526      1.0  0.23635  0.35328  0.37436  1.0000
  C   C294      1.0  0.32727  0.23247  0.57690  1.0000
  H   H527      1.0  0.31802  0.21941  0.47051  1.0000
  C   C295      1.0  0.30690  0.02610  0.31947  1.0000
  H   H528      1.0  0.45082  0.22349  0.63672  1.0000
  H   H529      1.0  0.17499  0.00481  0.51106  1.0000
  H   H530      1.0  0.29825  0.13522  0.56206  1.0000
  H   H531      1.0  0.49383  0.32670  0.55561  1.0000
  C   C296      1.0  0.29023  0.98555  0.62965  1.0000
  H   H532      1.0  0.31055  0.95387  0.60381  1.0000
  H   H533      1.0  0.44558  0.08289  0.57073  1.0000
  C   C297      1.0  0.40448  0.00230  0.69182  1.0000
  C   C298      1.0  0.37305  0.38434  0.62999  1.0000
  H   H534      1.0  0.23384  0.07939  0.65749  1.0000
  H   H535      1.0  0.48548  0.11019  0.51827  1.0000
  N   N17       1.0  0.01775  0.17015  0.67765  1.0000
  C   C299      1.0  0.05157  0.06473  0.30286  1.0000
  H   H536      1.0  0.46035  0.14634  0.37674  1.0000
  H   H537      1.0  0.09447  0.21991  0.65269  1.0000
  Fe  Fe34      1.0  0.37338  0.10051  0.70117  1.0000
  C   C300      1.0  0.49319  0.05336  0.59229  1.0000
  H   H538      1.0  0.40265  0.33662  0.56439  1.0000
  C   C301      1.0  0.45724  0.07187  0.44341  1.0000
  H   H539      1.0  0.21277  0.97768  0.52189  1.0000
  C   C302      1.0  0.18707  0.06445  0.24432  1.0000
  H   H540      1.0  0.44236  0.13528  0.58106  1.0000
  C   C303      1.0  0.44357  0.24052  0.40388  1.0000
  H   H541      1.0  0.04024  0.13973  0.70630  1.0000
  H   H542      1.0  0.33279  0.35184  0.44627  1.0000
  H   H543      1.0  0.34963  0.37792  0.62160  1.0000
  C   C304      1.0  0.37782  0.40157  0.40142  1.0000
  H   H544      1.0  0.07564  0.14765  0.38200  1.0000
  H   H545      1.0  0.34459  0.26430  0.68628  1.0000
  Fe  Fe35      1.0  0.39232  0.29117  0.29191  1.0000
  C   C305      1.0  0.04870  0.19630  0.63196  1.0000
  C   C306      1.0  0.17857  0.10074  0.55603  1.0000
  C   C307      1.0  0.11189  0.22083  0.57846  1.0000
  C   C308      1.0  0.23694  0.26184  0.43483  1.0000
  C   C309      1.0  0.27834  0.00694  0.36373  1.0000
  H   H546      1.0  0.32872  0.10884  0.28916  1.0000
  H   H547      1.0  0.29638  0.43116  0.64577  1.0000
  S   S72       1.0  0.33350  0.32966  0.57514  1.0000
  S   S73       1.0  0.45622  0.38943  0.23786  1.0000
  H   H548      1.0  0.40308  0.29789  0.56557  1.0000
  H   H549      1.0  0.44114  0.28420  0.51235  1.0000
  Fe  Fe36      1.0  0.19009  0.96703  0.24760  1.0000
  C   C310      1.0  0.18685  0.07720  0.28378  1.0000
  C   C311      1.0  0.24269  0.07191  0.36725  1.0000
  H   H550      1.0  0.37133  0.02616  0.69939  1.0000
  H   H551      1.0  0.42163  0.00011  0.66055  1.0000
  H   H552      1.0  0.24649  0.13231  0.36207  1.0000
  H   H553      1.0  0.11147  0.24458  0.56073  1.0000
  C   C312      1.0  0.26870  0.00387  0.27455  1.0000
  H   H554      1.0  0.22390  0.01610  0.43756  1.0000
  H   H555      1.0  0.21679  0.09015  0.47250  1.0000
  C   C313      1.0  0.17163  0.31483  0.54547  1.0000
  H   H556      1.0  0.45639  0.39099  0.53636  1.0000
  N   N18       1.0  0.50646  0.17149  0.60454  1.0000
  H   H557      1.0  0.02294  0.21229  0.70557  1.0000
  C   C314      1.0  0.18831  0.33566  0.72853  1.0000
  C   C315      1.0  0.01809  0.13652  0.69373  1.0000
  C   C316      1.0  0.30371  0.37587  0.24970  1.0000
  H   H558      1.0  0.33918  0.39878  0.71322  1.0000
  C   C317      1.0  0.35735  0.42077  0.72153  1.0000
  H   H559      1.0  0.50213  0.22546  0.34953  1.0000
  H   H560      1.0  0.01875  0.34182  0.69850  1.0000
  C   C318      1.0  0.32657  0.36228  0.24736  1.0000
  C   C319      1.0  0.07692  0.28318  0.24644  1.0000
  H   H561      1.0  0.08101  0.37692  0.72855  1.0000
  S   S74       1.0  0.22951  0.22324  0.24278  1.0000
  H   H562      1.0  0.01778  0.38012  0.67047  1.0000
  H   H563      1.0  0.01037  0.17542  0.32237  1.0000
  H   H564      1.0  0.07879  0.01903  0.71200  1.0000
  C   C320      1.0  0.03153  0.12057  0.23337  1.0000
  S   S75       1.0  0.41079  0.08700  0.72508  1.0000
  H   H565      1.0  0.50800  0.12937  0.58179  1.0000
  H   H566      1.0  0.42550  0.27465  0.23303  1.0000
  H   H567      1.0  0.06377  0.18824  0.72999  1.0000
  H   H568      1.0  0.01124  0.25758  0.40890  1.0000
  H   H569      1.0  0.05582  0.28862  0.24125  1.0000
  C   C321      1.0  0.04818  0.93984  0.66835  1.0000
  H   H570      1.0  0.47250  0.43811  0.28671  1.0000
  C   C322      1.0  0.32570  0.61240  0.18658  1.0000
  H   H571      1.0  0.05243  0.62022  0.83411  1.0000
  C   C323      1.0  0.00985  0.49800  0.92915  1.0000
  C   C324      1.0  0.30346  0.49617  0.92629  1.0000
  H   H572      1.0  0.05778  0.52524  0.86742  1.0000
  C   C325      1.0  0.27915  0.70515  0.94189  1.0000
  C   C326      1.0  0.33211  0.63692  0.08837  1.0000
  H   H573      1.0  0.23973  0.79893  0.75585  1.0000
  C   C327      1.0  0.07916  0.76954  0.15359  1.0000
  C   C328      1.0  0.19074  0.66052  0.90912  1.0000
  C   C329      1.0  0.14245  0.48392  0.10459  1.0000
  H   H574      1.0  0.31406  0.80880  0.84894  1.0000
  H   H575      1.0  0.16550  0.72644  0.77172  1.0000
  H   H576      1.0  0.35670  0.72206  0.74543  1.0000
  C   C330      1.0  0.16206  0.93832  0.04450  1.0000
  H   H577      1.0  0.38726  0.74856  0.06146  1.0000
  H   H578      1.0  0.01448  0.58501  0.78760  1.0000
  H   H579      1.0  0.36402  0.89763  0.15389  1.0000
  H   H580      1.0  0.43222  0.46362  0.17814  1.0000
  S   S76       1.0  0.09699  0.65411  0.99252  1.0000
  C   C331      1.0  0.34067  0.81555  0.74825  1.0000
  H   H581      1.0  0.27278  0.70664  0.90775  1.0000
  H   H582      1.0  0.27656  0.72723  0.81584  1.0000
  H   H583      1.0  0.23398  0.89629  0.76894  1.0000
  C   C332      1.0  0.27938  0.79231  0.80705  1.0000
  H   H584      1.0  0.47259  0.83596  0.01197  1.0000
  H   H585      1.0  0.48526  0.77433  0.89112  1.0000
  N   N19       1.0  0.18957  0.93733  0.90922  1.0000
  H   H586      1.0  0.42052  0.58294  0.94851  1.0000
  H   H587      1.0  0.48924  0.87768  0.87555  1.0000
  H   H588      1.0  0.46279  0.78687  0.98050  1.0000
  C   C333      1.0  0.43042  0.57648  0.12057  1.0000
  S   S77       1.0  0.42763  0.69564  0.13609  1.0000
  S   S78       1.0  0.18146  0.93020  0.20535  1.0000
  C   C334      1.0  0.05974  0.76720  0.87445  1.0000
  H   H589      1.0  0.39596  0.59616  0.98986  1.0000
  S   S79       1.0  0.13910  0.80515  0.95578  1.0000
  H   H590      1.0  0.15573  0.56253  0.11887  1.0000
  Fe  Fe37      1.0  0.33533  0.64666  0.90548  1.0000
  H   H591      1.0  0.43618  0.60378  0.10828  1.0000
  C   C335      1.0  0.06622  0.60796  0.73399  1.0000
  H   H592      1.0  0.42127  0.67286  0.76768  1.0000
  H   H593      1.0  0.11578  0.90292  0.95699  1.0000
  C   C336      1.0  0.01488  0.65644  0.18082  1.0000
  N   N20       1.0  0.34221  0.78466  0.16601  1.0000
  H   H594      1.0  0.16330  0.56497  0.89470  1.0000
  H   H595      1.0  0.03867  0.56721  0.87160  1.0000
  C   C337      1.0  0.16476  0.61043  0.13341  1.0000
  S   S80       1.0  0.49927  0.78915  0.07229  1.0000
  S   S81       1.0  0.30064  0.86836  0.85187  1.0000
  H   H596      1.0  0.25640  0.61336  0.19377  1.0000
  C   C338      1.0  0.05414  0.55953  0.14870  1.0000
  C   C339      1.0  0.24131  0.72372  0.20923  1.0000
  H   H597      1.0  0.24752  0.51271  0.77744  1.0000
  H   H598      1.0  0.05124  0.66543  0.86757  1.0000
  C   C340      1.0  0.16017  0.74383  0.74667  1.0000
  H   H599      1.0  0.45124  0.59917  0.83788  1.0000
  C   C341      1.0  0.50375  0.62640  0.04398  1.0000
  C   C342      1.0  0.47522  0.71894  0.82515  1.0000
  H   H600      1.0  0.32396  0.60315  0.22412  1.0000
  H   H601      1.0  0.09863  0.64678  0.80074  1.0000
  H   H602      1.0  0.45713  0.80887  0.92749  1.0000
  H   H603      1.0  0.03831  0.65525  0.18489  1.0000
  C   C343      1.0  0.27793  0.93888  0.85297  1.0000
  C   C344      1.0  0.43435  0.52971  0.09064  1.0000
  H   H604      1.0  0.38977  0.73022  0.11912  1.0000
  H   H605      1.0  0.06361  0.62114  0.91407  1.0000
  H   H606      1.0  0.24237  0.48312  0.15189  1.0000
  H   H607      1.0  0.20952  0.50829  0.94660  1.0000
  H   H608      1.0  0.10818  0.74381  0.08944  1.0000
  H   H609      1.0  0.34519  0.93692  0.83686  1.0000
  C   C345      1.0  0.03245  0.54791  0.78546  1.0000
  H   H610      1.0  0.12749  0.57905  0.10448  1.0000
  C   C346      1.0  0.06237  0.56938  0.22332  1.0000
  C   C347      1.0  0.47596  0.84029  0.97236  1.0000
  H   H611      1.0  0.23723  0.61892  0.88412  1.0000
  C   C348      1.0  0.25614  0.89808  0.04177  1.0000
  H   H612      1.0  0.12763  0.61002  0.91441  1.0000
  H   H613      1.0  0.49982  0.63551  0.00933  1.0000
  H   H614      1.0  0.03285  0.56089  0.93429  1.0000
  S   S82       1.0  0.11462  0.72518  0.91166  1.0000
  H   H615      1.0  0.34178  0.75013  0.22922  1.0000
  H   H616      1.0  0.41721  0.55971  0.83808  1.0000
  H   H617      1.0  0.34616  0.80066  0.77650  1.0000
  H   H618      1.0  0.43859  0.86118  0.04038  1.0000
  H   H619      1.0  0.35602  0.71944  0.01533  1.0000
  H   H620      1.0  0.01100  0.91149  0.74254  1.0000
  C   C349      1.0  0.40004  0.75449  0.08870  1.0000
  C   C350      1.0  0.50835  0.77847  0.86166  1.0000
  Fe  Fe38      1.0  0.26080  0.58852  0.96020  1.0000
  H   H621      1.0  0.02341  0.68246  0.15557  1.0000
  Fe  Fe39      1.0  0.32211  0.86635  0.91241  1.0000
  C   C351      1.0  0.19771  0.82909  0.87629  1.0000
  H   H622      1.0  0.25344  0.69163  0.12173  1.0000
  H   H623      1.0  0.38127  0.54530  0.06015  1.0000
  C   C352      1.0  0.32810  0.60410  0.10767  1.0000
  H   H624      1.0  0.07576  0.47399  0.92900  1.0000
  C   C353      1.0  0.44976  0.70427  0.91455  1.0000
  H   H625      1.0  0.11829  0.53047  0.06909  1.0000
  H   H626      1.0  0.19461  0.64770  0.75111  1.0000
  H   H627      1.0  0.22628  0.77673  0.07119  1.0000
  C   C354      1.0  0.43957  0.69644  0.77293  1.0000
  C   C355      1.0  0.44256  0.93625  0.98328  1.0000
  C   C356      1.0  0.29201  0.78482  0.85033  1.0000
  H   H628      1.0  0.33906  0.83610  0.19843  1.0000
  C   C357      1.0  0.36861  0.72708  0.89508  1.0000
  C   C358      1.0  0.08095  0.57889  0.97775  1.0000
  H   H629      1.0  0.33669  0.68312  0.10332  1.0000
  H   H630      1.0  0.29590  0.73153  0.94105  1.0000
  H   H631      1.0  0.01958  0.71010  0.22147  1.0000
  H   H632      1.0  0.05658  0.78889  0.88252  1.0000
  H   H633      1.0  0.40389  0.89257  0.75119  1.0000
  H   H634      1.0  0.16270  0.88218  0.94801  1.0000
  H   H635      1.0  0.12828  0.48073  0.78946  1.0000
  H   H636      1.0  0.06839  0.78660  0.79786  1.0000
  C   C359      1.0  0.37992  0.56414  0.19422  1.0000
  C   C360      1.0  0.41890  0.69068  0.00564  1.0000
  C   C361      1.0  0.27485  0.46596  0.01453  1.0000
  C   C362      1.0  0.01105  0.81374  0.13625  1.0000
  H   H637      1.0  0.42484  0.88707  0.97217  1.0000
  H   H638      1.0  0.12201  0.50308  0.73884  1.0000
  N   N21       1.0  0.22105  0.66857  0.08139  1.0000
  C   C363      1.0  0.07418  0.67166  0.83588  1.0000
  S   S83       1.0  0.32717  0.90368  0.95359  1.0000
  H   H639      1.0  0.23117  0.61585  0.12989  1.0000
  H   H640      1.0  0.25255  0.77076  0.81640  1.0000
  H   H641      1.0  0.15674  0.59545  0.01792  1.0000
  C   C364      1.0  0.29201  0.76545  0.74465  1.0000
  H   H642      1.0  0.18937  0.68849  0.05541  1.0000
  C   C365      1.0  0.19497  0.63355  0.08329  1.0000
  C   C366      1.0  0.05046  0.56258  0.89942  1.0000
  H   H643      1.0  0.43346  0.51991  0.16736  1.0000
  C   C367      1.0  0.12500  0.89471  0.92618  1.0000
  C   C368      1.0  0.25306  0.87913  0.08775  1.0000
  H   H644      1.0  0.12911  0.47878  0.14427  1.0000
  S   S84       1.0  0.33167  0.67087  0.20470  1.0000
  H   H645      1.0  0.07289  0.85316  0.94262  1.0000
  H   H646      1.0  0.42225  0.68834  0.04189  1.0000
  H   H647      1.0  0.09421  0.45346  0.09144  1.0000
  H   H648      1.0  0.40847  0.78773  0.13195  1.0000
  H   H649      1.0  0.29623  0.55989  0.75159  1.0000
  H   H650      1.0  0.32247  0.74714  0.77951  1.0000
  H   H651      1.0  0.07647  0.49594  0.07686  1.0000
  C   C369      1.0  0.18210  0.87934  0.76408  1.0000
  C   C370      1.0  0.07719  0.63938  0.83539  1.0000
  C   C371      1.0  0.36451  0.71340  0.94408  1.0000
  C   C372      1.0  0.11568  0.48039  0.07859  1.0000
  Fe  Fe40      1.0  0.12418  0.74969  0.96921  1.0000
  C   C373      1.0  0.19219  0.48033  0.80565  1.0000
  C   C374      1.0  0.04998  0.54656  0.19811  1.0000
  C   C375      1.0  0.17888  0.46364  0.13526  1.0000
  C   C376      1.0  0.30408  0.77246  0.17349  1.0000
  H   H652      1.0  0.02080  0.78790  0.22298  1.0000
  C   C377      1.0  0.18415  0.82660  0.92526  1.0000
  C   C378      1.0  0.50250  0.61020  0.75219  1.0000
  H   H653      1.0  0.17763  0.50518  0.88815  1.0000
  C   C379      1.0  0.12543  0.48065  0.75327  1.0000
  H   H654      1.0  0.09927  0.59296  0.99489  1.0000
  C   C380      1.0  0.05122  0.89090  0.21420  1.0000
  C   C381      1.0  0.36117  0.76234  0.96090  1.0000
  C   C382      1.0  0.32934  0.64502  0.16758  1.0000
  C   C383      1.0  0.16286  0.90098  0.91717  1.0000
  C   C384      1.0  0.22427  0.93870  0.90400  1.0000
  H   H655      1.0  0.14592  0.89848  0.01276  1.0000
  H   H656      1.0  0.49800  0.57766  0.03696  1.0000
  C   C385      1.0  0.17105  0.64071  0.95867  1.0000
  C   C386      1.0  0.44128  0.58420  0.81421  1.0000
  C   C387      1.0  0.04385  0.81491  0.14398  1.0000
  H   H657      1.0  0.08915  0.62247  0.21885  1.0000
  S   S85       1.0  0.26128  0.84444  0.09322  1.0000
  H   H658      1.0  0.17228  0.84768  0.21273  1.0000
  S   S86       1.0  0.41914  0.74272  0.20415  1.0000
  H   H659      1.0  0.43798  0.60503  0.03142  1.0000
  C   C388      1.0  0.20406  0.48118  0.95802  1.0000
  H   H660      1.0  0.45979  0.58664  0.99854  1.0000
  Fe  Fe41      1.0  0.38660  0.69063  0.20123  1.0000
  C   C389      1.0  0.24653  0.88982  0.12836  1.0000
  H   H661      1.0  0.49126  0.80909  0.15857  1.0000
  H   H662      1.0  0.43540  0.82109  0.81856  1.0000
  C   C390      1.0  0.14074  0.57560  0.13073  1.0000
  H   H663      1.0  0.34127  0.76222  0.10775  1.0000
  Fe  Fe42      1.0  0.37754  0.90462  0.95126  1.0000
  H   H664      1.0  0.29371  0.69063  0.94264  1.0000
  C   C391      1.0  0.33306  0.65754  0.11830  1.0000
  H   H665      1.0  0.20910  0.47144  0.04908  1.0000
  H   H666      1.0  0.07979  0.82051  0.22653  1.0000
  S   S87       1.0  0.27823  0.55145  0.98703  1.0000
  H   H667      1.0  0.34193  0.44161  0.08167  1.0000
  H   H668      1.0  0.38543  0.59139  0.18369  1.0000
  H   H669      1.0  0.11213  0.75388  0.18764  1.0000
  H   H670      1.0  0.49070  0.58989  0.18426  1.0000
  H   H671      1.0  0.22526  0.90333  0.86337  1.0000
  H   H672      1.0  0.24969  0.52483  0.15478  1.0000
  H   H673      1.0  0.44451  0.77895  0.77728  1.0000
  C   C392      1.0  0.22858  0.73006  0.06863  1.0000
  H   H674      1.0  0.15611  0.92026  0.08093  1.0000
  H   H675      1.0  0.35159  0.54718  0.21543  1.0000
  H   H676      1.0  0.32570  0.84291  0.14642  1.0000
  Fe  Fe43      1.0  0.14461  0.69972  0.93434  1.0000
  S   S88       1.0  0.35886  0.61379  0.92775  1.0000
  H   H677      1.0  0.19115  0.91790  0.00675  1.0000
  H   H678      1.0  0.13273  0.73300  0.12329  1.0000
  C   C393      1.0  0.21842  0.62467  0.90485  1.0000
  C   C394      1.0  0.12196  0.75063  0.11538  1.0000
  H   H679      1.0  0.17441  0.60500  0.16351  1.0000
  H   H680      1.0  0.09791  0.84123  0.97431  1.0000
  H   H681      1.0  0.22454  0.69527  0.22460  1.0000
  C   C395      1.0  0.39862  0.57385  0.98356  1.0000
  H   H682      1.0  0.50054  0.91370  0.93113  1.0000
  H   H683      1.0  0.01677  0.88426  0.82455  1.0000
  C   C396      1.0  0.18555  0.53294  0.87516  1.0000
  H   H684      1.0  0.01444  0.76085  0.18623  1.0000
  C   C397      1.0  0.24643  0.64053  0.13514  1.0000
  H   H685      1.0  0.44553  0.93467  0.77499  1.0000
  H   H686      1.0  0.11037  0.56646  0.92160  1.0000
  H   H687      1.0  0.12003  0.85395  0.73971  1.0000
  H   H688      1.0  0.26137  0.69528  0.75875  1.0000
  H   H689      1.0  0.25948  0.86004  0.94841  1.0000
  H   H690      1.0  0.19050  0.44617  0.13405  1.0000
  H   H691      1.0  0.36372  0.68892  0.95688  1.0000
  H   H692      1.0  0.27315  0.70931  0.03328  1.0000
  H   H693      1.0  0.49785  0.68203  0.91578  1.0000
  H   H694      1.0  0.38144  0.52689  0.16065  1.0000
  S   S89       1.0  0.07598  0.70756  0.03056  1.0000
  C   C398      1.0  0.09910  0.50282  0.08927  1.0000
  C   C399      1.0  0.36241  0.82261  0.13673  1.0000
  H   H695      1.0  0.33643  0.90911  0.07660  1.0000
  H   H696      1.0  0.40674  0.53334  0.01903  1.0000
  H   H697      1.0  0.26406  0.75281  0.74836  1.0000
  H   H698      1.0  0.23029  0.66107  0.98518  1.0000
  H   H699      1.0  0.27582  0.81504  0.80826  1.0000
  H   H700      1.0  0.19598  0.83601  0.98916  1.0000
  H   H701      1.0  0.24145  0.92952  0.15316  1.0000
  H   H702      1.0  0.24712  0.73496  0.08861  1.0000
  H   H703      1.0  0.20841  0.54774  0.88478  1.0000
  C   C400      1.0  0.30119  0.49503  0.97463  1.0000
  H   H704      1.0  0.15893  0.86868  0.16958  1.0000
  H   H705      1.0  0.39958  0.66484  0.00739  1.0000
  H   H706      1.0  0.19615  0.46915  0.93061  1.0000
  C   C401      1.0  0.10254  0.58652  0.92345  1.0000
  C   C402      1.0  0.45446  0.80570  0.96664  1.0000
  H   H707      1.0  0.32098  0.93220  0.10985  1.0000
  H   H708      1.0  0.14829  0.52560  0.94358  1.0000
  H   H709      1.0  0.43320  0.46676  0.11626  1.0000
  H   H710      1.0  0.37303  0.76948  0.84043  1.0000
  H   H711      1.0  0.49984  0.73068  0.79279  1.0000
  H   H712      1.0  0.12103  0.77600  0.73299  1.0000
  C   C403      1.0  0.07490  0.45156  0.95163  1.0000
  H   H713      1.0  0.30123  0.76577  0.84950  1.0000
  H   H714      1.0  0.22909  0.66707  0.84376  1.0000
  H   H715      1.0  0.29345  0.78460  0.19719  1.0000
  H   H716      1.0  0.16059  0.45427  0.17373  1.0000
  H   H717      1.0  0.30100  0.78076  0.13748  1.0000
  C   C404      1.0  0.08406  0.61811  0.14958  1.0000
  H   H718      1.0  0.49130  0.91925  0.80769  1.0000
  C   C405      1.0  0.34297  0.93493  0.07980  1.0000
  S   S90       1.0  0.15842  0.72813  0.98661  1.0000
  H   H719      1.0  0.43417  0.59908  0.78823  1.0000
  C   C406      1.0  0.22023  0.90649  0.74929  1.0000
  C   C407      1.0  0.44458  0.88772  0.03159  1.0000
  H   H720      1.0  0.21043  0.65975  0.15941  1.0000
  C   C408      1.0  0.09694  0.74715  0.16338  1.0000
  H   H721      1.0  0.22163  0.92951  0.75855  1.0000
  Fe  Fe44      1.0  0.46174  0.74587  0.14276  1.0000
  C   C409      1.0  0.46860  0.57639  0.78584  1.0000
  H   H722      1.0  0.50535  0.78559  0.82565  1.0000
  H   H723      1.0  0.46487  0.85698  0.96130  1.0000
  H   H724      1.0  0.14407  0.77741  0.09763  1.0000
  H   H725      1.0  0.19288  0.73856  0.12149  1.0000
  H   H726      1.0  0.12050  0.55875  0.16762  1.0000
  C   C410      1.0  0.27962  0.73291  0.19748  1.0000
  C   C411      1.0  0.08456  0.62492  0.88117  1.0000
  C   C412      1.0  0.36054  0.73086  0.97701  1.0000
  H   H727      1.0  0.18022  0.81902  0.85718  1.0000
  H   H728      1.0  0.22184  0.91955  0.93667  1.0000
  H   H729      1.0  0.40215  0.80360  0.07645  1.0000
  C   C413      1.0  0.24557  0.68703  0.98666  1.0000
  H   H730      1.0  0.16245  0.61945  0.83909  1.0000
  C   C414      1.0  0.35738  0.85345  0.74719  1.0000
  C   C415      1.0  0.45394  0.70387  0.96525  1.0000
  C   C416      1.0  0.49055  0.68425  0.88238  1.0000
  C   C417      1.0  0.22494  0.51237  0.80307  1.0000
  C   C418      1.0  0.17927  0.84725  0.75007  1.0000
  H   H731      1.0  0.44290  0.57469  0.14855  1.0000
  H   H732      1.0  0.36687  0.80112  0.89884  1.0000
  H   H733      1.0  0.16942  0.89168  0.74561  1.0000
  H   H734      1.0  0.44642  0.52446  0.05791  1.0000
  S   S91       1.0  0.48195  0.72282  0.19389  1.0000
  H   H735      1.0  0.45665  0.56070  0.76415  1.0000
  H   H736      1.0  0.18323  0.68174  0.11816  1.0000
  H   H737      1.0  0.25990  0.88913  0.01082  1.0000
  H   H738      1.0  0.07676  0.71960  0.18157  1.0000
  H   H739      1.0  0.28543  0.71941  0.17204  1.0000
  H   H740      1.0  0.03872  0.52609  0.00325  1.0000
  Fe  Fe45      1.0  0.10904  0.68371  0.04378  1.0000
  C   C419      1.0  0.23380  0.84363  0.85270  1.0000
  C   C420      1.0  0.20383  0.69096  0.08151  1.0000
  C   C421      1.0  0.34821  0.84493  0.15761  1.0000
  N   N22       1.0  0.48215  0.71337  0.87278  1.0000
  Fe  Fe46      1.0  0.06814  0.68150  0.97394  1.0000
  H   H741      1.0  0.11654  0.82841  0.81907  1.0000
  C   C422      1.0  0.07118  0.59534  0.12438  1.0000
  C   C423      1.0  0.39047  0.55493  0.14817  1.0000
  H   H742      1.0  0.42701  0.71270  0.77713  1.0000
  H   H743      1.0  0.47408  0.56064  0.81309  1.0000
  C   C424      1.0  0.50325  0.47934  0.21740  1.0000
  H   H744      1.0  0.45752  0.66790  0.81542  1.0000
  H   H745      1.0  0.01442  0.63571  0.12215  1.0000
  H   H746      1.0  0.25182  0.78911  0.90215  1.0000
  H   H747      1.0  0.27352  0.65227  0.10909  1.0000
  C   C425      1.0  0.46593  0.61292  0.22513  1.0000
  H   H748      1.0  0.14917  0.62315  0.14378  1.0000
  C   C426      1.0  0.32425  0.60703  0.76388  1.0000
  Fe  Fe47      1.0  0.47588  0.91203  0.16524  1.0000
  S   S92       1.0  0.09108  0.89073  0.20133  1.0000
  S   S93       1.0  0.01591  0.65062  0.96913  1.0000
  H   H749      1.0  0.10145  0.83387  0.16174  1.0000
  H   H750      1.0  0.24436  0.87531  0.16385  1.0000
  C   C427      1.0  0.03445  0.78438  0.18955  1.0000
  H   H751      1.0  0.17006  0.89339  0.88448  1.0000
  H   H752      1.0  0.07492  0.60517  0.08607  1.0000
  H   H753      1.0  0.25711  0.59842  0.78688  1.0000
  H   H754      1.0  0.13985  0.80963  0.17151  1.0000
  H   H755      1.0  0.25948  0.56577  0.82736  1.0000
  S   S94       1.0  0.29723  0.60751  0.88256  1.0000
  H   H756      1.0  0.36251  0.82651  0.09849  1.0000
  H   H757      1.0  0.16787  0.47774  0.82995  1.0000
  C   C428      1.0  0.20650  0.83851  0.95093  1.0000
  Fe  Fe48      1.0  0.44497  0.67243  0.19079  1.0000
  H   H758      1.0  0.38496  0.89322  0.09765  1.0000
  H   H759      1.0  0.34926  0.61552  0.73452  1.0000
  C   C429      1.0  0.25609  0.85419  0.87902  1.0000
  H   H760      1.0  0.42301  0.67328  0.85061  1.0000
  C   C430      1.0  0.04983  0.92165  0.20813  1.0000
  H   H761      1.0  0.09723  0.59567  0.80862  1.0000
  N   N23       1.0  0.14322  0.82126  0.75476  1.0000
  H   H762      1.0  0.19701  0.51683  0.13609  1.0000
  H   H763      1.0  0.14909  0.64958  0.81517  1.0000
  C   C431      1.0  0.29356  0.58307  0.75206  1.0000
  H   H764      1.0  0.05580  0.53891  0.04889  1.0000
  H   H765      1.0  0.49842  0.72445  0.05065  1.0000
  H   H766      1.0  0.10804  0.44726  0.89101  1.0000
  N   N24       1.0  0.08673  0.59209  0.88517  1.0000
  C   C432      1.0  0.06304  0.54116  0.00945  1.0000
  C   C433      1.0  0.04771  0.52667  0.90440  1.0000
  H   H767      1.0  0.39825  0.88648  0.15041  1.0000
  H   H768      1.0  0.12356  0.90918  0.89253  1.0000
  C   C434      1.0  0.45961  0.90696  0.05936  1.0000
  C   C435      1.0  0.17509  0.46090  0.00846  1.0000
  C   C436      1.0  0.45918  0.81817  0.81105  1.0000
  C   C437      1.0  0.19757  0.60414  0.95391  1.0000
  H   H769      1.0  0.24401  0.74184  0.02852  1.0000
  H   H770      1.0  0.45573  0.79884  0.84425  1.0000
  H   H771      1.0  0.49365  0.63685  0.07101  1.0000
  C   C438      1.0  0.43847  0.58042  0.03297  1.0000
  H   H772      1.0  0.06140  0.58786  0.98116  1.0000
  C   C439      1.0  0.46484  0.80622  0.76643  1.0000
  C   C440      1.0  0.48544  0.58638  0.06466  1.0000
  H   H773      1.0  0.04493  0.54197  0.12908  1.0000
  C   C441      1.0  0.37570  0.88289  0.13851  1.0000
  H   H774      1.0  0.18994  0.74583  0.06071  1.0000
  H   H775      1.0  0.32104  0.56628  0.17177  1.0000
  H   H776      1.0  0.37415  0.55577  0.98006  1.0000
  C   C442      1.0  0.44790  0.68654  0.81893  1.0000
  H   H777      1.0  0.39606  0.46323  0.16178  1.0000
  H   H778      1.0  0.21706  0.44803  0.80231  1.0000
  H   H779      1.0  0.06284  0.52115  0.92606  1.0000
  C   C443      1.0  0.18670  0.47593  0.04793  1.0000
  C   C444      1.0  0.16667  0.62795  0.76362  1.0000
  Fe  Fe49      1.0  0.31803  0.59390  0.00235  1.0000
  H   H780      1.0  0.21941  0.61962  0.21489  1.0000
  H   H781      1.0  0.08076  0.53009  0.00196  1.0000
  C   C445      1.0  0.12497  0.81326  0.20350  1.0000
  H   H782      1.0  0.27159  0.46631  0.05179  1.0000
  H   H783      1.0  0.40876  0.70901  0.99906  1.0000
  H   H784      1.0  0.19835  0.50444  0.03273  1.0000
  H   H785      1.0  0.03344  0.74524  0.88301  1.0000
  H   H786      1.0  0.31835  0.51742  0.98139  1.0000
  H   H787      1.0  0.15130  0.46142  0.00543  1.0000
  H   H788      1.0  0.06925  0.92373  0.04189  1.0000
  S   S95       1.0  0.29716  0.62967  0.98208  1.0000
  C   C446      1.0  0.36663  0.77688  0.91130  1.0000
  C   C447      1.0  0.24058  0.93096  0.85871  1.0000
  H   H789      1.0  0.47117  0.52325  0.12395  1.0000
  C   C448      1.0  0.40460  0.55554  0.02689  1.0000
  C   C449      1.0  0.35344  0.76502  0.13650  1.0000
  C   C450      1.0  0.19392  0.54595  0.81899  1.0000
  C   C451      1.0  0.07929  0.60501  0.19918  1.0000
  C   C452      1.0  0.43644  0.90235  0.99338  1.0000
  H   H790      1.0  0.46703  0.65910  0.89073  1.0000
  H   H791      1.0  0.16510  0.60304  0.76223  1.0000
  H   H792      1.0  0.48657  0.46703  0.19706  1.0000
  H   H793      1.0  0.33514  0.64667  0.05027  1.0000
  C   C453      1.0  0.16966  0.92331  0.00417  1.0000
  C   C454      1.0  0.10952  0.59438  0.83686  1.0000
  H   H794      1.0  0.40030  0.77250  0.74898  1.0000
  H   H795      1.0  0.08193  0.75495  0.81321  1.0000
  H   H796      1.0  0.07052  0.44769  0.78260  1.0000
  H   H797      1.0  0.13105  0.79811  0.83276  1.0000
  C   C455      1.0  0.42493  0.47451  0.14826  1.0000
  C   C456      1.0  0.11939  0.80741  0.80783  1.0000
  H   H798      1.0  0.20135  0.53462  0.73350  1.0000
  H   H799      1.0  0.13212  0.52424  0.89327  1.0000
  H   H800      1.0  0.42846  0.67826  0.92045  1.0000
  H   H801      1.0  0.13335  0.75375  0.80663  1.0000
  C   C457      1.0  0.09935  0.85661  0.93879  1.0000
  C   C458      1.0  0.38044  0.80138  0.22101  1.0000
  H   H802      1.0  0.42853  0.76507  0.07087  1.0000
  H   H803      1.0  0.32502  0.59315  0.79859  1.0000
  S   S96       1.0  0.10759  0.66295  0.12014  1.0000
  Fe  Fe50      1.0  0.34576  0.82688  0.97683  1.0000
  H   H804      1.0  0.23687  0.73353  0.17535  1.0000
  C   C459      1.0  0.39345  0.86565  0.75118  1.0000
  C   C460      1.0  0.44265  0.51371  0.13421  1.0000
  H   H805      1.0  0.07072  0.68224  0.80147  1.0000
  H   H806      1.0  0.47142  0.73021  0.96397  1.0000
  C   C461      1.0  0.15476  0.76908  0.77057  1.0000
  S   S97       1.0  0.29305  0.81940  0.98008  1.0000
  H   H807      1.0  0.08937  0.49861  0.12938  1.0000
  H   H808      1.0  0.28704  0.92813  0.82559  1.0000
  H   H809      1.0  0.37650  0.56071  0.12450  1.0000
  H   H810      1.0  0.10898  0.64580  0.88132  1.0000
  H   H811      1.0  0.10746  0.84676  0.90930  1.0000
  H   H812      1.0  0.11162  0.57045  0.84056  1.0000
  H   H813      1.0  0.05827  0.83993  0.14925  1.0000
  H   H814      1.0  0.22846  0.48133  0.95928  1.0000
  H   H815      1.0  0.19305  0.44311  0.86418  1.0000
  S   S98       1.0  0.46849  0.88677  0.10760  1.0000
  C   C462      1.0  0.25812  0.57394  0.79023  1.0000
  C   C463      1.0  0.29586  0.73735  0.77801  1.0000
  H   H816      1.0  0.02571  0.71117  0.99364  1.0000
  H   H817      1.0  0.15498  0.63625  0.73799  1.0000
  H   H818      1.0  0.49254  0.57998  0.09748  1.0000
  H   H819      1.0  0.39448  0.56072  0.21855  1.0000
  C   C464      1.0  0.50053  0.92834  0.83644  1.0000
  H   H820      1.0  0.38349  0.82756  0.21494  1.0000
  C   C465      1.0  0.34584  0.77683  0.21609  1.0000
  C   C466      1.0  0.03571  0.58075  0.77068  1.0000
  H   H821      1.0  0.23089  0.70131  0.98310  1.0000
  N   N25       1.0  0.15978  0.46190  0.09926  1.0000
  H   H822      1.0  0.09813  0.79332  0.12143  1.0000
  H   H823      1.0  0.18977  0.83533  0.77382  1.0000
  C   C467      1.0  0.20805  0.74880  0.08134  1.0000
  C   C468      1.0  0.37033  0.75913  0.87827  1.0000
  S   S99       1.0  0.32748  0.53588  0.87819  1.0000
  S   S100      1.0  0.35186  0.86111  0.02262  1.0000
  H   H824      1.0  0.01862  0.84501  0.84499  1.0000
  C   C469      1.0  0.25481  0.92891  0.03568  1.0000
  H   H825      1.0  0.34359  0.73824  0.16044  1.0000
  H   H826      1.0  0.18234  0.63650  0.05590  1.0000
  C   C470      1.0  0.14937  0.84815  0.20538  1.0000
  S   S101      1.0  0.03165  0.45697  0.02597  1.0000
  H   H827      1.0  0.43914  0.72199  0.90515  1.0000
  H   H828      1.0  0.17025  0.53013  0.81138  1.0000
  C   C471      1.0  0.08178  0.77808  0.82022  1.0000
  C   C472      1.0  0.17299  0.61142  0.98015  1.0000
  H   H829      1.0  0.48207  0.84328  0.80449  1.0000
  S   S102      1.0  0.20354  0.57093  0.98411  1.0000
  H   H830      1.0  0.22704  0.51292  0.08896  1.0000
  C   C473      1.0  0.24245  0.85191  0.92795  1.0000
  Fe  Fe51      1.0  0.30119  0.85667  0.02112  1.0000
  H   H831      1.0  0.24114  0.74558  0.90475  1.0000
  S   S103      1.0  0.18453  0.69418  0.88021  1.0000
  H   H832      1.0  0.12860  0.48919  0.03813  1.0000
  N   N26       1.0  0.22576  0.54660  0.78680  1.0000
  C   C474      1.0  0.05997  0.54233  0.76434  1.0000
  N   N27       1.0  0.30222  0.79867  0.75592  1.0000
  C   C475      1.0  0.20832  0.50014  0.12740  1.0000
  C   C476      1.0  0.48117  0.59199  0.21991  1.0000
  C   C477      1.0  0.09169  0.81268  0.19686  1.0000
  H   H833      1.0  0.16239  0.51175  0.09002  1.0000
  H   H834      1.0  0.34069  0.85661  0.77759  1.0000
  N   N28       1.0  0.06445  0.77920  0.19616  1.0000
  C   C478      1.0  0.21420  0.65221  0.88211  1.0000
  H   H835      1.0  0.46551  0.73792  0.82140  1.0000
  H   H836      1.0  0.05841  0.75489  0.13991  1.0000
  S   S104      1.0  0.05495  0.50088  0.78264  1.0000
  H   H837      1.0  0.46354  0.71104  0.73957  1.0000
  C   C479      1.0  0.28242  0.46654  0.91772  1.0000
  H   H838      1.0  0.50369  0.63207  0.86222  1.0000
  H   H839      1.0  0.39192  0.84932  0.78598  1.0000
  H   H840      1.0  0.17891  0.78392  0.77739  1.0000
  H   H841      1.0  0.40365  0.80383  0.19421  1.0000
  S   S105      1.0  0.37467  0.87059  0.90488  1.0000
  H   H842      1.0  0.28442  0.46703  0.88041  1.0000
  H   H843      1.0  0.49067  0.80733  0.75760  1.0000
  S   S106      1.0  0.36810  0.70227  0.85675  1.0000
  H   H844      1.0  0.40576  0.51460  0.09952  1.0000
  Fe  Fe52      1.0  0.31787  0.57316  0.91106  1.0000
  N   N29       1.0  0.44624  0.56777  0.07779  1.0000
  H   H845      1.0  0.47883  0.92851  0.86340  1.0000
  H   H846      1.0  0.09817  0.69152  0.83804  1.0000
  H   H847      1.0  0.39051  0.83346  0.13206  1.0000
  C   C480      1.0  0.25287  0.68371  0.03549  1.0000
  H   H848      1.0  0.06014  0.81446  0.10991  1.0000
  H   H849      1.0  0.32245  0.63038  0.76682  1.0000
  H   H850      1.0  0.46472  0.68687  0.97667  1.0000
  H   H851      1.0  0.42651  0.79547  0.98791  1.0000
  H   H852      1.0  0.27260  0.76858  0.93028  1.0000
  C   C481      1.0  0.09342  0.44755  0.75936  1.0000
  C   C482      1.0  0.19334  0.44716  0.82578  1.0000
  H   H853      1.0  0.29123  0.68693  0.78327  1.0000
  H   H854      1.0  0.24429  0.84568  0.81472  1.0000
  S   S107      1.0  0.35363  0.78203  0.00415  1.0000
  S   S108      1.0  0.46333  0.63613  0.17308  1.0000
  C   C483      1.0  0.39291  0.78046  0.10845  1.0000
  H   H855      1.0  0.19087  0.48195  0.76834  1.0000
  H   H856      1.0  0.22814  0.50764  0.83959  1.0000
  C   C484      1.0  0.28840  0.70696  0.75900  1.0000
  H   H857      1.0  0.07204  0.75882  0.89898  1.0000
  C   C485      1.0  0.26256  0.77120  0.89980  1.0000
  H   H858      1.0  0.19659  0.57216  0.81025  1.0000
  S   S109      1.0  0.32844  0.57828  0.07100  1.0000
  H   H859      1.0  0.27948  0.92699  0.88836  1.0000
  C   C486      1.0  0.23223  0.66618  0.12555  1.0000
  H   H860      1.0  0.16969  0.87202  0.80457  1.0000
  C   C487      1.0  0.24489  0.92048  0.12234  1.0000
  H   H861      1.0  0.15428  0.64777  0.98062  1.0000
  C   C488      1.0  0.14773  0.62445  0.81603  1.0000
  H   H862      1.0  0.26568  0.66735  0.03664  1.0000
  C   C489      1.0  0.15538  0.53719  0.90327  1.0000
  H   H863      1.0  0.20824  0.61885  0.07169  1.0000
  C   C490      1.0  0.14571  0.79283  0.73760  1.0000
  C   C491      1.0  0.01757  0.92112  0.21601  1.0000
  H   H864      1.0  0.13651  0.72781  0.73934  1.0000
  H   H865      1.0  0.21195  0.48652  0.20017  1.0000
  C   C492      1.0  0.32463  0.59181  0.15680  1.0000
  C   C493      1.0  0.22923  0.49836  0.16079  1.0000
  H   H866      1.0  0.01855  0.83629  0.10425  1.0000
  S   S110      1.0  0.03055  0.50218  0.22918  1.0000
  C   C494      1.0  0.02041  0.85962  0.22957  1.0000
  H   H867      1.0  0.50395  0.68040  0.73407  1.0000
  H   H868      1.0  0.43805  0.82944  0.73346  1.0000
  H   H869      1.0  0.22775  0.60446  0.73600  1.0000
  C   C495      1.0  0.22603  0.55420  0.73480  1.0000
  C   C496      1.0  0.24635  0.63186  0.18776  1.0000
  H   H870      1.0  0.26321  0.65549  0.19427  1.0000
  H   H871      1.0  0.00882  0.59076  0.19019  1.0000
  H   H872      1.0  0.04060  0.93884  0.06898  1.0000
  Fe  Fe53      1.0  0.13694  0.93832  0.19782  1.0000
  H   H873      1.0  0.03573  0.63164  0.46084  1.0000
  H   H874      1.0  0.49775  0.55929  0.25593  1.0000
  C   C497      1.0  0.03908  0.79015  0.51963  1.0000
  S   S111      1.0  0.04389  0.89256  0.54642  1.0000
  C   C498      1.0  0.00885  0.92004  0.33765  1.0000
  C   C499      1.0  0.03833  0.83392  0.33437  1.0000
  C   C500      1.0  0.03829  0.86319  0.39493  1.0000
  H   H875      1.0  0.03581  0.78633  0.48486  1.0000
  C   C501      1.0  0.01768  0.68203  0.57928  1.0000
  H   H876      1.0  0.09171  0.44882  0.72243  1.0000
  Fe  Fe54      1.0  0.03025  0.90589  0.48007  1.0000
  H   H877      1.0  0.03901  0.91792  0.65580  1.0000
  C   C502      1.0  0.01794  0.71489  0.50397  1.0000
  C   C503      1.0  0.01760  0.71777  0.25483  1.0000
  H   H878      1.0  0.05035  0.52019  0.56822  1.0000
  C   C504      1.0  0.01561  0.44431  0.65585  1.0000
  H   H879      1.0  0.02464  0.90893  0.32104  1.0000
  H   H880      1.0  0.02956  0.55279  0.64291  1.0000
  C   C505      1.0  0.01076  0.80299  0.36928  1.0000
  H   H881      1.0  0.01202  0.65194  0.48525  1.0000
  C   C506      1.0  0.02444  0.53732  0.61800  1.0000
  H   H882      1.0  0.03343  0.68219  0.28872  1.0000
  C   C507      1.0  0.05054  0.75194  0.24579  1.0000
  H   H883      1.0  0.01522  0.54818  0.59087  1.0000
  C   C508      1.0  0.01109  0.83217  0.43045  1.0000
  H   H884      1.0  0.14931  0.48345  0.72705  1.0000
  C   C509      1.0  0.02340  0.44772  0.55817  1.0000
  H   H885      1.0  0.14725  0.93482  0.53723  1.0000
  H   H886      1.0  0.04358  0.76196  0.27585  1.0000
  H   H887      1.0  0.12567  0.93800  0.49395  1.0000
  H   H888      1.0  0.25214  0.78703  0.70278  1.0000
  C   C510      1.0  0.29672  0.82222  0.71879  1.0000
  H   H889      1.0  0.18281  0.75799  0.71141  1.0000
  H   H890      1.0  0.45428  0.44763  0.46030  1.0000
  H   H891      1.0  0.07071  0.74571  0.25271  1.0000
  C   C511      1.0  0.04835  0.45368  0.62207  1.0000
  C   C512      1.0  0.09084  0.56965  0.72817  1.0000
  H   H892      1.0  0.04815  0.77270  0.53564  1.0000
  H   H893      1.0  0.30343  0.84709  0.72587  1.0000
  H   H894      1.0  0.30705  0.71554  0.72104  1.0000
  H   H895      1.0  0.42245  0.64174  0.41318  1.0000
  H   H896      1.0  0.38249  0.56686  0.72391  1.0000
  H   H897      1.0  0.37905  0.73111  0.68130  1.0000
  H   H898      1.0  0.05342  0.84402  0.49654  1.0000
  C   C513      1.0  0.05214  0.86377  0.34709  1.0000
  H   H899      1.0  0.04923  0.83487  0.29719  1.0000
  C   C514      1.0  0.05228  0.45550  0.57310  1.0000
  H   H900      1.0  0.46786  0.93418  0.68807  1.0000
  H   H901      1.0  0.35571  0.81549  0.71267  1.0000
  C   C515      1.0  0.25526  0.44347  0.66586  1.0000
  H   H902      1.0  0.41148  0.86511  0.71900  1.0000
  H   H903      1.0  0.35043  0.50933  0.71464  1.0000
  H   H904      1.0  0.50179  0.79878  0.60274  1.0000
  H   H905      1.0  0.27622  0.75282  0.55696  1.0000
  H   H906      1.0  0.29637  0.59637  0.71437  1.0000
  S   S112      1.0  0.05666  0.90134  0.40922  1.0000
  H   H907      1.0  0.05918  0.55944  0.26154  1.0000
  H   H908      1.0  0.48366  0.85635  0.71528  1.0000
  S   S113      1.0  0.38372  0.93235  0.25826  1.0000
  H   H909      1.0  0.26138  0.85872  0.69968  1.0000
  Fe  Fe55      1.0  0.19883  0.45663  0.51344  1.0000
  S   S114      1.0  0.13118  0.44529  0.63283  1.0000
  S   S115      1.0  0.38780  0.68389  0.53995  1.0000
  H   H910      1.0  0.23389  0.91477  0.70892  1.0000
  C   C516      1.0  0.06501  0.82828  0.51048  1.0000
  C   C517      1.0  0.05340  0.69362  0.55693  1.0000
  C   C518      1.0  0.05737  0.53686  0.59099  1.0000
  C   C519      1.0  0.05356  0.72629  0.48141  1.0000
  H   H911      1.0  0.06457  0.82998  0.54750  1.0000
  H   H912      1.0  0.02640  0.44941  0.52024  1.0000
  H   H913      1.0  0.24651  0.55082  0.71066  1.0000
  Fe  Fe56      1.0  0.43160  0.66028  0.62874  1.0000
  C   C520      1.0  0.03239  0.93617  0.71747  1.0000
  H   H914      1.0  0.50850  0.80665  0.68172  1.0000
  H   H915      1.0  0.37083  0.47282  0.71500  1.0000
  H   H916      1.0  0.06689  0.68508  0.57756  1.0000
  H   H917      1.0  0.06735  0.74361  0.44370  1.0000
  H   H918      1.0  0.06493  0.52464  0.61933  1.0000
  C   C521      1.0  0.14343  0.92881  0.50375  1.0000
  C   C522      1.0  0.36203  0.73089  0.45124  1.0000
  H   H919      1.0  0.24989  0.46533  0.65664  1.0000
  H   H920      1.0  0.30752  0.92653  0.27742  1.0000
  C   C523      1.0  0.46344  0.82957  0.72187  1.0000
  H   H921      1.0  0.40459  0.44956  0.43885  1.0000
  H   H922      1.0  0.07349  0.88751  0.31941  1.0000
  S   S116      1.0  0.06986  0.64888  0.71670  1.0000
  H   H923      1.0  0.07731  0.83694  0.42081  1.0000
  C   C524      1.0  0.07125  0.71543  0.50776  1.0000
  C   C525      1.0  0.35323  0.45236  0.70376  1.0000
  H   H924      1.0  0.07064  0.46019  0.63367  1.0000
  H   H925      1.0  0.30731  0.77098  0.70551  1.0000
  C   C526      1.0  0.29284  0.45409  0.63587  1.0000
  H   H926      1.0  0.49304  0.92909  0.72498  1.0000
  Fe  Fe57      1.0  0.43637  0.71496  0.25472  1.0000
  C   C527      1.0  0.41570  0.88770  0.39439  1.0000
  H   H927      1.0  0.44240  0.63216  0.27548  1.0000
  H   H928      1.0  0.10468  0.81746  0.72078  1.0000
  C   C528      1.0  0.26172  0.92127  0.25960  1.0000
  H   H929      1.0  0.39512  0.78623  0.69150  1.0000
  H   H930      1.0  0.50078  0.93141  0.56971  1.0000
  H   H931      1.0  0.12572  0.88866  0.65691  1.0000
  H   H932      1.0  0.29572  0.46112  0.59632  1.0000
  H   H933      1.0  0.07622  0.58612  0.53631  1.0000
  H   H934      1.0  0.48074  0.54099  0.51553  1.0000
  H   H935      1.0  0.44963  0.60099  0.34751  1.0000
  C   C529      1.0  0.13528  0.87320  0.63936  1.0000
  S   S117      1.0  0.40062  0.66239  0.25570  1.0000
  C   C530      1.0  0.25524  0.83644  0.68607  1.0000
  H   H936      1.0  0.49938  0.55670  0.71350  1.0000
  H   H937      1.0  0.45154  0.76620  0.70368  1.0000
  H   H938      1.0  0.11751  0.62352  0.68424  1.0000
  H   H939      1.0  0.31463  0.82895  0.68079  1.0000
  S   S118      1.0  0.43383  0.88270  0.23976  1.0000
  Fe  Fe58      1.0  0.39185  0.88479  0.57563  1.0000
  H   H940      1.0  0.41164  0.58305  0.66094  1.0000
  C   C531      1.0  0.46655  0.63694  0.42410  1.0000
  H   H941      1.0  0.44191  0.47605  0.48396  1.0000
  H   H942      1.0  0.09342  0.58903  0.58398  1.0000
  C   C532      1.0  0.08726  0.57385  0.55887  1.0000
  C   C533      1.0  0.26662  0.45093  0.46491  1.0000
  S   S119      1.0  0.43941  0.72013  0.32716  1.0000
  C   C534      1.0  0.44402  0.78379  0.68339  1.0000
  H   H943      1.0  0.16248  0.84468  0.64973  1.0000
  H   H944      1.0  0.27281  0.84534  0.64742  1.0000
  H   H945      1.0  0.34706  0.54289  0.67657  1.0000
  C   C535      1.0  0.09377  0.60244  0.71242  1.0000
  C   C536      1.0  0.36523  0.53290  0.68182  1.0000
  H   H946      1.0  0.25030  0.92945  0.28879  1.0000
  H   H947      1.0  0.40614  0.77352  0.45230  1.0000
  S   S120      1.0  0.09328  0.46974  0.52887  1.0000
  H   H948      1.0  0.09605  0.81006  0.42966  1.0000
  H   H949      1.0  0.20980  0.61503  0.66638  1.0000
  S   S121      1.0  0.45749  0.65214  0.68261  1.0000
  C   C537      1.0  0.43129  0.47066  0.41731  1.0000
  S   S122      1.0  0.33326  0.92939  0.68040  1.0000
  C   C538      1.0  0.32413  0.45815  0.45689  1.0000
  H   H950      1.0  0.10423  0.79566  0.50316  1.0000
  N   N30       1.0  0.10196  0.84245  0.47572  1.0000
  H   H951      1.0  0.09232  0.53479  0.50024  1.0000
  C   C539      1.0  0.10034  0.83647  0.42754  1.0000
  H   H952      1.0  0.10315  0.87764  0.54658  1.0000
  H   H953      1.0  0.31027  0.47954  0.68625  1.0000
  S   S123      1.0  0.21749  0.51893  0.63447  1.0000
  H   H954      1.0  0.13283  0.82520  0.34424  1.0000
  H   H955      1.0  0.09832  0.57500  0.46747  1.0000
  C   C540      1.0  0.11155  0.56278  0.48507  1.0000
  H   H956      1.0  0.11158  0.52469  0.42153  1.0000
  C   C541      1.0  0.43522  0.83882  0.53308  1.0000
  S   S124      1.0  0.11577  0.72967  0.47959  1.0000
  C   C542      1.0  0.31898  0.59083  0.57733  1.0000
  H   H957      1.0  0.10660  0.89318  0.45469  1.0000
  H   H958      1.0  0.21202  0.57941  0.65102  1.0000
  H   H959      1.0  0.45756  0.78309  0.25271  1.0000
  H   H960      1.0  0.11234  0.52641  0.56541  1.0000
  H   H961      1.0  0.27150  0.58441  0.62510  1.0000
  H   H962      1.0  0.11708  0.56376  0.62481  1.0000
  Fe  Fe59      1.0  0.39950  0.64019  0.55293  1.0000
  H   H963      1.0  0.11877  0.50943  0.64616  1.0000
  C   C543      1.0  0.49723  0.69018  0.66404  1.0000
  H   H964      1.0  0.49954  0.64347  0.50108  1.0000
  N   N31       1.0  0.42664  0.45995  0.33463  1.0000
  S   S125      1.0  0.12083  0.73318  0.60702  1.0000
  C   C544      1.0  0.12098  0.88058  0.46831  1.0000
  C   C545      1.0  0.11825  0.82349  0.49886  1.0000
  C   C546      1.0  0.48219  0.46607  0.27249  1.0000
  C   C547      1.0  0.12745  0.89001  0.51410  1.0000
  H   H965      1.0  0.11533  0.82399  0.53707  1.0000
  Fe  Fe60      1.0  0.11649  0.68385  0.64871  1.0000
  S   S126      1.0  0.24042  0.46619  0.44524  1.0000
  S   S127      1.0  0.32098  0.67224  0.66262  1.0000
  N   N32       1.0  0.11981  0.57606  0.52601  1.0000
  H   H966      1.0  0.11925  0.64018  0.49123  1.0000
  H   H967      1.0  0.46387  0.54417  0.65926  1.0000
  C   C548      1.0  0.13097  0.84926  0.33642  1.0000
  C   C549      1.0  0.13161  0.86281  0.37966  1.0000
  H   H968      1.0  0.13015  0.88709  0.36966  1.0000
  H   H969      1.0  0.37317  0.45487  0.29545  1.0000
  C   C550      1.0  0.13157  0.55423  0.55415  1.0000
  C   C551      1.0  0.13871  0.56233  0.60018  1.0000
  C   C552      1.0  0.14357  0.53429  0.63014  1.0000
  S   S128      1.0  0.12678  0.66774  0.58247  1.0000
  H   H970      1.0  0.15358  0.86898  0.30309  1.0000
  H   H971      1.0  0.26508  0.68854  0.68186  1.0000
  C   C553      1.0  0.38262  0.73319  0.71659  1.0000
  H   H972      1.0  0.31646  0.50780  0.63044  1.0000
  H   H973      1.0  0.14593  0.88205  0.52405  1.0000
  C   C554      1.0  0.47474  0.57856  0.30619  1.0000
  C   C555      1.0  0.44788  0.46710  0.36778  1.0000
  H   H974      1.0  0.23353  0.73501  0.23688  1.0000
  H   H975      1.0  0.41664  0.84172  0.42833  1.0000
  H   H976      1.0  0.40570  0.52755  0.63294  1.0000
  H   H977      1.0  0.14715  0.89411  0.43905  1.0000
  H   H978      1.0  0.46132  0.68216  0.39644  1.0000
  Fe  Fe61      1.0  0.13536  0.71912  0.54019  1.0000
  H   H979      1.0  0.49513  0.62656  0.72928  1.0000
  H   H980      1.0  0.15416  0.89003  0.60161  1.0000
  C   C556      1.0  0.45288  0.76227  0.32764  1.0000
  C   C557      1.0  0.48561  0.57496  0.26039  1.0000
  H   H981      1.0  0.47323  0.84168  0.25595  1.0000
  H   H982      1.0  0.40955  0.49711  0.26031  1.0000
  N   N33       1.0  0.35727  0.49398  0.62566  1.0000
  H   H983      1.0  0.24544  0.87760  0.59881  1.0000
  H   H984      1.0  0.15261  0.62293  0.53697  1.0000
  C   C558      1.0  0.14253  0.63878  0.47134  1.0000
  H   H985      1.0  0.10663  0.84415  0.32880  1.0000
  H   H986      1.0  0.26769  0.79541  0.59209  1.0000
  H   H987      1.0  0.48048  0.49394  0.43019  1.0000
  H   H988      1.0  0.11941  0.56672  0.38716  1.0000
  H   H989      1.0  0.13863  0.63119  0.43893  1.0000
  H   H990      1.0  0.15719  0.86934  0.38360  1.0000
  C   C559      1.0  0.14858  0.61304  0.50609  1.0000
  H   H991      1.0  0.35207  0.47271  0.43837  1.0000
  C   C560      1.0  0.15697  0.83595  0.46987  1.0000
  C   C561      1.0  0.29450  0.67557  0.62859  1.0000
  S   S129      1.0  0.37739  0.62419  0.63533  1.0000
  H   H992      1.0  0.19941  0.82747  0.47904  1.0000
  H   H993      1.0  0.16427  0.53091  0.60681  1.0000
  H   H994      1.0  0.15136  0.54170  0.66057  1.0000
  H   H995      1.0  0.43652  0.84049  0.65261  1.0000
  Fe  Fe62      1.0  0.36868  0.66997  0.62202  1.0000
  C   C562      1.0  0.14292  0.56677  0.44391  1.0000
  H   H996      1.0  0.15628  0.55703  0.53025  1.0000
  H   H997      1.0  0.15497  0.55215  0.45910  1.0000
  H   H998      1.0  0.16293  0.58731  0.58903  1.0000
  H   H999      1.0  0.50439  0.56793  0.60710  1.0000
  H   H1000     1.0  0.47633  0.59736  0.68084  1.0000
  C   C563      1.0  0.13110  0.55259  0.40475  1.0000
  H   H1001     1.0  0.15385  0.55553  0.37581  1.0000
  C   C564      1.0  0.24562  0.68439  0.62240  1.0000
  H   H1002     1.0  0.15914  0.82842  0.43624  1.0000
  H   H1003     1.0  0.19769  0.67544  0.43005  1.0000
  H   H1004     1.0  0.16320  0.59418  0.42520  1.0000
  S   S130      1.0  0.20306  0.44227  0.58754  1.0000
  H   H1005     1.0  0.16693  0.79213  0.34990  1.0000
  H   H1006     1.0  0.17540  0.75893  0.37817  1.0000
  S   S131      1.0  0.38103  0.83121  0.60970  1.0000
  C   C565      1.0  0.48335  0.57006  0.63200  1.0000
  H   H1007     1.0  0.36739  0.76341  0.61698  1.0000
  H   H1008     1.0  0.17335  0.86422  0.45931  1.0000
  S   S132      1.0  0.47977  0.86907  0.33543  1.0000
  H   H1009     1.0  0.26339  0.75986  0.63831  1.0000
  C   C566      1.0  0.31939  0.48503  0.64593  1.0000
  S   S133      1.0  0.41291  0.92612  0.60811  1.0000
  H   H1010     1.0  0.44203  0.90414  0.39471  1.0000
  C   C567      1.0  0.17196  0.81894  0.50067  1.0000
  H   H1011     1.0  0.17855  0.68447  0.48278  1.0000
  H   H1012     1.0  0.39456  0.71730  0.72784  1.0000
  H   H1013     1.0  0.17405  0.61503  0.48674  1.0000
  C   C568      1.0  0.17381  0.67511  0.45188  1.0000
  S   S134      1.0  0.47248  0.45958  0.56608  1.0000
  C   C569      1.0  0.28204  0.78273  0.60505  1.0000
  H   H1014     1.0  0.46388  0.83603  0.60459  1.0000
  Fe  Fe63      1.0  0.36591  0.93197  0.60852  1.0000
  H   H1015     1.0  0.17122  0.82618  0.53448  1.0000
  Fe  Fe64      1.0  0.17741  0.75663  0.59702  1.0000
  C   C570      1.0  0.45141  0.47391  0.28195  1.0000
  S   S135      1.0  0.20115  0.80798  0.60780  1.0000
  H   H1016     1.0  0.45822  0.65613  0.35679  1.0000
  Fe  Fe65      1.0  0.18312  0.69571  0.57511  1.0000
  H   H1017     1.0  0.16850  0.69310  0.42796  1.0000
  H   H1018     1.0  0.47035  0.57921  0.60947  1.0000
  S   S136      1.0  0.18833  0.49935  0.52396  1.0000
  H   H1019     1.0  0.45782  0.89637  0.58341  1.0000
  C   C571      1.0  0.38906  0.48073  0.29717  1.0000
  S   S137      1.0  0.19226  0.74586  0.52703  1.0000
  H   H1020     1.0  0.42959  0.49474  0.41019  1.0000
  C   C572      1.0  0.45803  0.59822  0.31208  1.0000
  C   C573      1.0  0.50652  0.65290  0.39749  1.0000
  H   H1021     1.0  0.31375  0.49112  0.40740  1.0000
  C   C574      1.0  0.28310  0.57300  0.60328  1.0000
  H   H1022     1.0  0.17892  0.57207  0.70712  1.0000
  H   H1023     1.0  0.33432  0.61549  0.58012  1.0000
  H   H1024     1.0  0.38091  0.52355  0.30752  1.0000
  H   H1025     1.0  0.11217  0.56535  0.71195  1.0000
  S   S138      1.0  0.34352  0.88835  0.58099  1.0000
  H   H1026     1.0  0.19599  0.78099  0.31249  1.0000
  H   H1027     1.0  0.44057  0.53423  0.46471  1.0000
  H   H1028     1.0  0.34996  0.44226  0.63559  1.0000
  H   H1029     1.0  0.41318  0.49398  0.54962  1.0000
  H   H1030     1.0  0.01074  0.60809  0.55146  1.0000
  H   H1031     1.0  0.15691  0.79051  0.51111  1.0000
  C   C575      1.0  0.18729  0.78422  0.34865  1.0000
  C   C576      1.0  0.36701  0.50104  0.57075  1.0000
  H   H1032     1.0  0.44572  0.77918  0.64746  1.0000
  H   H1033     1.0  0.20789  0.81273  0.39380  1.0000
  S   S139      1.0  0.21950  0.67564  0.54776  1.0000
  C   C577      1.0  0.26230  0.54126  0.59969  1.0000
  C   C578      1.0  0.29787  0.66854  0.58430  1.0000
  H   H1034     1.0  0.22814  0.82581  0.68648  1.0000
  H   H1035     1.0  0.45569  0.44692  0.37595  1.0000
  H   H1036     1.0  0.30276  0.80095  0.61530  1.0000
  H   H1037     1.0  0.31699  0.66114  0.57020  1.0000
  H   H1038     1.0  0.22108  0.60261  0.53104  1.0000
  H   H1039     1.0  0.22623  0.56475  0.54134  1.0000
  C   C579      1.0  0.39201  0.78099  0.58713  1.0000
  C   C580      1.0  0.38106  0.76883  0.44734  1.0000
  Fe  Fe66      1.0  0.13183  0.45901  0.55536  1.0000
  H   H1040     1.0  0.26182  0.50390  0.56418  1.0000
  C   C581      1.0  0.45707  0.76981  0.37004  1.0000
  H   H1041     1.0  0.45313  0.60938  0.42706  1.0000
  H   H1042     1.0  0.47258  0.49210  0.34860  1.0000
  C   C582      1.0  0.21811  0.81083  0.35722  1.0000
  H   H1043     1.0  0.21538  0.85304  0.31361  1.0000
  H   H1044     1.0  0.34399  0.48120  0.34266  1.0000
  C   C583      1.0  0.45952  0.78840  0.28612  1.0000
  C   C584      1.0  0.24891  0.67708  0.57834  1.0000
  C   C585      1.0  0.40437  0.81638  0.57361  1.0000
  C   C586      1.0  0.36571  0.49706  0.30694  1.0000
  H   H1045     1.0  0.24208  0.76475  0.42494  1.0000
  H   H1046     1.0  0.35984  0.52031  0.55460  1.0000
  H   H1047     1.0  0.42359  0.53715  0.54876  1.0000
  H   H1048     1.0  0.22736  0.88672  0.36256  1.0000
  H   H1049     1.0  0.23400  0.92234  0.41919  1.0000
  H   H1050     1.0  0.40805  0.54790  0.47482  1.0000
  C   C587      1.0  0.33466  0.57685  0.54821  1.0000
  H   H1051     1.0  0.24060  0.86267  0.39991  1.0000
  H   H1052     1.0  0.23651  0.80066  0.35861  1.0000
  H   H1053     1.0  0.24725  0.72976  0.45579  1.0000
  H   H1054     1.0  0.45248  0.74983  0.40208  1.0000
  Fe  Fe67      1.0  0.18861  0.48211  0.60010  1.0000
  C   C588      1.0  0.15350  0.85984  0.66877  1.0000
  C   C589      1.0  0.40602  0.51458  0.54098  1.0000
  C   C590      1.0  0.23626  0.84628  0.31569  1.0000
  C   C591      1.0  0.31378  0.54565  0.54289  1.0000
  H   H1055     1.0  0.24991  0.89832  0.45279  1.0000
  H   H1056     1.0  0.19807  0.85602  0.71206  1.0000
  H   H1057     1.0  0.27559  0.54463  0.28348  1.0000
  S   S140      1.0  0.42088  0.70424  0.62426  1.0000
  H   H1058     1.0  0.35433  0.49835  0.27762  1.0000
  H   H1059     1.0  0.23522  0.58801  0.45449  1.0000
  C   C592      1.0  0.45133  0.65536  0.39571  1.0000
  H   H1060     1.0  0.23987  0.81150  0.51168  1.0000
  C   C593      1.0  0.27546  0.66975  0.55894  1.0000
  Fe  Fe68      1.0  0.47680  0.90055  0.27001  1.0000
  H   H1061     1.0  0.42280  0.50592  0.33411  1.0000
  C   C594      1.0  0.24009  0.59305  0.52302  1.0000
  C   C595      1.0  0.46322  0.84387  0.63791  1.0000
  C   C596      1.0  0.50572  0.82637  0.65660  1.0000
  H   H1062     1.0  0.39985  0.90082  0.40101  1.0000
  H   H1063     1.0  0.24534  0.84270  0.27982  1.0000
  C   C597      1.0  0.20643  0.58904  0.68192  1.0000
  H   H1064     1.0  0.30260  0.92277  0.53634  1.0000
  C   C598      1.0  0.25050  0.88410  0.36507  1.0000
  C   C599      1.0  0.26151  0.75676  0.43038  1.0000
  C   C600      1.0  0.39416  0.55945  0.69368  1.0000
  C   C601      1.0  0.38036  0.52648  0.63410  1.0000
  C   C602      1.0  0.28840  0.89878  0.53030  1.0000
  C   C603      1.0  0.25298  0.83585  0.51667  1.0000
  C   C604      1.0  0.25639  0.60218  0.46747  1.0000
  S   S141      1.0  0.45459  0.67404  0.54650  1.0000
  C   C605      1.0  0.40574  0.47875  0.33734  1.0000
  N   N34       1.0  0.26571  0.87524  0.32201  1.0000
  C   C606      1.0  0.25769  0.92070  0.42043  1.0000
  C   C607      1.0  0.40485  0.77091  0.71132  1.0000
  H   H1065     1.0  0.27695  0.75779  0.39432  1.0000
  C   C608      1.0  0.27756  0.52799  0.56831  1.0000
  H   H1066     1.0  0.26850  0.77886  0.48757  1.0000
  C   C609      1.0  0.45346  0.47216  0.44972  1.0000
  H   H1067     1.0  0.43685  0.46379  0.25793  1.0000
  H   H1068     1.0  0.44425  0.86620  0.52141  1.0000
  H   H1069     1.0  0.39529  0.85645  0.47040  1.0000
  H   H1070     1.0  0.27843  0.66452  0.52456  1.0000
  C   C610      1.0  0.27562  0.91710  0.37275  1.0000
  H   H1071     1.0  0.28033  0.84499  0.36959  1.0000
  H   H1072     1.0  0.25323  0.57433  0.39134  1.0000
  H   H1073     1.0  0.39150  0.47238  0.63165  1.0000
  C   C611      1.0  0.28513  0.78052  0.45207  1.0000
  C   C612      1.0  0.23117  0.59062  0.71008  1.0000
  H   H1074     1.0  0.32550  0.53475  0.51993  1.0000
  H   H1075     1.0  0.26820  0.51942  0.34429  1.0000
  C   C613      1.0  0.26687  0.54177  0.32317  1.0000
  Fe  Fe69      1.0  0.44024  0.71639  0.54251  1.0000
  H   H1076     1.0  0.26872  0.54600  0.41024  1.0000
  H   H1077     1.0  0.26624  0.63019  0.45076  1.0000
  H   H1078     1.0  0.27560  0.56559  0.47649  1.0000
  C   C614      1.0  0.27754  0.57246  0.38571  1.0000
  H   H1079     1.0  0.31056  0.75767  0.58115  1.0000
  H   H1080     1.0  0.38323  0.76491  0.27733  1.0000
  H   H1081     1.0  0.23936  0.53653  0.33517  1.0000
  H   H1082     1.0  0.33851  0.72452  0.44108  1.0000
  C   C615      1.0  0.45515  0.82569  0.50887  1.0000
  C   C616      1.0  0.44333  0.79012  0.52407  1.0000
  H   H1083     1.0  0.31237  0.81826  0.50813  1.0000
  C   C617      1.0  0.28483  0.86178  0.48060  1.0000
  H   H1084     1.0  0.26038  0.60503  0.53869  1.0000
  H   H1085     1.0  0.24017  0.90231  0.25153  1.0000
  H   H1086     1.0  0.50052  0.47873  0.29057  1.0000
  H   H1087     1.0  0.11298  0.85143  0.63651  1.0000
  H   H1088     1.0  0.28789  0.82981  0.28847  1.0000
  C   C618      1.0  0.28638  0.59314  0.45449  1.0000
  H   H1089     1.0  0.29846  0.74359  0.48780  1.0000
  H   H1090     1.0  0.36250  0.53529  0.42343  1.0000
  H   H1091     1.0  0.37802  0.57663  0.43166  1.0000
  C   C619      1.0  0.29187  0.86486  0.33249  1.0000
  C   C620      1.0  0.28412  0.90573  0.27510  1.0000
  S   S142      1.0  0.46911  0.77291  0.49866  1.0000
  C   C621      1.0  0.47124  0.82869  0.33111  1.0000
  S   S143      1.0  0.48539  0.56132  0.35417  1.0000
  H   H1092     1.0  0.29439  0.89866  0.24343  1.0000
  H   H1093     1.0  0.29766  0.80727  0.42660  1.0000
  C   C622      1.0  0.41295  0.52590  0.48570  1.0000
  H   H1094     1.0  0.29632  0.85721  0.44819  1.0000
  C   C623      1.0  0.31258  0.77002  0.46009  1.0000
  C   C624      1.0  0.30810  0.85181  0.29404  1.0000
  S   S144      1.0  0.41999  0.92013  0.49756  1.0000
  H   H1095     1.0  0.39576  0.50424  0.47584  1.0000
  H   H1096     1.0  0.29947  0.91648  0.37560  1.0000
  C   C625      1.0  0.46652  0.80313  0.37156  1.0000
  Fe  Fe70      1.0  0.43488  0.93265  0.23642  1.0000
  H   H1097     1.0  0.28846  0.63653  0.36987  1.0000
  C   C626      1.0  0.29044  0.57465  0.33111  1.0000
  H   H1098     1.0  0.48259  0.89303  0.65228  1.0000
  H   H1099     1.0  0.32490  0.76736  0.42500  1.0000
  H   H1100     1.0  0.32390  0.87267  0.25787  1.0000
  H   H1101     1.0  0.38085  0.79463  0.50127  1.0000
  H   H1102     1.0  0.31428  0.88714  0.33433  1.0000
  H   H1103     1.0  0.30617  0.60778  0.46956  1.0000
  C   C627      1.0  0.36123  0.77772  0.48831  1.0000
  N   N35       1.0  0.46903  0.82087  0.67509  1.0000
  H   H1104     1.0  0.25823  0.60713  0.68370  1.0000
  H   H1105     1.0  0.31746  0.57876  0.31859  1.0000
  H   H1106     1.0  0.31736  0.81567  0.34136  1.0000
  H   H1107     1.0  0.34579  0.81923  0.53008  1.0000
  C   C628      1.0  0.30307  0.89277  0.48832  1.0000
  N   N36       1.0  0.30315  0.59931  0.40051  1.0000
  C   C629      1.0  0.49840  0.59560  0.65806  1.0000
  H   H1108     1.0  0.32484  0.77714  0.24435  1.0000
  H   H1109     1.0  0.28990  0.59650  0.30702  1.0000
  H   H1110     1.0  0.35132  0.86001  0.32096  1.0000
  C   C630      1.0  0.32488  0.80263  0.51836  1.0000
  H   H1111     1.0  0.34769  0.83612  0.27903  1.0000
  H   H1112     1.0  0.47968  0.84299  0.47881  1.0000
  H   H1113     1.0  0.35418  0.71382  0.48917  1.0000
  C   C631      1.0  0.41088  0.76798  0.56145  1.0000
  S   S145      1.0  0.17209  0.70822  0.64494  1.0000
  C   C632      1.0  0.33249  0.84018  0.31009  1.0000
  H   H1114     1.0  0.31259  0.54562  0.44888  1.0000
  C   C633      1.0  0.31240  0.63454  0.36880  1.0000
  Fe  Fe71      1.0  0.37322  0.92752  0.50547  1.0000
  H   H1115     1.0  0.32716  0.66335  0.41960  1.0000
  H   H1116     1.0  0.16592  0.80403  0.70038  1.0000
  H   H1117     1.0  0.38735  0.54986  0.60354  1.0000
  S   S146      1.0  0.38027  0.59793  0.52073  1.0000
  H   H1118     1.0  0.34887  0.84283  0.42815  1.0000
  C   C634      1.0  0.33169  0.56033  0.41088  1.0000
  C   C635      1.0  0.36335  0.46477  0.64710  1.0000
  H   H1119     1.0  0.35717  0.78361  0.30162  1.0000
  H   H1120     1.0  0.32198  0.54604  0.38648  1.0000
  C   C636      1.0  0.25900  0.80836  0.71823  1.0000
  H   H1121     1.0  0.38505  0.57383  0.37025  1.0000
  H   H1122     1.0  0.36413  0.72093  0.35407  1.0000
  C   C637      1.0  0.45393  0.61578  0.27132  1.0000
  H   H1123     1.0  0.34463  0.75372  0.52068  1.0000
  H   H1124     1.0  0.38472  0.46736  0.37368  1.0000
  H   H1125     1.0  0.46922  0.80887  0.40463  1.0000
  H   H1126     1.0  0.22517  0.68987  0.63789  1.0000
  C   C638      1.0  0.33635  0.59703  0.39336  1.0000
  C   C639      1.0  0.36304  0.82787  0.43176  1.0000
  H   H1127     1.0  0.40403  0.80827  0.27693  1.0000
  H   H1128     1.0  0.46021  0.63850  0.46177  1.0000
  H   H1129     1.0  0.48188  0.59524  0.47322  1.0000
  H   H1130     1.0  0.49719  0.70842  0.59130  1.0000
  C   C640      1.0  0.29794  0.77130  0.56514  1.0000
  H   H1131     1.0  0.32556  0.63890  0.32937  1.0000
  C   C641      1.0  0.33758  0.66517  0.38073  1.0000
  H   H1132     1.0  0.37995  0.72531  0.42610  1.0000
  H   H1133     1.0  0.36878  0.82313  0.39605  1.0000
  C   C642      1.0  0.38097  0.78864  0.27250  1.0000
  C   C643      1.0  0.12869  0.83765  0.72288  1.0000
  C   C644      1.0  0.39850  0.85247  0.43424  1.0000
  H   H1134     1.0  0.46334  0.50245  0.26757  1.0000
  N   N37       1.0  0.34040  0.79447  0.47461  1.0000
  H   H1135     1.0  0.41859  0.88478  0.35748  1.0000
  C   C645      1.0  0.34401  0.69930  0.34762  1.0000
  H   H1136     1.0  0.35194  0.61220  0.41292  1.0000
  C   C646      1.0  0.26830  0.68356  0.64745  1.0000
  H   H1137     1.0  0.31964  0.70116  0.35572  1.0000
  C   C647      1.0  0.30258  0.46874  0.43965  1.0000
  S   S147      1.0  0.34643  0.92121  0.45058  1.0000
  H   H1138     1.0  0.36327  0.66606  0.37404  1.0000
  H   H1139     1.0  0.17681  0.88274  0.66724  1.0000
  H   H1140     1.0  0.35372  0.60921  0.35394  1.0000
  H   H1141     1.0  0.35214  0.47733  0.56248  1.0000
  C   C648      1.0  0.36648  0.56170  0.40889  1.0000
  C   C649      1.0  0.25617  0.87315  0.56574  1.0000
  C   C650      1.0  0.46856  0.82163  0.28790  1.0000
  H   H1142     1.0  0.39981  0.74062  0.57077  1.0000
  H   H1143     1.0  0.35387  0.70181  0.30819  1.0000
  C   C651      1.0  0.23898  0.84121  0.55976  1.0000
  H   H1144     1.0  0.38793  0.78548  0.40954  1.0000
  C   C652      1.0  0.00931  0.62734  0.48051  1.0000
  H   H1145     1.0  0.32572  0.44511  0.72309  1.0000
  H   H1146     1.0  0.01296  0.44377  0.69320  1.0000
  H   H1147     1.0  0.36071  0.87079  0.71186  1.0000
  H   H1148     1.0  0.02132  0.83581  0.23573  1.0000
  C   C653      1.0  0.48548  0.90326  0.57702  1.0000
  C   C654      1.0  0.48871  0.88317  0.62185  1.0000
  H   H1149     1.0  0.49576  0.89748  0.54390  1.0000
  H   H1150     1.0  0.13546  0.85436  0.23505  1.0000
  H   H1151     1.0  0.40994  0.54840  0.70595  1.0000
  H   H1152     1.0  0.11864  0.79337  0.23816  1.0000
  H   H1153     1.0  0.28294  0.72276  0.23221  1.0000
  H   H1154     1.0  0.01034  0.69568  0.33155  1.0000
  C   C655      1.0  0.01183  0.68841  0.29771  1.0000
  H   H1155     1.0  0.62881  0.16707  0.77681  1.0000
  H   H1156     1.0  0.82036  0.28890  0.82351  1.0000
  H   H1157     1.0  0.69383  0.18716  0.84748  1.0000
  C   C656      1.0  0.78122  0.23645  0.84383  1.0000
  H   H1158     1.0  0.99970  0.13944  0.14437  1.0000
  H   H1159     1.0  0.99442  0.02828  0.05745  1.0000
  C   C657      1.0  0.75845  0.32414  0.90065  1.0000
  C   C658      1.0  0.97615  0.07234  0.84388  1.0000
  H   H1160     1.0  0.74651  0.13382  0.17721  1.0000
  H   H1161     1.0  0.85201  0.12382  0.07197  1.0000
  H   H1162     1.0  0.76929  0.24092  0.81609  1.0000
  N   N38       1.0  0.77491  0.14111  0.02734  1.0000
  S   S148      1.0  0.74294  0.43231  0.11797  1.0000
  H   H1163     1.0  0.98807  0.12894  0.90690  1.0000
  C   C659      1.0  0.66735  0.13682  0.78542  1.0000
  C   C660      1.0  0.63386  0.16553  0.81209  1.0000
  H   H1164     1.0  0.60744  0.25618  0.18405  1.0000
  H   H1165     1.0  0.81808  0.06416  0.09447  1.0000
  H   H1166     1.0  0.80484  0.08504  0.85926  1.0000
  Fe  Fe72      1.0  0.90522  0.20496  0.86187  1.0000
  C   C661      1.0  0.96641  0.36460  0.04010  1.0000
  H   H1167     1.0  0.93790  0.12264  0.19034  1.0000
  N   N39       1.0  0.94973  0.30154  0.08402  1.0000
  C   C662      1.0  0.84155  0.01809  0.86176  1.0000
  C   C663      1.0  0.57957  0.17430  0.14579  1.0000
  H   H1168     1.0  0.84615  0.02201  0.04376  1.0000
  H   H1169     1.0  0.75026  0.25903  0.90952  1.0000
  C   C664      1.0  0.97562  0.29954  0.99698  1.0000
  H   H1170     1.0  0.00472  0.05682  0.99826  1.0000
  Fe  Fe73      1.0  0.93814  0.22735  0.75151  1.0000
  H   H1171     1.0  0.87099  0.37545  0.22418  1.0000
  C   C665      1.0  0.75910  0.12144  0.90955  1.0000
  H   H1172     1.0  0.52290  0.95498  0.81856  1.0000
  C   C666      1.0  0.61137  0.96299  0.76391  1.0000
  H   H1173     1.0  0.65606  0.10570  0.02304  1.0000
  C   C667      1.0  0.67024  0.30766  0.78300  1.0000
  H   H1174     1.0  0.91732  0.34727  0.76510  1.0000
  N   N40       1.0  0.73590  0.04935  0.76100  1.0000
  C   C668      1.0  0.84793  0.37794  0.75686  1.0000
  S   S149      1.0  0.73285  0.01882  0.95883  1.0000
  C   C669      1.0  0.93976  0.97654  0.93513  1.0000
  H   H1175     1.0  0.89251  0.04413  0.13954  1.0000
  C   C670      1.0  0.95577  0.19172  0.17406  1.0000
  S   S150      1.0  0.90041  0.41463  0.82123  1.0000
  C   C671      1.0  0.90459  0.31752  0.92999  1.0000
  C   C672      1.0  0.60472  0.98853  0.74101  1.0000
  S   S151      1.0  0.51738  0.13721  0.22379  1.0000
  C   C673      1.0  0.52472  0.39294  0.78668  1.0000
  H   H1176     1.0  0.66465  0.11888  0.87424  1.0000
  H   H1177     1.0  0.58457  0.10048  0.86939  1.0000
  C   C674      1.0  0.70464  0.16763  0.76850  1.0000
  H   H1178     1.0  0.85572  0.40336  0.76214  1.0000
  C   C675      1.0  0.61753  0.01844  0.05988  1.0000
  H   H1179     1.0  0.67441  0.42398  0.78006  1.0000
  H   H1180     1.0  0.83218  0.40742  0.97891  1.0000
  C   C676      1.0  0.87154  0.07438  0.99537  1.0000
  C   C677      1.0  0.67823  0.43349  0.81127  1.0000
  H   H1181     1.0  0.94719  0.98201  0.96699  1.0000
  C   C678      1.0  0.65519  0.37135  0.86295  1.0000
  H   H1182     1.0  0.63052  0.25998  0.92409  1.0000
  S   S152      1.0  0.64930  0.96398  0.99243  1.0000
  S   S153      1.0  0.70016  0.94027  0.03607  1.0000
  H   H1183     1.0  0.98616  0.31329  0.20322  1.0000
  C   C679      1.0  0.90155  0.96706  0.94455  1.0000
  C   C680      1.0  0.65947  0.42196  0.20909  1.0000
  H   H1184     1.0  0.89624  0.96339  0.91080  1.0000
  H   H1185     1.0  0.80415  0.32743  0.78592  1.0000
  H   H1186     1.0  0.57358  0.31413  0.95483  1.0000
  S   S154      1.0  0.88739  0.97237  0.12490  1.0000
  H   H1187     1.0  0.87928  0.42560  0.00371  1.0000
  H   H1188     1.0  0.90152  0.01786  0.76811  1.0000
  H   H1189     1.0  0.70141  0.15158  0.91593  1.0000
  H   H1190     1.0  0.61954  0.30263  0.78975  1.0000
  C   C681      1.0  0.96349  0.28135  0.16108  1.0000
  H   H1191     1.0  0.52829  0.25432  0.18026  1.0000
  H   H1192     1.0  0.54878  0.40606  0.79312  1.0000
  C   C682      1.0  0.82404  0.42739  0.97268  1.0000
  H   H1193     1.0  0.77492  0.28180  0.96360  1.0000
  S   S155      1.0  0.86257  0.15366  0.86782  1.0000
  N   N41       1.0  0.53312  0.30406  0.02149  1.0000
  C   C683      1.0  0.55083  0.02475  0.00560  1.0000
  S   S156      1.0  0.91079  0.10497  0.81105  1.0000
  H   H1194     1.0  0.55592  0.32406  0.13660  1.0000
  H   H1195     1.0  0.52554  0.05117  0.97761  1.0000
  H   H1196     1.0  0.76090  0.21451  0.87711  1.0000
  H   H1197     1.0  0.95852  0.19702  0.98043  1.0000
  H   H1198     1.0  0.92791  0.24596  0.11153  1.0000
  H   H1199     1.0  0.60830  0.14915  0.97053  1.0000
  H   H1200     1.0  0.58248  0.16983  0.96377  1.0000
  H   H1201     1.0  0.98969  0.20810  0.21525  1.0000
  H   H1202     1.0  0.75846  0.98905  0.22853  1.0000
  C   C684      1.0  0.86943  0.43212  0.03640  1.0000
  H   H1203     1.0  0.83380  0.13444  0.73980  1.0000
  Fe  Fe74      1.0  0.54481  0.25949  0.84635  1.0000
  C   C685      1.0  0.98181  0.22112  0.08601  1.0000
  H   H1204     1.0  0.71153  0.27432  0.94607  1.0000
  C   C686      1.0  0.90394  0.96024  0.75769  1.0000
  H   H1205     1.0  0.94430  0.10425  0.09989  1.0000
  H   H1206     1.0  0.67077  0.11374  0.79506  1.0000
  C   C687      1.0  0.60622  0.06840  0.85199  1.0000
  H   H1207     1.0  0.73339  0.29733  0.98162  1.0000
  S   S157      1.0  0.89908  0.17819  0.74904  1.0000
  H   H1208     1.0  0.63947  0.00296  0.90928  1.0000
  H   H1209     1.0  0.78828  0.40065  0.93846  1.0000
  C   C688      1.0  0.90882  0.25769  0.92830  1.0000
  H   H1210     1.0  0.71566  0.16608  0.79815  1.0000
  H   H1211     1.0  0.98658  0.09683  0.14291  1.0000
  H   H1212     1.0  0.69598  0.01063  0.20903  1.0000
  C   C689      1.0  0.91962  0.26540  0.10072  1.0000
  C   C690      1.0  0.84882  0.40683  0.20048  1.0000
  H   H1213     1.0  0.72811  0.12366  0.97485  1.0000
  H   H1214     1.0  0.57957  0.97119  0.01518  1.0000
  H   H1215     1.0  0.98423  0.05403  0.83612  1.0000
  C   C691      1.0  0.54666  0.33793  0.03113  1.0000
  C   C692      1.0  0.53340  0.24573  0.04588  1.0000
  Fe  Fe75      1.0  0.90573  0.15171  0.81464  1.0000
  C   C693      1.0  0.99073  0.29582  0.18466  1.0000
  H   H1216     1.0  0.99731  0.07528  0.22098  1.0000
  H   H1217     1.0  0.57217  0.15109  0.13609  1.0000
  H   H1218     1.0  0.52198  0.34305  0.80665  1.0000
  C   C694      1.0  0.61900  0.19072  0.99883  1.0000
  H   H1219     1.0  0.78359  0.29767  0.17870  1.0000
  C   C695      1.0  0.95279  0.19664  0.12750  1.0000
  H   H1220     1.0  0.90294  0.99963  0.98882  1.0000
  C   C696      1.0  0.58689  0.35930  0.01572  1.0000
  C   C697      1.0  0.73058  0.01045  0.14515  1.0000
  H   H1221     1.0  0.00638  0.36730  0.76051  1.0000
  Fe  Fe76      1.0  0.68206  0.01666  0.99392  1.0000
  H   H1222     1.0  0.79840  0.27320  0.14730  1.0000
  H   H1223     1.0  0.56024  0.03817  0.83605  1.0000
  H   H1224     1.0  0.69305  0.31959  0.92456  1.0000
  H   H1225     1.0  0.51653  0.33140  0.93907  1.0000
  H   H1226     1.0  0.84019  0.98551  0.18505  1.0000
  H   H1227     1.0  0.75426  0.18917  0.18395  1.0000
  H   H1228     1.0  0.98784  0.28533  0.06116  1.0000
  H   H1229     1.0  0.72243  0.25828  0.18634  1.0000
  S   S158      1.0  0.89785  0.23519  0.79987  1.0000
  H   H1230     1.0  0.73518  0.07087  0.08322  1.0000
  H   H1231     1.0  0.67389  0.40818  0.21758  1.0000
  C   C698      1.0  0.69634  0.95746  0.74748  1.0000
  H   H1232     1.0  0.87729  0.38859  0.10775  1.0000
  H   H1233     1.0  0.83249  0.24414  0.16007  1.0000
  C   C699      1.0  0.72294  0.13574  0.19421  1.0000
  C   C700      1.0  0.79755  0.13334  0.05268  1.0000
  C   C701      1.0  0.60588  0.10306  0.83823  1.0000
  H   H1234     1.0  0.81333  0.96903  0.94392  1.0000
  C   C702      1.0  0.75894  0.04518  0.78877  1.0000
  C   C703      1.0  0.00708  0.40161  0.89845  1.0000
  H   H1235     1.0  0.61158  0.09167  0.10354  1.0000
  H   H1236     1.0  0.54180  0.07820  0.12650  1.0000
  C   C704      1.0  0.77786  0.28083  0.15569  1.0000
  H   H1237     1.0  0.63203  0.21729  0.84822  1.0000
  H   H1238     1.0  0.70989  0.07531  0.04657  1.0000
  H   H1239     1.0  0.69423  0.06918  0.15619  1.0000
  C   C705      1.0  0.79644  0.30592  0.93416  1.0000
  H   H1240     1.0  0.98119  0.37812  0.91147  1.0000
  H   H1241     1.0  0.71411  0.07353  0.80434  1.0000
  H   H1242     1.0  0.91238  0.02013  0.92614  1.0000
  H   H1243     1.0  0.85385  0.16208  0.08409  1.0000
  H   H1244     1.0  0.69838  0.18800  0.92822  1.0000
  C   C706      1.0  0.92969  0.33375  0.74738  1.0000
  H   H1245     1.0  0.78953  0.96918  0.02464  1.0000
  S   S159      1.0  0.57803  0.26871  0.89355  1.0000
  H   H1246     1.0  0.74846  0.32568  0.86969  1.0000
  C   C707      1.0  0.98811  0.04700  0.03760  1.0000
  H   H1247     1.0  0.99779  0.18430  0.01807  1.0000
  C   C708      1.0  0.96122  0.31019  0.12601  1.0000
  C   C709      1.0  0.50963  0.35740  0.79443  1.0000
  S   S160      1.0  0.55931  0.02632  0.17727  1.0000
  H   H1248     1.0  0.57066  0.01329  0.87858  1.0000
  C   C710      1.0  0.56969  0.03770  0.86751  1.0000
  H   H1249     1.0  0.56888  0.07555  0.04217  1.0000
  H   H1250     1.0  0.93499  0.28322  0.84995  1.0000
  S   S161      1.0  0.62360  0.02931  0.74796  1.0000
  H   H1251     1.0  0.53438  0.93981  0.04149  1.0000
  Fe  Fe77      1.0  0.92026  0.97808  0.17209  1.0000
  H   H1252     1.0  0.57713  0.12547  0.06267  1.0000
  H   H1253     1.0  0.81605  0.19858  0.05813  1.0000
  S   S162      1.0  0.91049  0.21975  0.92852  1.0000
  C   C711      1.0  0.60695  0.20046  0.84496  1.0000
  H   H1254     1.0  0.70463  0.43779  0.81022  1.0000
  C   C712      1.0  0.55535  0.08040  0.01694  1.0000
  H   H1255     1.0  0.85875  0.98138  0.85575  1.0000
  H   H1256     1.0  0.62607  0.11773  0.90728  1.0000
  H   H1257     1.0  0.55081  0.14494  0.05717  1.0000
  H   H1258     1.0  0.94532  0.96578  0.07039  1.0000
  S   S163      1.0  0.94056  0.02201  0.20045  1.0000
  S   S164      1.0  0.91306  0.17300  0.12012  1.0000
  H   H1259     1.0  0.58588  0.30470  0.18623  1.0000
  C   C713      1.0  0.54379  0.33672  0.93107  1.0000
  H   H1260     1.0  0.87842  0.29180  0.00827  1.0000
  S   S165      1.0  0.72662  0.39762  0.75280  1.0000
  C   C714      1.0  0.76489  0.02607  0.11227  1.0000
  C   C715      1.0  0.98915  0.09111  0.87347  1.0000
  H   H1261     1.0  0.94394  0.31746  0.14923  1.0000
  H   H1262     1.0  0.51211  0.15203  0.92607  1.0000
  H   H1263     1.0  0.55351  0.01489  0.04106  1.0000
  C   C716      1.0  0.97826  0.11658  0.14227  1.0000
  H   H1264     1.0  0.57805  0.14934  0.84345  1.0000
  H   H1265     1.0  0.62277  0.06660  0.81965  1.0000
  H   H1266     1.0  0.88748  0.01627  0.86953  1.0000
  S   S166      1.0  0.66016  0.34046  0.15147  1.0000
  H   H1267     1.0  0.54080  0.22386  0.11234  1.0000
  H   H1268     1.0  0.95391  0.94542  0.78459  1.0000
  H   H1269     1.0  0.83572  0.35121  0.12439  1.0000
  H   H1270     1.0  0.77067  0.10204  0.99318  1.0000
  H   H1271     1.0  0.86135  0.27594  0.10049  1.0000
  H   H1272     1.0  0.57719  0.04051  0.97652  1.0000
  H   H1273     1.0  0.77847  0.29588  0.12068  1.0000
  H   H1274     1.0  0.80489  0.24629  0.06062  1.0000
  H   H1275     1.0  0.92688  0.31865  0.03505  1.0000
  S   S167      1.0  0.55083  0.29427  0.77484  1.0000
  H   H1276     1.0  0.81888  0.43131  0.18360  1.0000
  H   H1277     1.0  0.86894  0.37109  0.75641  1.0000
  C   C717      1.0  0.70507  0.05006  0.79331  1.0000
  H   H1278     1.0  0.92461  0.07923  0.19065  1.0000
  H   H1279     1.0  0.67012  0.95449  0.75197  1.0000
  H   H1280     1.0  0.61612  0.06568  0.88271  1.0000
  H   H1281     1.0  0.74934  0.09328  0.92400  1.0000
  H   H1282     1.0  0.57548  0.29565  0.03193  1.0000
  H   H1283     1.0  0.80937  0.26277  0.88538  1.0000
  C   C718      1.0  0.97776  0.11417  0.88442  1.0000
  C   C719      1.0  0.68627  0.06571  0.12397  1.0000
  C   C720      1.0  0.77771  0.12980  0.98265  1.0000
  C   C721      1.0  0.55395  0.32749  0.17202  1.0000
  H   H1284     1.0  0.96399  0.14747  0.09746  1.0000
  H   H1285     1.0  0.80894  0.99397  0.16611  1.0000
  H   H1286     1.0  0.59632  0.34677  0.04080  1.0000
  H   H1287     1.0  0.97191  0.41432  0.00409  1.0000
  H   H1288     1.0  0.96020  0.03341  0.04133  1.0000
  H   H1289     1.0  0.51461  0.12484  0.75720  1.0000
  H   H1290     1.0  0.81048  0.19374  0.97786  1.0000
  Fe  Fe78      1.0  0.70000  0.96464  0.96244  1.0000
  C   C722      1.0  0.70109  0.31514  0.95688  1.0000
  H   H1291     1.0  0.79326  0.13778  0.08881  1.0000
  H   H1292     1.0  0.71010  0.98933  0.14050  1.0000
  H   H1293     1.0  0.58510  0.39361  0.05736  1.0000
  C   C723      1.0  0.57103  0.31659  0.20015  1.0000
  C   C724      1.0  0.92196  0.97088  0.79523  1.0000
  S   S168      1.0  0.94545  0.39728  0.14411  1.0000
  H   H1294     1.0  0.66921  0.07733  0.12065  1.0000
  H   H1295     1.0  0.84619  0.97198  0.04831  1.0000
  H   H1296     1.0  0.82252  0.07713  0.80456  1.0000
  C   C725      1.0  0.89101  0.29011  0.97375  1.0000
  N   N42       1.0  0.63975  0.13519  0.82780  1.0000
  C   C726      1.0  0.84729  0.37582  0.22352  1.0000
  H   H1297     1.0  0.76883  0.38882  0.00447  1.0000
  H   H1298     1.0  0.59047  0.10081  0.19727  1.0000
  H   H1299     1.0  0.80121  0.22941  0.82785  1.0000
  H   H1300     1.0  0.93587  0.13765  0.03570  1.0000
  C   C727      1.0  0.64151  0.27296  0.88466  1.0000
  H   H1301     1.0  0.56001  0.36265  0.93240  1.0000
  H   H1302     1.0  0.89005  0.06571  0.73443  1.0000
  H   H1303     1.0  0.63530  0.35004  0.89723  1.0000
  H   H1304     1.0  0.89192  0.33617  0.22807  1.0000
  H   H1305     1.0  0.93137  0.16550  0.95839  1.0000
  H   H1306     1.0  0.97071  0.26562  0.14160  1.0000
  H   H1307     1.0  0.74124  0.98542  0.76470  1.0000
  H   H1308     1.0  0.95293  0.12663  0.98411  1.0000
  S   S169      1.0  0.67176  0.06128  0.97503  1.0000
  H   H1309     1.0  0.65196  0.36244  0.83114  1.0000
  C   C728      1.0  0.84092  0.39774  0.07747  1.0000
  H   H1310     1.0  0.81857  0.24856  0.99709  1.0000
  C   C729      1.0  0.95770  0.14754  0.00026  1.0000
  H   H1311     1.0  0.78910  0.34478  0.96388  1.0000
  H   H1312     1.0  0.59734  0.10493  0.80576  1.0000
  C   C730      1.0  0.63518  0.29688  0.80901  1.0000
  H   H1313     1.0  0.94355  0.99788  0.78029  1.0000
  H   H1314     1.0  0.81999  0.38306  0.06442  1.0000
  H   H1315     1.0  0.67091  0.03766  0.13100  1.0000
  H   H1316     1.0  0.71118  0.13969  0.16608  1.0000
  Fe  Fe79      1.0  0.71125  0.37471  0.15740  1.0000
  C   C731      1.0  0.69081  0.30062  0.80762  1.0000
  S   S170      1.0  0.73565  0.31754  0.77633  1.0000
  H   H1317     1.0  0.57594  0.98398  0.12787  1.0000
  S   S171      1.0  0.94847  0.20065  0.81333  1.0000
  C   C732      1.0  0.85962  0.99816  0.87860  1.0000
  H   H1318     1.0  0.63142  0.20177  0.09066  1.0000
  C   C733      1.0  0.92249  0.28509  0.88437  1.0000
  H   H1319     1.0  0.62392  0.39607  0.85827  1.0000
  C   C734      1.0  0.94074  0.09990  0.83563  1.0000
  H   H1320     1.0  0.53513  0.33328  0.07120  1.0000
  H   H1321     1.0  0.93765  0.26376  0.19075  1.0000
  C   C735      1.0  0.98751  0.21182  0.17917  1.0000
  C   C736      1.0  0.73297  0.16565  0.21443  1.0000
  C   C737      1.0  0.81801  0.40735  0.20051  1.0000
  H   H1322     1.0  0.88325  0.23940  0.00704  1.0000
  C   C738      1.0  0.81352  0.35049  0.79749  1.0000
  H   H1323     1.0  0.83376  0.35712  0.93169  1.0000
  C   C739      1.0  0.68079  0.01825  0.84044  1.0000
  H   H1324     1.0  0.63920  0.21023  0.96322  1.0000
  C   C740      1.0  0.99344  0.16085  0.00784  1.0000
  H   H1325     1.0  0.70503  0.19272  0.75757  1.0000
  C   C741      1.0  0.59038  0.03678  0.12059  1.0000
  H   H1326     1.0  0.72124  0.13156  0.05003  1.0000
  C   C742      1.0  0.85555  0.25170  0.12756  1.0000
  Fe  Fe80      1.0  0.98975  0.01845  0.18266  1.0000
  H   H1327     1.0  0.53560  0.00231  0.99538  1.0000
  H   H1328     1.0  0.59899  0.15208  0.88810  1.0000
  H   H1329     1.0  0.82860  0.40231  0.11025  1.0000
  H   H1330     1.0  0.86712  0.36770  0.06279  1.0000
  S   S172      1.0  0.97418  0.41261  0.79657  1.0000
  H   H1331     1.0  0.70108  0.97682  0.80681  1.0000
  C   C743      1.0  0.63979  0.05263  0.02973  1.0000
  C   C744      1.0  0.65359  0.02401  0.87325  1.0000
  C   C745      1.0  0.79844  0.06821  0.83641  1.0000
  H   H1332     1.0  0.91648  0.32481  0.09266  1.0000
  C   C746      1.0  0.61302  0.07129  0.09092  1.0000
  H   H1333     1.0  0.62654  0.40973  0.00935  1.0000
  C   C747      1.0  0.85635  0.37498  0.09384  1.0000
  C   C748      1.0  0.89419  0.99560  0.95724  1.0000
  H   H1334     1.0  0.78953  0.04138  0.85908  1.0000
  C   C749      1.0  0.83579  0.96226  0.02058  1.0000
  H   H1335     1.0  0.69171  0.27640  0.87712  1.0000
  H   H1336     1.0  0.60890  0.25334  0.73480  1.0000
  C   C750      1.0  0.54982  0.22770  0.07231  1.0000
  C   C751      1.0  0.62105  0.28024  0.86003  1.0000
  H   H1337     1.0  0.60623  0.21239  0.80907  1.0000
  C   C752      1.0  0.78610  0.37664  0.22083  1.0000
  H   H1338     1.0  0.90256  0.96958  0.82748  1.0000
  S   S173      1.0  0.53740  0.21496  0.81933  1.0000
  H   H1339     1.0  0.00708  0.26191  0.75180  1.0000
  H   H1340     1.0  0.53299  0.07488  0.77255  1.0000
  C   C753      1.0  0.83722  0.15307  0.02242  1.0000
  H   H1341     1.0  0.54162  0.12010  0.95780  1.0000
  C   C754      1.0  0.79580  0.94873  0.03779  1.0000
  C   C755      1.0  0.78625  0.17916  0.01128  1.0000
  H   H1342     1.0  0.60032  0.36203  0.97739  1.0000
  Fe  Fe81      1.0  0.96119  0.38858  0.21019  1.0000
  C   C756      1.0  0.81800  0.34238  0.84818  1.0000
  H   H1343     1.0  0.63225  0.18244  0.02177  1.0000
  H   H1344     1.0  0.87488  0.04205  0.93089  1.0000
  C   C757      1.0  0.56063  0.94422  0.02125  1.0000
  H   H1345     1.0  0.67733  0.29680  0.98973  1.0000
  C   C758      1.0  0.84100  0.97477  0.93363  1.0000
  C   C759      1.0  0.98047  0.30446  0.04565  1.0000
  H   H1346     1.0  0.91126  0.25981  0.06957  1.0000
  H   H1347     1.0  0.88470  0.08058  0.13635  1.0000
  Fe  Fe82      1.0  0.67871  0.30165  0.15014  1.0000
  H   H1348     1.0  0.87814  0.95894  0.77057  1.0000
  H   H1349     1.0  0.83045  0.01936  0.96951  1.0000
  H   H1350     1.0  0.80415  0.08615  0.16233  1.0000
  H   H1351     1.0  0.94182  0.06193  0.80242  1.0000
  H   H1352     1.0  0.82192  0.34406  0.02010  1.0000
  C   C760      1.0  0.61307  0.20289  0.12015  1.0000
  H   H1353     1.0  0.89289  0.09164  0.95945  1.0000
  H   H1354     1.0  0.65895  0.13648  0.75285  1.0000
  H   H1355     1.0  0.97709  0.37395  0.06768  1.0000
  C   C761      1.0  0.53338  0.34157  0.19071  1.0000
  N   N43       1.0  0.99642  0.13548  0.04584  1.0000
  H   H1356     1.0  0.76974  0.35086  0.90200  1.0000
  H   H1357     1.0  0.57878  0.24298  0.05667  1.0000
  Fe  Fe83      1.0  0.93431  0.43584  0.17105  1.0000
  C   C762      1.0  0.72268  0.02234  0.18413  1.0000
  H   H1358     1.0  0.76999  0.18222  0.08612  1.0000
  Fe  Fe84      1.0  0.92990  0.40003  0.86389  1.0000
  H   H1359     1.0  0.81356  0.00030  0.87011  1.0000
  C   C763      1.0  0.94667  0.10321  0.18907  1.0000
  Fe  Fe85      1.0  0.94685  0.43133  0.75416  1.0000
  C   C764      1.0  0.55643  0.17502  0.18586  1.0000
  H   H1360     1.0  0.68134  0.32160  0.74384  1.0000
  Fe  Fe86      1.0  0.86712  0.15257  0.18960  1.0000
  C   C765      1.0  0.56390  0.13229  0.03825  1.0000
  H   H1361     1.0  0.84362  0.03786  0.87951  1.0000
  H   H1362     1.0  0.93123  0.33642  0.85142  1.0000
  H   H1363     1.0  0.00408  0.29838  0.92814  1.0000
  H   H1364     1.0  0.65201  0.40991  0.89252  1.0000
  H   H1365     1.0  0.68811  0.05229  0.77248  1.0000
  C   C766      1.0  0.88917  0.94158  0.09822  1.0000
  H   H1366     1.0  0.53785  0.35481  0.01263  1.0000
  S   S174      1.0  0.90051  0.35394  0.93271  1.0000
  S   S175      1.0  0.81923  0.15716  0.19103  1.0000
  C   C767      1.0  0.67095  0.16818  0.88062  1.0000
  C   C768      1.0  0.63769  0.07923  0.04513  1.0000
  C   C769      1.0  0.71620  0.98504  0.76749  1.0000
  H   H1367     1.0  0.77295  0.23244  0.03146  1.0000
  C   C770      1.0  0.67607  0.28229  0.85820  1.0000
  H   H1368     1.0  0.76274  0.37698  0.21884  1.0000
  H   H1369     1.0  0.74635  0.01900  0.81609  1.0000
  H   H1370     1.0  0.65775  0.19032  0.80316  1.0000
  C   C771      1.0  0.79239  0.19675  0.05081  1.0000
  H   H1371     1.0  0.85394  0.03140  0.82131  1.0000
  C   C772      1.0  0.74921  0.04970  0.19030  1.0000
  N   N44       1.0  0.85685  0.98863  0.96956  1.0000
  H   H1372     1.0  0.52729  0.15900  0.00095  1.0000
  H   H1373     1.0  0.66598  0.41589  0.13713  1.0000
  S   S176      1.0  0.70926  0.95024  0.89494  1.0000
  H   H1374     1.0  0.57635  0.09588  0.98041  1.0000
  H   H1375     1.0  0.68146  0.37709  0.86406  1.0000
  H   H1376     1.0  0.55098  0.03797  0.89914  1.0000
  C   C773      1.0  0.68385  0.16289  0.92327  1.0000
  H   H1377     1.0  0.87893  0.23228  0.17265  1.0000
  S   S177      1.0  0.73205  0.33829  0.14716  1.0000
  C   C774      1.0  0.59265  0.01051  0.10488  1.0000
  C   C775      1.0  0.85855  0.15085  0.05483  1.0000
  C   C776      1.0  0.99536  0.07634  0.05895  1.0000
  H   H1378     1.0  0.94376  0.95472  0.92955  1.0000
  C   C777      1.0  0.88667  0.25668  0.14386  1.0000
  H   H1379     1.0  0.59034  0.40990  0.99332  1.0000
  C   C778      1.0  0.87259  0.05268  0.14101  1.0000
  C   C779      1.0  0.93509  0.94662  0.81488  1.0000
  H   H1380     1.0  0.74333  0.12596  0.88802  1.0000
  H   H1381     1.0  0.63435  0.02363  0.85561  1.0000
  Fe  Fe87      1.0  0.53968  0.24821  0.75008  1.0000
  H   H1382     1.0  0.73734  0.12739  0.09849  1.0000
  C   C780      1.0  0.95188  0.07662  0.82517  1.0000
  C   C781      1.0  0.84250  0.03259  0.19045  1.0000
  S   S178      1.0  0.97046  0.97665  0.14970  1.0000
  S   S179      1.0  0.77465  0.01486  0.05980  1.0000
  H   H1383     1.0  0.95718  0.99955  0.90166  1.0000
  H   H1384     1.0  0.78527  0.30228  0.03374  1.0000
  C   C782      1.0  0.53190  0.04582  0.01124  1.0000
  H   H1385     1.0  0.74704  0.06258  0.85162  1.0000
  H   H1386     1.0  0.78957  0.95349  0.11069  1.0000
  H   H1387     1.0  0.93018  0.38504  0.05177  1.0000
  H   H1388     1.0  0.93219  0.31606  0.77614  1.0000
  C   C783      1.0  0.93807  0.32620  0.06327  1.0000
  H   H1389     1.0  0.97722  0.06480  0.09752  1.0000
  H   H1390     1.0  0.95369  0.09766  0.22215  1.0000
  H   H1391     1.0  0.79468  0.36041  0.79913  1.0000
  C   C784      1.0  0.95656  0.17620  0.96472  1.0000
  H   H1392     1.0  0.54071  0.24601  0.00726  1.0000
  C   C785      1.0  0.62351  0.23235  0.13422  1.0000
  H   H1393     1.0  0.58278  0.33876  0.86841  1.0000
  C   C786      1.0  0.59320  0.15990  0.98941  1.0000
  Fe  Fe88      1.0  0.72872  0.99456  0.03535  1.0000
  C   C787      1.0  0.72604  0.30032  0.94843  1.0000
  H   H1394     1.0  0.98722  0.33386  0.11127  1.0000
  C   C788      1.0  0.95364  0.11871  0.86530  1.0000
  H   H1395     1.0  0.84701  0.07412  0.99389  1.0000
  C   C789      1.0  0.79840  0.26887  0.85720  1.0000
  H   H1396     1.0  0.80269  0.42469  0.04866  1.0000
  C   C790      1.0  0.59778  0.39536  0.01913  1.0000
  H   H1397     1.0  0.87835  0.08502  0.02445  1.0000
  H   H1398     1.0  0.60539  0.20293  0.01765  1.0000
  H   H1399     1.0  0.94066  0.37890  0.99273  1.0000
  H   H1400     1.0  0.94491  0.13656  0.87374  1.0000
  H   H1401     1.0  0.62740  0.96836  0.78642  1.0000
  H   H1402     1.0  0.69548  0.01213  0.86260  1.0000
  H   H1403     1.0  0.58532  0.19874  0.87456  1.0000
  C   C791      1.0  0.92062  0.31521  0.88525  1.0000
  H   H1404     1.0  0.84895  0.23089  0.11099  1.0000
  C   C792      1.0  0.60255  0.16457  0.84966  1.0000
  S   S180      1.0  0.66662  0.26678  0.10458  1.0000
  C   C793      1.0  0.74188  0.24904  0.18253  1.0000
  S   S181      1.0  0.68031  0.99645  0.07037  1.0000
  H   H1405     1.0  0.53119  0.28400  0.96095  1.0000
  C   C794      1.0  0.86687  0.03787  0.00691  1.0000
  C   C795      1.0  0.96959  0.12598  0.09545  1.0000
  H   H1406     1.0  0.00581  0.11256  0.99009  1.0000
  C   C796      1.0  0.64971  0.13328  0.87330  1.0000
  Fe  Fe89      1.0  0.85893  0.18387  0.80119  1.0000
  H   H1407     1.0  0.65452  0.18037  0.88943  1.0000
  H   H1408     1.0  0.66599  0.04879  0.88013  1.0000
  C   C797      1.0  0.56674  0.20461  0.19962  1.0000
  H   H1409     1.0  0.81884  0.30081  0.92441  1.0000
  H   H1410     1.0  0.82594  0.04497  0.19164  1.0000
  H   H1411     1.0  0.62629  0.38215  0.18527  1.0000
  H   H1412     1.0  0.71375  0.33992  0.96372  1.0000
  C   C798      1.0  0.78363  0.06471  0.15813  1.0000
  C   C799      1.0  0.65048  0.40323  0.85880  1.0000
  H   H1413     1.0  0.55532  0.95697  0.95135  1.0000
  H   H1414     1.0  0.61967  0.99784  0.04898  1.0000
  Fe  Fe90      1.0  0.65175  0.94386  0.06614  1.0000
  H   H1415     1.0  0.77945  0.09706  0.79728  1.0000
  H   H1416     1.0  0.84067  0.33756  0.84362  1.0000
  C   C800      1.0  0.82086  0.99443  0.19528  1.0000
  H   H1417     1.0  0.98820  0.36852  0.00861  1.0000
  C   C801      1.0  0.80800  0.33510  0.95685  1.0000
  H   H1418     1.0  0.97805  0.18717  0.92859  1.0000
  C   C802      1.0  0.59995  0.23340  0.17337  1.0000
  C   C803      1.0  0.77172  0.28088  0.87682  1.0000
  S   S182      1.0  0.81299  0.17895  0.77902  1.0000
  C   C804      1.0  0.89352  0.26043  0.97302  1.0000
  H   H1419     1.0  0.80525  0.14391  0.95681  1.0000
  H   H1420     1.0  0.89142  0.27639  0.16209  1.0000
  H   H1421     1.0  0.78294  0.04776  0.76278  1.0000
  H   H1422     1.0  0.97155  0.32010  0.97672  1.0000
  H   H1423     1.0  0.88101  0.29540  0.74855  1.0000
  H   H1424     1.0  0.00414  0.32973  0.03578  1.0000
  N   N45       1.0  0.78615  0.31333  0.88996  1.0000
  H   H1425     1.0  0.79007  0.10567  0.06184  1.0000
  H   H1426     1.0  0.82925  0.31128  0.00228  1.0000
  H   H1427     1.0  0.66136  0.14551  0.95782  1.0000
  C   C805      1.0  0.79752  0.23325  0.03378  1.0000
  H   H1428     1.0  0.82627  0.36669  0.85707  1.0000
  H   H1429     1.0  0.86301  0.04887  0.11021  1.0000
  C   C806      1.0  0.85650  0.02209  0.96736  1.0000
  H   H1430     1.0  0.96181  0.09062  0.03191  1.0000
  H   H1431     1.0  0.76636  0.18364  0.99936  1.0000
  C   C807      1.0  0.81127  0.32226  0.00627  1.0000
  H   H1432     1.0  0.89177  0.03951  0.00882  1.0000
  H   H1433     1.0  0.84328  0.14222  0.99318  1.0000
  C   C808      1.0  0.75606  0.13596  0.95183  1.0000
  H   H1434     1.0  0.66602  0.99561  0.83041  1.0000
  H   H1435     1.0  0.73753  0.23256  0.15898  1.0000
  H   H1436     1.0  0.78665  0.13419  0.88436  1.0000
  C   C809      1.0  0.71849  0.08232  0.07693  1.0000
  C   C810      1.0  0.79155  0.05236  0.11974  1.0000
  H   H1437     1.0  0.75911  0.28359  0.84918  1.0000
  C   C811      1.0  0.54592  0.30857  0.96734  1.0000
  H   H1438     1.0  0.84642  0.18066  0.00479  1.0000
  C   C812      1.0  0.76977  0.06994  0.81866  1.0000
  C   C813      1.0  0.73784  0.12206  0.06344  1.0000
  H   H1439     1.0  0.76579  0.16396  0.93508  1.0000
  H   H1440     1.0  0.88679  0.16578  0.03208  1.0000
  H   H1441     1.0  0.97950  0.22495  0.05002  1.0000
  H   H1442     1.0  0.95323  0.27416  0.00379  1.0000
  H   H1443     1.0  0.81273  0.95093  0.79738  1.0000
  C   C814      1.0  0.64446  0.41025  0.17065  1.0000
  C   C815      1.0  0.98941  0.10431  0.02961  1.0000
  C   C816      1.0  0.95123  0.38695  0.02111  1.0000
  H   H1444     1.0  0.93388  0.17209  0.20616  1.0000
  N   N46       1.0  0.53742  0.10016  0.03326  1.0000
  H   H1445     1.0  0.53827  0.31415  0.87302  1.0000
  C   C817      1.0  0.78753  0.41059  0.96988  1.0000
  H   H1446     1.0  0.74619  0.41779  0.21666  1.0000
  H   H1447     1.0  0.00783  0.42262  0.87074  1.0000
  H   H1448     1.0  0.59003  0.94690  0.95112  1.0000
  Fe  Fe91      1.0  0.51487  0.97282  0.19752  1.0000
  H   H1449     1.0  0.85342  0.03510  0.22030  1.0000
  H   H1450     1.0  0.53973  0.28106  0.08740  1.0000
  H   H1451     1.0  0.65260  0.23313  0.73318  1.0000
  H   H1452     1.0  0.77498  0.94481  0.74281  1.0000
  C   C818      1.0  0.55692  0.33759  0.87805  1.0000
  H   H1453     1.0  0.54212  0.20212  0.06765  1.0000
  H   H1454     1.0  0.63036  0.42399  0.16009  1.0000
  C   C819      1.0  0.54651  0.28292  0.04781  1.0000
  H   H1455     1.0  0.70392  0.11100  0.22446  1.0000
  H   H1456     1.0  0.55943  0.36064  0.85221  1.0000
  H   H1457     1.0  0.98936  0.27432  0.21238  1.0000
  H   H1458     1.0  0.69304  0.17806  0.20329  1.0000
  C   C820      1.0  0.00774  0.30066  0.96333  1.0000
  C   C821      1.0  0.51743  0.06030  0.12267  1.0000
  H   H1459     1.0  0.83905  0.94911  0.93627  1.0000
  H   H1460     1.0  0.73105  0.14259  0.73441  1.0000
  H   H1461     1.0  0.54287  0.94253  0.88815  1.0000
  H   H1462     1.0  0.77823  0.42975  0.96386  1.0000
  S   S183      1.0  0.50887  0.35215  0.15841  1.0000
  H   H1463     1.0  0.76460  0.10536  0.73449  1.0000
  H   H1464     1.0  0.76697  0.96788  0.81012  1.0000
  H   H1465     1.0  0.98795  0.17138  0.74579  1.0000
  C   C822      1.0  0.52208  0.10888  0.99578  1.0000
  H   H1466     1.0  0.52084  0.03916  0.11310  1.0000
  C   C823      1.0  0.72400  0.02141  0.73799  1.0000
  Fe  Fe92      1.0  0.94990  0.93965  0.22587  1.0000
  C   C824      1.0  0.76687  0.95034  0.84066  1.0000
  H   H1467     1.0  0.94849  0.95597  0.84026  1.0000
  C   C825      1.0  0.79299  0.94093  0.83354  1.0000
  H   H1468     1.0  0.88525  0.94208  0.97500  1.0000
  C   C826      1.0  0.56255  0.93916  0.97145  1.0000
  C   C827      1.0  0.50911  0.41162  0.76936  1.0000
  C   C828      1.0  0.92125  0.94420  0.07395  1.0000
  H   H1469     1.0  0.76233  0.22563  0.22976  1.0000
  Fe  Fe93      1.0  0.70955  0.31598  0.22961  1.0000
  H   H1470     1.0  0.70439  0.94250  0.22795  1.0000
  H   H1471     1.0  0.54941  0.20504  0.23133  1.0000
  H   H1472     1.0  0.83748  0.28757  0.23136  1.0000
  H   H1473     1.0  0.61453  0.38577  0.27218  1.0000
  C   C829      1.0  0.98209  0.00070  0.63560  1.0000
  H   H1474     1.0  0.73402  0.17912  0.38788  1.0000
  C   C830      1.0  0.64888  0.37911  0.33963  1.0000
  H   H1475     1.0  0.78424  0.09188  0.42036  1.0000
  H   H1476     1.0  0.72858  0.96313  0.52816  1.0000
  H   H1477     1.0  0.73248  0.17844  0.30444  1.0000
  C   C831      1.0  0.83614  0.15411  0.70959  1.0000
  H   H1478     1.0  0.77752  0.24261  0.49300  1.0000
  H   H1479     1.0  0.70999  0.19600  0.42177  1.0000
  H   H1480     1.0  0.92368  0.15988  0.66091  1.0000
  H   H1481     1.0  0.97985  0.21186  0.31240  1.0000
  H   H1482     1.0  0.91637  0.07231  0.67362  1.0000
  C   C832      1.0  0.81655  0.95314  0.53534  1.0000
  H   H1483     1.0  0.98595  0.15303  0.63333  1.0000
  C   C833      1.0  0.83745  0.20502  0.41767  1.0000
  H   H1484     1.0  0.74640  0.11904  0.42295  1.0000
  H   H1485     1.0  0.76018  0.06873  0.57638  1.0000
  H   H1486     1.0  0.75581  0.18890  0.71304  1.0000
  S   S184      1.0  0.64160  0.14882  0.58351  1.0000
  C   C834      1.0  0.85528  0.28252  0.24632  1.0000
  H   H1487     1.0  0.57301  0.35800  0.67090  1.0000
  C   C835      1.0  0.73466  0.09393  0.54486  1.0000
  H   H1488     1.0  0.71081  0.96439  0.70798  1.0000
  H   H1489     1.0  0.81686  0.94710  0.57338  1.0000
  H   H1490     1.0  0.68998  0.02001  0.57393  1.0000
  S   S185      1.0  0.85181  0.09306  0.36116  1.0000
  H   H1491     1.0  0.67088  0.94678  0.56950  1.0000
  H   H1492     1.0  0.78427  0.00246  0.45792  1.0000
  S   S186      1.0  0.66440  0.40111  0.69488  1.0000
  H   H1493     1.0  0.75506  0.13161  0.61395  1.0000
  H   H1494     1.0  0.86675  0.95455  0.61103  1.0000
  C   C836      1.0  0.76640  0.12709  0.64227  1.0000
  C   C837      1.0  0.70812  0.18038  0.31096  1.0000
  C   C838      1.0  0.76907  0.98535  0.25839  1.0000
  H   H1495     1.0  0.79260  0.95491  0.53625  1.0000
  H   H1496     1.0  0.89310  0.02802  0.27418  1.0000
  H   H1497     1.0  0.68027  0.22456  0.28540  1.0000
  H   H1498     1.0  0.91904  0.30267  0.45772  1.0000
  C   C839      1.0  0.99278  0.99667  0.36292  1.0000
  H   H1499     1.0  0.64839  0.31967  0.66501  1.0000
  H   H1500     1.0  0.91665  0.41365  0.53927  1.0000
  C   C840      1.0  0.88562  0.03200  0.30880  1.0000
  H   H1501     1.0  0.77552  0.18860  0.47603  1.0000
  H   H1502     1.0  0.84125  0.32099  0.70283  1.0000
  H   H1503     1.0  0.72826  0.18364  0.54639  1.0000
  C   C841      1.0  0.90692  0.33777  0.67717  1.0000
  S   S187      1.0  0.60267  0.10325  0.70119  1.0000
  C   C842      1.0  0.61744  0.34530  0.61058  1.0000
  C   C843      1.0  0.72932  0.16664  0.72438  1.0000
  H   H1504     1.0  0.71973  0.09311  0.57982  1.0000
  C   C844      1.0  0.58386  0.22461  0.47757  1.0000
  H   H1505     1.0  0.53374  0.38235  0.68580  1.0000
  H   H1506     1.0  0.62662  0.36670  0.62593  1.0000
  C   C845      1.0  0.53197  0.20049  0.55694  1.0000
  H   H1507     1.0  0.77100  0.14753  0.65932  1.0000
  Fe  Fe94      1.0  0.91430  0.09607  0.53457  1.0000
  H   H1508     1.0  0.94993  0.29148  0.42582  1.0000
  C   C846      1.0  0.52687  0.16806  0.63714  1.0000
  C   C847      1.0  0.95880  0.05333  0.51204  1.0000
  H   H1509     1.0  0.58474  0.15879  0.33192  1.0000
  S   S188      1.0  0.94589  0.42394  0.23987  1.0000
  C   C848      1.0  0.67476  0.01581  0.48966  1.0000
  C   C849      1.0  0.77071  0.09281  0.45501  1.0000
  Fe  Fe95      1.0  0.79267  0.42686  0.62378  1.0000
  H   H1510     1.0  0.72033  0.16821  0.69256  1.0000
  H   H1511     1.0  0.66550  0.96182  0.44770  1.0000
  H   H1512     1.0  0.73117  0.22637  0.33274  1.0000
  H   H1513     1.0  0.68299  0.07924  0.44068  1.0000
  H   H1514     1.0  0.69174  0.96453  0.35080  1.0000
  H   H1515     1.0  0.64183  0.20761  0.60379  1.0000
  H   H1516     1.0  0.52690  0.96288  0.35636  1.0000
  C   C850      1.0  0.71679  0.99455  0.47570  1.0000
  C   C851      1.0  0.92960  0.30583  0.60469  1.0000
  H   H1517     1.0  0.61242  0.42321  0.24563  1.0000
  H   H1518     1.0  0.94296  0.07776  0.36566  1.0000
  H   H1519     1.0  0.96114  0.28417  0.57377  1.0000
  H   H1520     1.0  0.55286  0.94342  0.68461  1.0000
  H   H1521     1.0  0.81631  0.99131  0.29578  1.0000
  C   C852      1.0  0.88658  0.01252  0.35094  1.0000
  C   C853      1.0  0.84619  0.30352  0.68418  1.0000
  C   C854      1.0  0.54243  0.06945  0.26040  1.0000
  C   C855      1.0  0.81503  0.34523  0.24545  1.0000
  H   H1522     1.0  0.74816  0.96573  0.33908  1.0000
  H   H1523     1.0  0.63867  0.16202  0.34193  1.0000
  H   H1524     1.0  0.00021  0.21636  0.62484  1.0000
  C   C856      1.0  0.61169  0.23076  0.63157  1.0000
  S   S189      1.0  0.69060  0.35346  0.23973  1.0000
  H   H1525     1.0  0.84474  0.38017  0.72048  1.0000
  N   N47       1.0  0.88380  0.32084  0.65023  1.0000
  H   H1526     1.0  0.78353  0.01138  0.26097  1.0000
  H   H1527     1.0  0.77619  0.28749  0.71866  1.0000
  H   H1528     1.0  0.00765  0.06309  0.52140  1.0000
  N   N48       1.0  0.64171  0.42970  0.29444  1.0000
  C   C857      1.0  0.71388  0.98029  0.31522  1.0000
  C   C858      1.0  0.92876  0.02912  0.50762  1.0000
  H   H1529     1.0  0.85346  0.13528  0.43264  1.0000
  C   C859      1.0  0.94713  0.18397  0.63456  1.0000
  H   H1530     1.0  0.58705  0.39588  0.62040  1.0000
  C   C860      1.0  0.77133  0.95333  0.70881  1.0000
  S   S190      1.0  0.93926  0.94361  0.52804  1.0000
  C   C861      1.0  0.66716  0.33872  0.62822  1.0000
  S   S191      1.0  0.87214  0.17143  0.25315  1.0000
  H   H1531     1.0  0.68433  0.20285  0.35827  1.0000
  H   H1532     1.0  0.85638  0.22342  0.49858  1.0000
  C   C862      1.0  0.86565  0.04224  0.39864  1.0000
  H   H1533     1.0  0.90372  0.24116  0.41999  1.0000
  H   H1534     1.0  0.59633  0.09800  0.25590  1.0000
  H   H1535     1.0  0.81565  0.15475  0.47431  1.0000
  H   H1536     1.0  0.85392  0.27017  0.37826  1.0000
  H   H1537     1.0  0.96101  0.15679  0.29248  1.0000
  H   H1538     1.0  0.88255  0.27143  0.66853  1.0000
  H   H1539     1.0  0.67539  0.43149  0.33650  1.0000
  C   C863      1.0  0.89693  0.26068  0.42936  1.0000
  H   H1540     1.0  0.83721  0.97175  0.26517  1.0000
  H   H1541     1.0  0.75228  0.18301  0.58763  1.0000
  C   C864      1.0  0.94809  0.98636  0.51992  1.0000
  S   S192      1.0  0.89541  0.12744  0.49262  1.0000
  C   C865      1.0  0.90500  0.96705  0.67266  1.0000
  C   C866      1.0  0.70818  0.20024  0.34815  1.0000
  Fe  Fe96      1.0  0.66594  0.11483  0.57754  1.0000
  C   C867      1.0  0.87491  0.05683  0.31152  1.0000
  C   C868      1.0  0.63545  0.43840  0.46683  1.0000
  H   H1542     1.0  0.51816  0.20981  0.53614  1.0000
  H   H1543     1.0  0.92049  0.98194  0.63290  1.0000
  H   H1544     1.0  0.54091  0.43124  0.45722  1.0000
  C   C869      1.0  0.84131  0.17508  0.44647  1.0000
  N   N49       1.0  0.83043  0.22703  0.44604  1.0000
  H   H1545     1.0  0.98511  0.06228  0.32606  1.0000
  H   H1546     1.0  0.86130  0.22127  0.38424  1.0000
  C   C870      1.0  0.56686  0.36858  0.63928  1.0000
  C   C871      1.0  0.52790  0.06860  0.58986  1.0000
  H   H1547     1.0  0.91909  0.36184  0.58121  1.0000
  H   H1548     1.0  0.62748  0.37124  0.37456  1.0000
  C   C872      1.0  0.97750  0.19293  0.65347  1.0000
  H   H1549     1.0  0.95443  0.18082  0.59802  1.0000
  C   C873      1.0  0.98425  0.04440  0.51824  1.0000
  H   H1550     1.0  0.97126  0.98368  0.61475  1.0000
  H   H1551     1.0  0.54269  0.19336  0.64040  1.0000
  H   H1552     1.0  0.98302  0.01033  0.34052  1.0000
  C   C874      1.0  0.74172  0.09132  0.68101  1.0000
  H   H1553     1.0  0.98615  0.11357  0.34550  1.0000
  H   H1554     1.0  0.59745  0.35457  0.47629  1.0000
  H   H1555     1.0  0.97054  0.19939  0.68722  1.0000
  Fe  Fe97      1.0  0.88039  0.13910  0.56207  1.0000
  C   C875      1.0  0.78440  0.34555  0.24354  1.0000
  H   H1556     1.0  0.51791  0.15035  0.36723  1.0000
  H   H1557     1.0  0.00019  0.01565  0.42396  1.0000
  C   C876      1.0  0.68186  0.98019  0.63528  1.0000
  H   H1558     1.0  0.82500  0.29464  0.33274  1.0000
  H   H1559     1.0  0.93569  0.07872  0.72040  1.0000
  Fe  Fe98      1.0  0.92382  0.98210  0.27293  1.0000
  H   H1560     1.0  0.65432  0.97332  0.65417  1.0000
  N   N50       1.0  0.70589  0.19589  0.26259  1.0000
  H   H1561     1.0  0.54453  0.04581  0.26220  1.0000
  H   H1562     1.0  0.61749  0.42324  0.37076  1.0000
  C   C877      1.0  0.84796  0.24855  0.26673  1.0000
  H   H1563     1.0  0.63878  0.36348  0.31677  1.0000
  Fe  Fe99      1.0  0.83890  0.11573  0.29940  1.0000
  H   H1564     1.0  0.99446  0.11802  0.72685  1.0000
  H   H1565     1.0  0.88456  0.42334  0.57114  1.0000
  H   H1566     1.0  0.68653  0.15337  0.32999  1.0000
  H   H1567     1.0  0.81389  0.32128  0.26280  1.0000
  H   H1568     1.0  0.69936  0.38014  0.32099  1.0000
  H   H1569     1.0  0.91917  0.29760  0.70840  1.0000
  C   C878      1.0  0.52971  0.01034  0.36652  1.0000
  S   S193      1.0  0.88144  0.18922  0.56172  1.0000
  Fe  Fe100     1.0  0.62904  0.07193  0.68664  1.0000
  C   C879      1.0  0.64856  0.21721  0.67001  1.0000
  C   C880      1.0  0.78310  0.99899  0.63775  1.0000
  H   H1570     1.0  0.88184  0.17725  0.38644  1.0000
  C   C881      1.0  0.66851  0.05829  0.42739  1.0000
  H   H1571     1.0  0.54392  0.39811  0.40261  1.0000
  H   H1572     1.0  0.54144  0.17291  0.50627  1.0000
  C   C882      1.0  0.53111  0.34571  0.23671  1.0000
  H   H1573     1.0  0.84928  0.22690  0.59982  1.0000
  H   H1574     1.0  0.96876  0.94976  0.42579  1.0000
  C   C883      1.0  0.59481  0.32643  0.54769  1.0000
  C   C884      1.0  0.89091  0.34818  0.60442  1.0000
  H   H1575     1.0  0.68468  0.95667  0.64374  1.0000
  C   C885      1.0  0.57893  0.33015  0.50722  1.0000
  C   C886      1.0  0.94506  0.15883  0.32533  1.0000
  H   H1576     1.0  0.69405  0.03735  0.49746  1.0000
  H   H1577     1.0  0.52605  0.35315  0.40912  1.0000
  H   H1578     1.0  0.94564  0.94844  0.38299  1.0000
  H   H1579     1.0  0.90090  0.27899  0.39465  1.0000
  H   H1580     1.0  0.86128  0.13898  0.65481  1.0000
  H   H1581     1.0  0.51248  0.39814  0.27955  1.0000
  C   C887      1.0  0.96818  0.08714  0.37185  1.0000
  C   C888      1.0  0.53150  0.43490  0.49271  1.0000
  H   H1582     1.0  0.80145  0.23934  0.53293  1.0000
  C   C889      1.0  0.92324  0.99566  0.51211  1.0000
  H   H1583     1.0  0.91833  0.26641  0.56933  1.0000
  C   C890      1.0  0.00409  0.20515  0.42118  1.0000
  C   C891      1.0  0.88220  0.37686  0.61304  1.0000
  C   C892      1.0  0.58325  0.98125  0.71286  1.0000
  H   H1584     1.0  0.93067  0.13343  0.35532  1.0000
  C   C893      1.0  0.60093  0.24201  0.66990  1.0000
  C   C894      1.0  0.96803  0.18690  0.34241  1.0000
  Fe  Fe101     1.0  0.82173  0.17153  0.25877  1.0000
  C   C895      1.0  0.51301  0.17138  0.37442  1.0000
  C   C896      1.0  0.82546  0.17792  0.71877  1.0000
  S   S194      1.0  0.94507  0.42291  0.68278  1.0000
  H   H1585     1.0  0.55274  0.97990  0.39262  1.0000
  H   H1586     1.0  0.87552  0.28321  0.61291  1.0000
  C   C897      1.0  0.61659  0.94626  0.50547  1.0000
  H   H1587     1.0  0.66429  0.34257  0.37080  1.0000
  H   H1588     1.0  0.72219  0.00136  0.43532  1.0000
  H   H1589     1.0  0.60099  0.24432  0.49044  1.0000
  H   H1590     1.0  0.87521  0.07249  0.27869  1.0000
  H   H1591     1.0  0.95041  0.18676  0.37560  1.0000
  H   H1592     1.0  0.93870  0.32610  0.56895  1.0000
  H   H1593     1.0  0.66454  0.01076  0.42084  1.0000
  H   H1594     1.0  0.74346  0.15984  0.24338  1.0000
  H   H1595     1.0  0.82086  0.22190  0.68616  1.0000
  C   C898      1.0  0.91196  0.06282  0.71332  1.0000
  N   N51       1.0  0.79326  0.97068  0.24517  1.0000
  H   H1596     1.0  0.70050  0.01894  0.72914  1.0000
  C   C899      1.0  0.66521  0.41798  0.31156  1.0000
  C   C900      1.0  0.81090  0.96884  0.28251  1.0000
  H   H1597     1.0  0.79189  0.12934  0.62333  1.0000
  C   C901      1.0  0.56575  0.34771  0.60340  1.0000
  C   C902      1.0  0.99622  0.17940  0.35489  1.0000
  H   H1598     1.0  0.51687  0.35806  0.25019  1.0000
  H   H1599     1.0  0.87300  0.99176  0.66378  1.0000
  C   C903      1.0  0.51039  0.43324  0.37073  1.0000
  H   H1600     1.0  0.64008  0.04682  0.44767  1.0000
  H   H1601     1.0  0.55396  0.02723  0.33387  1.0000
  H   H1602     1.0  0.67402  0.06973  0.38756  1.0000
  C   C904      1.0  0.60842  0.40843  0.51367  1.0000
  N   N52       1.0  0.92426  0.98290  0.70454  1.0000
  H   H1603     1.0  0.87749  0.00276  0.42837  1.0000
  H   H1604     1.0  0.54595  0.16024  0.62036  1.0000
  H   H1605     1.0  0.74454  0.02851  0.70208  1.0000
  C   C905      1.0  0.52865  0.97573  0.38474  1.0000
  H   H1606     1.0  0.96001  0.24298  0.47915  1.0000
  H   H1607     1.0  0.96831  0.43106  0.58043  1.0000
  H   H1608     1.0  0.91959  0.26428  0.29862  1.0000
  C   C906      1.0  0.61602  0.24331  0.70625  1.0000
  C   C907      1.0  0.74814  0.19980  0.55990  1.0000
  S   S195      1.0  0.70194  0.12494  0.50281  1.0000
  C   C908      1.0  0.64879  0.33929  0.59116  1.0000
  C   C909      1.0  0.77537  0.07936  0.49793  1.0000
  C   C910      1.0  0.92283  0.28087  0.45153  1.0000
  C   C911      1.0  0.65575  0.95581  0.48835  1.0000
  C   C912      1.0  0.78138  0.27072  0.69883  1.0000
  C   C913      1.0  0.61024  0.42116  0.33759  1.0000
  H   H1609     1.0  0.90995  0.03624  0.49990  1.0000
  H   H1610     1.0  0.59795  0.32235  0.64330  1.0000
  H   H1611     1.0  0.70314  0.98098  0.28512  1.0000
  H   H1612     1.0  0.77197  0.95801  0.46601  1.0000
  H   H1613     1.0  0.54380  0.07546  0.33125  1.0000
  H   H1614     1.0  0.72816  0.00683  0.31610  1.0000
  H   H1615     1.0  0.76588  0.98272  0.41672  1.0000
  C   C914      1.0  0.52990  0.14353  0.71932  1.0000
  C   C915      1.0  0.72812  0.96708  0.49015  1.0000
  H   H1616     1.0  0.66807  0.35988  0.55583  1.0000
  C   C916      1.0  0.86916  0.96541  0.67914  1.0000
  H   H1617     1.0  0.67903  0.14473  0.25890  1.0000
  H   H1618     1.0  0.95419  0.95570  0.70076  1.0000
  H   H1619     1.0  0.56995  0.95416  0.24931  1.0000
  H   H1620     1.0  0.92552  0.16505  0.31541  1.0000
  H   H1621     1.0  0.68869  0.42543  0.27980  1.0000
  S   S196      1.0  0.73942  0.06463  0.23871  1.0000
  H   H1622     1.0  0.96457  0.03747  0.39098  1.0000
  H   H1623     1.0  0.98156  0.15387  0.38458  1.0000
  C   C917      1.0  0.78869  0.98849  0.68118  1.0000
  C   C918      1.0  0.57688  0.38594  0.35186  1.0000
  C   C919      1.0  0.67543  0.20285  0.27055  1.0000
  H   H1624     1.0  0.87127  0.38901  0.54570  1.0000
  H   H1625     1.0  0.61991  0.32794  0.52809  1.0000
  C   C920      1.0  0.73814  0.96469  0.30824  1.0000
  H   H1626     1.0  0.89849  0.35466  0.69244  1.0000
  C   C921      1.0  0.73069  0.10807  0.50161  1.0000
  C   C922      1.0  0.85207  0.15684  0.66125  1.0000
  C   C923      1.0  0.86485  0.06194  0.35651  1.0000
  H   H1627     1.0  0.94742  0.31614  0.62465  1.0000
  S   S197      1.0  0.94822  0.33726  0.25992  1.0000
  Fe  Fe102     1.0  0.71844  0.40855  0.68137  1.0000
  C   C924      1.0  0.52454  0.06910  0.31218  1.0000
  H   H1628     1.0  0.98256  0.17861  0.44432  1.0000
  H   H1629     1.0  0.53160  0.02231  0.39559  1.0000
  C   C925      1.0  0.74923  0.10803  0.45658  1.0000
  H   H1630     1.0  0.94673  0.19782  0.49405  1.0000
  C   C926      1.0  0.54731  0.33406  0.26532  1.0000
  C   C927      1.0  0.89113  0.29384  0.63541  1.0000
  C   C928      1.0  0.98346  0.06345  0.36349  1.0000
  H   H1631     1.0  0.86508  0.21586  0.30255  1.0000
  H   H1632     1.0  0.55356  0.27590  0.51381  1.0000
  N   N53       1.0  0.60071  0.35263  0.57404  1.0000
  H   H1633     1.0  0.95593  0.03544  0.70086  1.0000
  C   C929      1.0  0.64058  0.23175  0.70549  1.0000
  H   H1634     1.0  0.63962  0.31380  0.58572  1.0000
  C   C930      1.0  0.54221  0.04443  0.52736  1.0000
  C   C931      1.0  0.98949  0.23059  0.42396  1.0000
  H   H1635     1.0  0.99382  0.10650  0.64997  1.0000
  H   H1636     1.0  0.54798  0.32000  0.62628  1.0000
  H   H1637     1.0  0.94043  0.20512  0.63032  1.0000
  H   H1638     1.0  0.68761  0.33152  0.61545  1.0000
  H   H1639     1.0  0.77333  0.22879  0.42124  1.0000
  Fe  Fe103     1.0  0.78911  0.10286  0.24290  1.0000
  H   H1640     1.0  0.81594  0.19287  0.40382  1.0000
  H   H1641     1.0  0.96165  0.14105  0.69683  1.0000
  H   H1642     1.0  0.74255  0.24765  0.25488  1.0000
  H   H1643     1.0  0.77932  0.26880  0.34393  1.0000
  H   H1644     1.0  0.91930  0.26378  0.48715  1.0000
  H   H1645     1.0  0.61342  0.42298  0.70262  1.0000
  H   H1646     1.0  0.52726  0.07151  0.23650  1.0000
  H   H1647     1.0  0.71684  0.09069  0.69873  1.0000
  H   H1648     1.0  0.93536  0.03197  0.65670  1.0000
  S   S198      1.0  0.90261  0.11084  0.60211  1.0000
  H   H1649     1.0  0.54342  0.16963  0.72207  1.0000
  C   C932      1.0  0.90762  0.31321  0.72109  1.0000
  C   C933      1.0  0.55042  0.37708  0.40205  1.0000
  C   C934      1.0  0.79905  0.27664  0.36188  1.0000
  S   S199      1.0  0.74163  0.37743  0.65371  1.0000
  C   C935      1.0  0.93323  0.27574  0.59319  1.0000
  H   H1650     1.0  0.77805  0.24765  0.72579  1.0000
  C   C936      1.0  0.69295  0.99660  0.57975  1.0000
  S   S200      1.0  0.67414  0.19703  0.67451  1.0000
  C   C937      1.0  0.82959  0.25579  0.41138  1.0000
  C   C938      1.0  0.73915  0.22946  0.23399  1.0000
  C   C939      1.0  0.63466  0.21744  0.63244  1.0000
  H   H1651     1.0  0.94357  0.97222  0.42430  1.0000
  C   C940      1.0  0.55649  0.19236  0.52132  1.0000
  C   C941      1.0  0.93117  0.01961  0.69584  1.0000
  C   C942      1.0  0.70986  0.18145  0.39563  1.0000
  C   C943      1.0  0.99054  0.43737  0.59220  1.0000
  C   C944      1.0  0.55255  0.06464  0.55678  1.0000
  C   C945      1.0  0.90939  0.30342  0.26282  1.0000
  N   N54       1.0  0.67935  0.98441  0.50293  1.0000
  S   S201      1.0  0.53986  0.09154  0.62949  1.0000
  H   H1652     1.0  0.59777  0.30109  0.46956  1.0000
  H   H1653     1.0  0.52292  0.38596  0.53547  1.0000
  C   C946      1.0  0.79915  0.24489  0.39133  1.0000
  S   S202      1.0  0.74412  0.30717  0.26778  1.0000
  H   H1654     1.0  0.85586  0.26268  0.48113  1.0000
  S   S203      1.0  0.83668  0.09674  0.23559  1.0000
  C   C947      1.0  0.78246  0.22450  0.51721  1.0000
  H   H1655     1.0  0.89880  0.39199  0.63126  1.0000
  H   H1656     1.0  0.73655  0.07231  0.66129  1.0000
  H   H1657     1.0  0.84042  0.28075  0.71458  1.0000
  C   C948      1.0  0.96958  0.22415  0.47749  1.0000
  C   C949      1.0  0.87110  0.24205  0.28564  1.0000
  H   H1658     1.0  0.78341  0.08595  0.69905  1.0000
  C   C950      1.0  0.88915  0.40213  0.56417  1.0000
  H   H1659     1.0  0.59540  0.95190  0.28726  1.0000
  S   S204      1.0  0.78861  0.11739  0.31090  1.0000
  C   C951      1.0  0.85885  0.24294  0.46631  1.0000
  H   H1660     1.0  0.85156  0.95401  0.71812  1.0000
  S   S205      1.0  0.96494  0.09473  0.50988  1.0000
  C   C952      1.0  0.97911  0.01107  0.52152  1.0000
  H   H1661     1.0  0.73508  0.01850  0.48016  1.0000
  H   H1662     1.0  0.82931  0.27535  0.42889  1.0000
  H   H1663     1.0  0.57820  0.29982  0.57506  1.0000
  H   H1664     1.0  0.51969  0.09141  0.30550  1.0000
  H   H1665     1.0  0.56124  0.04109  0.50210  1.0000
  C   C953      1.0  0.87639  0.01751  0.39588  1.0000
  H   H1666     1.0  0.81955  0.31236  0.63311  1.0000
  C   C954      1.0  0.75754  0.08017  0.54288  1.0000
  H   H1667     1.0  0.56282  0.30525  0.45499  1.0000
  H   H1668     1.0  0.83789  0.15167  0.38859  1.0000
  H   H1669     1.0  0.69874  0.99896  0.64956  1.0000
  C   C955      1.0  0.67988  0.03078  0.43474  1.0000
  H   H1670     1.0  0.57714  0.00042  0.69620  1.0000
  H   H1671     1.0  0.85805  0.04625  0.43347  1.0000
  H   H1672     1.0  0.80198  0.23009  0.36645  1.0000
  H   H1673     1.0  0.64034  0.40581  0.55586  1.0000
  H   H1674     1.0  0.97174  0.22848  0.40307  1.0000
  H   H1675     1.0  0.64490  0.42869  0.43808  1.0000
  C   C956      1.0  0.62511  0.38878  0.53791  1.0000
  S   S206      1.0  0.81049  0.21431  0.26711  1.0000
  H   H1676     1.0  0.56415  0.38737  0.32417  1.0000
  C   C957      1.0  0.98655  0.43569  0.64108  1.0000
  C   C958      1.0  0.81820  0.29052  0.66003  1.0000
  H   H1677     1.0  0.60146  0.23119  0.60203  1.0000
  H   H1678     1.0  0.58661  0.39200  0.50372  1.0000
  C   C959      1.0  0.85446  0.15898  0.41129  1.0000
  H   H1679     1.0  0.67962  0.36464  0.63163  1.0000
  H   H1680     1.0  0.57959  0.07719  0.55373  1.0000
  C   C960      1.0  0.76321  0.97497  0.61932  1.0000
  C   C961      1.0  0.57927  0.10024  0.23529  1.0000
  H   H1681     1.0  0.79251  0.29035  0.38649  1.0000
  H   H1682     1.0  0.87691  0.33631  0.58092  1.0000
  H   H1683     1.0  0.64538  0.38851  0.50833  1.0000
  C   C962      1.0  0.84550  0.20655  0.63051  1.0000
  C   C963      1.0  0.88617  0.30998  0.24403  1.0000
  H   H1684     1.0  0.51546  0.23963  0.26872  1.0000
  C   C964      1.0  0.67582  0.37090  0.35386  1.0000
  H   H1685     1.0  0.52459  0.37813  0.63079  1.0000
  H   H1686     1.0  0.55227  0.35386  0.57919  1.0000
  S   S207      1.0  0.86311  0.04789  0.56258  1.0000
  H   H1687     1.0  0.70790  0.04304  0.41146  1.0000
  H   H1688     1.0  0.79846  0.18579  0.51598  1.0000
  C   C965      1.0  0.61034  0.18151  0.30790  1.0000
  H   H1689     1.0  0.54443  0.33653  0.30142  1.0000
  H   H1690     1.0  0.99873  0.00421  0.52644  1.0000
  C   C966      1.0  0.56761  0.31980  0.24697  1.0000
  Fe  Fe104     1.0  0.84992  0.06413  0.62763  1.0000
  C   C967      1.0  0.75798  0.08367  0.71969  1.0000
  S   S208      1.0  0.97549  0.26595  0.67776  1.0000
  H   H1691     1.0  0.68396  0.38333  0.38088  1.0000
  C   C968      1.0  0.79620  0.20478  0.48857  1.0000
  C   C969      1.0  0.90170  0.26943  0.28398  1.0000
  Fe  Fe105     1.0  0.65369  0.14967  0.65250  1.0000
  S   S209      1.0  0.81834  0.01975  0.69863  1.0000
  H   H1692     1.0  0.95626  0.35312  0.72092  1.0000
  H   H1693     1.0  0.85990  0.18360  0.46595  1.0000
  H   H1694     1.0  0.60046  0.21783  0.45228  1.0000
  H   H1695     1.0  0.96342  0.08761  0.41014  1.0000
  C   C970      1.0  0.57291  0.30123  0.48523  1.0000
  Fe  Fe106     1.0  0.84256  0.08001  0.52781  1.0000
  H   H1696     1.0  0.83947  0.97874  0.51268  1.0000
  H   H1697     1.0  0.98670  0.22706  0.49977  1.0000
  H   H1698     1.0  0.57054  0.18222  0.54022  1.0000
  C   C971      1.0  0.53179  0.36702  0.66056  1.0000
  H   H1699     1.0  0.67268  0.21179  0.23467  1.0000
  S   S210      1.0  0.80131  0.05924  0.49521  1.0000
  H   H1700     1.0  0.54969  0.13691  0.70122  1.0000
  S   S211      1.0  0.68131  0.11877  0.64374  1.0000
  H   H1701     1.0  0.79438  0.02571  0.61742  1.0000
  H   H1702     1.0  0.55359  0.32948  0.52181  1.0000
  S   S212      1.0  0.82694  0.09385  0.59405  1.0000
  H   H1703     1.0  0.73801  0.21462  0.57818  1.0000
  H   H1704     1.0  0.89967  0.97698  0.50934  1.0000
  H   H1705     1.0  0.68680  0.15525  0.41364  1.0000
  Fe  Fe107     1.0  0.75273  0.36957  0.72352  1.0000
  C   C972      1.0  0.63210  0.43586  0.66527  1.0000
  C   C973      1.0  0.90303  0.02505  0.72930  1.0000
  S   S213      1.0  0.97437  0.98101  0.25703  1.0000
  H   H1706     1.0  0.72092  0.00435  0.56294  1.0000
  H   H1707     1.0  0.61306  0.96880  0.49198  1.0000
  C   C974      1.0  0.98506  0.16236  0.66546  1.0000
  H   H1708     1.0  0.59775  0.41927  0.53958  1.0000
  C   C975      1.0  0.85786  0.18374  0.62172  1.0000
  S   S214      1.0  0.56745  0.25270  0.67295  1.0000
  H   H1709     1.0  0.64890  0.01076  0.51359  1.0000
  C   C976      1.0  0.63922  0.17165  0.30408  1.0000
  H   H1710     1.0  0.76069  0.98371  0.58434  1.0000
  Fe  Fe108     1.0  0.59233  0.10030  0.63132  1.0000
  H   H1711     1.0  0.58235  0.36420  0.35300  1.0000
  H   H1712     1.0  0.98370  0.02600  0.62042  1.0000
  C   C977      1.0  0.95867  0.98272  0.69071  1.0000
  H   H1713     1.0  0.92339  0.25399  0.62768  1.0000
  H   H1714     1.0  0.53766  0.19621  0.35452  1.0000
  C   C978      1.0  0.82909  0.20350  0.67914  1.0000
  H   H1715     1.0  0.85451  0.36618  0.63629  1.0000
  C   C979      1.0  0.96078  0.96472  0.40160  1.0000
  C   C980      1.0  0.66078  0.43049  0.65158  1.0000
  H   H1716     1.0  0.81003  0.96504  0.37526  1.0000
  H   H1717     1.0  0.93435  0.35530  0.65133  1.0000
  H   H1718     1.0  0.51384  0.23500  0.61496  1.0000
  H   H1719     1.0  0.82159  0.27304  0.64045  1.0000
  H   H1720     1.0  0.63257  0.15016  0.28892  1.0000
  C   C981      1.0  0.63014  0.41429  0.25666  1.0000
  C   C982      1.0  0.52118  0.41591  0.29899  1.0000
  H   H1721     1.0  0.61511  0.20248  0.32409  1.0000
  H   H1722     1.0  0.60896  0.19018  0.27093  1.0000
  H   H1723     1.0  0.56095  0.37296  0.43167  1.0000
  H   H1724     1.0  0.76180  0.26197  0.68071  1.0000
  C   C983      1.0  0.67013  0.97135  0.55799  1.0000
  S   S215      1.0  0.89979  0.98131  0.34874  1.0000
  S   S216      1.0  0.61542  0.06578  0.61962  1.0000
  S   S217      1.0  0.58952  0.30748  0.28235  1.0000
  H   H1725     1.0  0.64280  0.96491  0.57747  1.0000
  H   H1726     1.0  0.54920  0.22330  0.56495  1.0000
  S   S218      1.0  0.80552  0.41678  0.69232  1.0000
  C   C984      1.0  0.56912  0.94880  0.70684  1.0000
  C   C985      1.0  0.76476  0.97832  0.45548  1.0000
  H   H1727     1.0  0.57114  0.23555  0.45673  1.0000
  H   H1728     1.0  0.97460  0.99526  0.71182  1.0000
  H   H1729     1.0  0.87671  0.00952  0.72865  1.0000
  C   C986      1.0  0.70100  0.17067  0.23478  1.0000
  Fe  Fe109     1.0  0.64114  0.31669  0.23356  1.0000
  H   H1730     1.0  0.00760  0.98809  0.33823  1.0000
  H   H1731     1.0  0.71022  0.94197  0.48835  1.0000
  H   H1732     1.0  0.57868  0.12477  0.23307  1.0000
  S   S219      1.0  0.65782  0.27650  0.23226  1.0000
  C   C987      1.0  0.80559  0.94022  0.36953  1.0000
  H   H1733     1.0  0.83041  0.93931  0.36110  1.0000
  H   H1734     1.0  0.50939  0.97020  0.67872  1.0000
  H   H1735     1.0  0.51110  0.33999  0.68187  1.0000
  C   C988      1.0  0.85046  0.94374  0.65082  1.0000
  H   H1736     1.0  0.90152  0.94056  0.67794  1.0000
  H   H1737     1.0  0.82549  0.94397  0.65445  1.0000
  C   C989      1.0  0.74638  0.94004  0.64619  1.0000
  H   H1738     1.0  0.75717  0.67678  0.14631  1.0000
  H   H1739     1.0  0.65358  0.46216  0.87979  1.0000
  S   S220      1.0  0.80542  0.62653  0.04270  1.0000
  C   C990      1.0  0.51174  0.90413  0.86175  1.0000
  C   C991      1.0  0.96734  0.88374  0.11331  1.0000
  C   C992      1.0  0.52732  0.65661  0.85530  1.0000
  C   C993      1.0  0.85821  0.91396  0.10169  1.0000
  C   C994      1.0  0.65489  0.58716  0.12112  1.0000
  C   C995      1.0  0.91329  0.73855  0.17442  1.0000
  H   H1740     1.0  0.56684  0.92655  0.04409  1.0000
  H   H1741     1.0  0.81250  0.64657  0.79839  1.0000
  H   H1742     1.0  0.68957  0.56119  0.06492  1.0000
  C   C996      1.0  0.55495  0.75246  0.03061  1.0000
  H   H1743     1.0  0.96583  0.84366  0.89831  1.0000
  H   H1744     1.0  0.63421  0.74043  0.08119  1.0000
  C   C997      1.0  0.00418  0.85635  0.82908  1.0000
  H   H1745     1.0  0.75009  0.92433  0.10430  1.0000
  H   H1746     1.0  0.67993  0.83229  0.95769  1.0000
  S   S221      1.0  0.63521  0.65445  0.84172  1.0000
  C   C998      1.0  0.70259  0.55335  0.13059  1.0000
  S   S222      1.0  0.73243  0.67737  0.78433  1.0000
  S   S223      1.0  0.84051  0.59981  0.13738  1.0000
  H   H1747     1.0  0.78215  0.55249  0.77786  1.0000
  H   H1748     1.0  0.60239  0.74307  0.15620  1.0000
  H   H1749     1.0  0.64539  0.93056  0.86430  1.0000
  H   H1750     1.0  0.65852  0.60966  0.01797  1.0000
  C   C999      1.0  0.80052  0.66472  0.96434  1.0000
  H   H1751     1.0  0.53334  0.90495  0.83352  1.0000
  H   H1752     1.0  0.57186  0.89763  0.86240  1.0000
  H   H1753     1.0  0.70554  0.50705  0.15483  1.0000
  H   H1754     1.0  0.87484  0.66581  0.78638  1.0000
  H   H1755     1.0  0.86943  0.72827  0.94866  1.0000
  H   H1756     1.0  0.77447  0.53966  0.15556  1.0000
  H   H1757     1.0  0.67880  0.74919  0.88082  1.0000
  C   C1000     1.0  0.00076  0.68990  0.01866  1.0000
  H   H1758     1.0  0.93202  0.73570  0.86741  1.0000
  H   H1759     1.0  0.58568  0.56347  0.13106  1.0000
  C   C1001     1.0  0.93532  0.63568  0.08155  1.0000
  C   C1002     1.0  0.57347  0.90529  0.89554  1.0000
  C   C1003     1.0  0.51794  0.82538  0.13353  1.0000
  C   C1004     1.0  0.52308  0.91466  0.90427  1.0000
  Fe  Fe110     1.0  0.81434  0.86605  0.93008  1.0000
  H   H1760     1.0  0.73067  0.64393  0.93713  1.0000
  N   N55       1.0  0.69340  0.60360  0.09162  1.0000
  N   N56       1.0  0.53736  0.89427  0.92983  1.0000
  H   H1761     1.0  0.59037  0.82068  0.21788  1.0000
  N   N57       1.0  0.58819  0.74627  0.09082  1.0000
  C   C1005     1.0  0.80333  0.66200  0.01088  1.0000
  H   H1762     1.0  0.55545  0.77677  0.03316  1.0000
  H   H1763     1.0  0.59643  0.70272  0.08870  1.0000
  H   H1764     1.0  0.73244  0.49652  0.76329  1.0000
  H   H1765     1.0  0.86117  0.76142  0.88136  1.0000
  H   H1766     1.0  0.99714  0.65227  0.21732  1.0000
  H   H1767     1.0  0.73224  0.59079  0.05743  1.0000
  C   C1006     1.0  0.87249  0.80656  0.79814  1.0000
  S   S224      1.0  0.72145  0.80234  0.10188  1.0000
  H   H1768     1.0  0.68915  0.63401  0.93046  1.0000
  S   S225      1.0  0.88906  0.44468  0.16901  1.0000
  H   H1769     1.0  0.86306  0.54842  0.17232  1.0000
  H   H1770     1.0  0.54551  0.70482  0.08193  1.0000
  H   H1771     1.0  0.52704  0.79169  0.22359  1.0000
  H   H1772     1.0  0.60348  0.50893  0.76042  1.0000
  S   S226      1.0  0.57212  0.80215  0.73737  1.0000
  H   H1773     1.0  0.56770  0.68140  0.16654  1.0000
  H   H1774     1.0  0.91280  0.92023  0.83567  1.0000
  H   H1775     1.0  0.52088  0.74203  0.90189  1.0000
  Fe  Fe111     1.0  0.00103  0.46501  0.19511  1.0000
  C   C1007     1.0  0.88171  0.76771  0.02755  1.0000
  H   H1776     1.0  0.99444  0.81489  0.16934  1.0000
  C   C1008     1.0  0.64717  0.68923  0.13264  1.0000
  C   C1009     1.0  0.90157  0.68797  0.92808  1.0000
  N   N58       1.0  0.85856  0.45901  0.02260  1.0000
  S   S227      1.0  0.84861  0.67606  0.12817  1.0000
  H   H1777     1.0  0.69431  0.90032  0.22372  1.0000
  C   C1010     1.0  0.62172  0.73770  0.01531  1.0000
  H   H1778     1.0  0.52184  0.70809  0.01377  1.0000
  C   C1011     1.0  0.62255  0.73725  0.79778  1.0000
  H   H1779     1.0  0.85615  0.72387  0.78087  1.0000
  C   C1012     1.0  0.74277  0.91680  0.92740  1.0000
  H   H1780     1.0  0.94466  0.60666  0.03555  1.0000
  C   C1013     1.0  0.60527  0.48512  0.77267  1.0000
  H   H1781     1.0  0.72330  0.90737  0.96360  1.0000
  H   H1782     1.0  0.87549  0.79009  0.77614  1.0000
  H   H1783     1.0  0.72538  0.56720  0.14105  1.0000
  C   C1014     1.0  0.68516  0.91967  0.22254  1.0000
  C   C1015     1.0  0.85927  0.88934  0.08026  1.0000
  H   H1784     1.0  0.72317  0.71254  0.87649  1.0000
  C   C1016     1.0  0.58676  0.86871  0.06815  1.0000
  H   H1785     1.0  0.53339  0.73166  0.10865  1.0000
  H   H1786     1.0  0.73042  0.49385  0.92160  1.0000
  H   H1787     1.0  0.76920  0.88992  0.95092  1.0000
  C   C1017     1.0  0.71415  0.62300  0.11958  1.0000
  H   H1788     1.0  0.96084  0.78886  0.89289  1.0000
  H   H1789     1.0  0.85953  0.77298  0.03785  1.0000
  H   H1790     1.0  0.64125  0.79525  0.11634  1.0000
  C   C1018     1.0  0.86874  0.67400  0.75322  1.0000
  C   C1019     1.0  0.72919  0.66993  0.15897  1.0000
  C   C1020     1.0  0.75300  0.45790  0.15593  1.0000
  C   C1021     1.0  0.76197  0.49269  0.13858  1.0000
  C   C1022     1.0  0.60586  0.72002  0.88651  1.0000
  C   C1023     1.0  0.70775  0.49416  0.75939  1.0000
  C   C1024     1.0  0.89161  0.52795  0.20616  1.0000
  H   H1791     1.0  0.70462  0.72096  0.93035  1.0000
  Fe  Fe112     1.0  0.00071  0.44011  0.10641  1.0000
  H   H1792     1.0  0.91854  0.52341  0.00694  1.0000
  H   H1793     1.0  0.89291  0.62807  0.76309  1.0000
  H   H1794     1.0  0.68180  0.50504  0.83960  1.0000
  C   C1025     1.0  0.58903  0.56999  0.76208  1.0000
  C   C1026     1.0  0.64321  0.80360  0.07751  1.0000
  H   H1795     1.0  0.79432  0.69397  0.90377  1.0000
  H   H1796     1.0  0.83174  0.49975  0.13252  1.0000
  H   H1797     1.0  0.89195  0.44266  0.04905  1.0000
  H   H1798     1.0  0.83644  0.45634  0.74637  1.0000
  H   H1799     1.0  0.67840  0.44961  0.19145  1.0000
  H   H1800     1.0  0.98412  0.89412  0.07384  1.0000
  C   C1027     1.0  0.70352  0.52162  0.12208  1.0000
  C   C1028     1.0  0.76854  0.51312  0.16900  1.0000
  H   H1801     1.0  0.77914  0.84132  0.84674  1.0000
  H   H1802     1.0  0.83140  0.45246  0.09757  1.0000
  C   C1029     1.0  0.51511  0.85608  0.94150  1.0000
  H   H1803     1.0  0.57491  0.52026  0.13145  1.0000
  H   H1804     1.0  0.72250  0.75648  0.04742  1.0000
  C   C1030     1.0  0.74179  0.93834  0.88741  1.0000
  H   H1805     1.0  0.97882  0.59343  0.10323  1.0000
  H   H1806     1.0  0.59725  0.72425  0.92073  1.0000
  C   C1031     1.0  0.83503  0.69719  0.80297  1.0000
  H   H1807     1.0  0.80679  0.82046  0.78397  1.0000
  Fe  Fe113     1.0  0.92974  0.46740  0.82487  1.0000
  H   H1808     1.0  0.95351  0.64871  0.76076  1.0000
  H   H1809     1.0  0.62588  0.89288  0.84652  1.0000
  C   C1032     1.0  0.63982  0.49403  0.78052  1.0000
  C   C1033     1.0  0.81674  0.77968  0.17833  1.0000
  C   C1034     1.0  0.79548  0.92030  0.21839  1.0000
  H   H1810     1.0  0.73437  0.49639  0.83647  1.0000
  C   C1035     1.0  0.71041  0.82022  0.84683  1.0000
  C   C1036     1.0  0.54152  0.85099  0.14646  1.0000
  H   H1811     1.0  0.90581  0.67237  0.90524  1.0000
  C   C1037     1.0  0.87307  0.49439  0.82170  1.0000
  H   H1812     1.0  0.90459  0.85549  0.18410  1.0000
  H   H1813     1.0  0.70608  0.45362  0.87890  1.0000
  H   H1814     1.0  0.68691  0.59150  0.00265  1.0000
  H   H1815     1.0  0.58968  0.93390  0.88100  1.0000
  H   H1816     1.0  0.87498  0.67223  0.95659  1.0000
  H   H1817     1.0  0.81970  0.49486  0.05446  1.0000
  H   H1818     1.0  0.60785  0.67449  0.92107  1.0000
  C   C1038     1.0  0.92499  0.56313  0.19163  1.0000
  C   C1039     1.0  0.83982  0.87355  0.77040  1.0000
  N   N59       1.0  0.90850  0.77937  0.89818  1.0000
  C   C1040     1.0  0.84655  0.50370  0.05504  1.0000
  C   C1041     1.0  0.73754  0.84159  0.73668  1.0000
  C   C1042     1.0  0.70471  0.57751  0.08342  1.0000
  H   H1819     1.0  0.86509  0.52447  0.01966  1.0000
  H   H1820     1.0  0.92577  0.58139  0.15957  1.0000
  C   C1043     1.0  0.55461  0.69655  0.17576  1.0000
  H   H1821     1.0  0.77135  0.58019  0.80679  1.0000
  H   H1822     1.0  0.64560  0.60622  0.11376  1.0000
  H   H1823     1.0  0.88615  0.71308  0.87653  1.0000
  S   S228      1.0  0.61644  0.64724  0.14079  1.0000
  H   H1824     1.0  0.62594  0.75400  0.76347  1.0000
  H   H1825     1.0  0.92112  0.69409  0.94660  1.0000
  S   S229      1.0  0.81381  0.87179  0.00330  1.0000
  H   H1826     1.0  0.55561  0.67046  0.01531  1.0000
  H   H1827     1.0  0.75718  0.77634  0.83012  1.0000
  N   N60       1.0  0.87649  0.80184  0.19068  1.0000
  C   C1044     1.0  0.62963  0.90203  0.87797  1.0000
  H   H1828     1.0  0.56840  0.54269  0.78171  1.0000
  C   C1045     1.0  0.95628  0.53016  0.21113  1.0000
  H   H1829     1.0  0.63797  0.44694  0.77054  1.0000
  H   H1830     1.0  0.87179  0.74122  0.02582  1.0000
  C   C1046     1.0  0.59188  0.54226  0.14096  1.0000
  H   H1831     1.0  0.77454  0.86807  0.80015  1.0000
  H   H1832     1.0  0.52997  0.68629  0.16829  1.0000
  C   C1047     1.0  0.67864  0.47858  0.84803  1.0000
  C   C1048     1.0  0.84932  0.51963  0.09581  1.0000
  S   S230      1.0  0.79120  0.75018  0.92941  1.0000
  H   H1833     1.0  0.65558  0.81517  0.91981  1.0000
  H   H1834     1.0  0.80991  0.69762  0.81386  1.0000
  C   C1049     1.0  0.98459  0.59250  0.19245  1.0000
  H   H1835     1.0  0.83098  0.60601  0.81361  1.0000
  H   H1836     1.0  0.53443  0.65557  0.88889  1.0000
  H   H1837     1.0  0.61334  0.57038  0.74175  1.0000
  H   H1838     1.0  0.69026  0.85947  0.89678  1.0000
  H   H1839     1.0  0.58895  0.65556  0.73559  1.0000
  H   H1840     1.0  0.93294  0.79118  0.97114  1.0000
  C   C1050     1.0  0.85189  0.50892  0.83514  1.0000
  H   H1841     1.0  0.63737  0.70526  0.76365  1.0000
  H   H1842     1.0  0.94718  0.92231  0.03204  1.0000
  H   H1843     1.0  0.89274  0.47550  0.94747  1.0000
  S   S231      1.0  0.98837  0.47948  0.12843  1.0000
  H   H1844     1.0  0.63455  0.69581  0.02411  1.0000
  C   C1051     1.0  0.95468  0.63126  0.04148  1.0000
  H   H1845     1.0  0.70573  0.60589  0.15798  1.0000
  H   H1846     1.0  0.85808  0.75114  0.18420  1.0000
  H   H1847     1.0  0.86642  0.78049  0.94985  1.0000
  H   H1848     1.0  0.78974  0.87196  0.20963  1.0000
  H   H1849     1.0  0.72738  0.69345  0.16075  1.0000
  C   C1052     1.0  0.82522  0.50463  0.81619  1.0000
  C   C1053     1.0  0.61201  0.74315  0.84185  1.0000
  H   H1850     1.0  0.68438  0.64980  0.13733  1.0000
  C   C1054     1.0  0.79289  0.79267  0.16366  1.0000
  H   H1851     1.0  0.83911  0.89816  0.76312  1.0000
  C   C1055     1.0  0.60760  0.78526  0.07061  1.0000
  H   H1852     1.0  0.80400  0.84961  0.73618  1.0000
  H   H1853     1.0  0.71247  0.51990  0.89835  1.0000
  H   H1854     1.0  0.71320  0.84325  0.74917  1.0000
  C   C1056     1.0  0.79372  0.91905  0.87314  1.0000
  C   C1057     1.0  0.96602  0.83870  0.86303  1.0000
  Fe  Fe114     1.0  0.79970  0.58023  0.21162  1.0000
  H   H1855     1.0  0.70877  0.66737  0.95571  1.0000
  C   C1058     1.0  0.57866  0.73570  0.14621  1.0000
  C   C1059     1.0  0.93571  0.84913  0.12336  1.0000
  H   H1856     1.0  0.00866  0.52699  0.81371  1.0000
  C   C1060     1.0  0.89556  0.79415  0.93480  1.0000
  H   H1857     1.0  0.68419  0.80105  0.84895  1.0000
  H   H1858     1.0  0.62048  0.88591  0.21642  1.0000
  H   H1859     1.0  0.63482  0.53238  0.12753  1.0000
  H   H1860     1.0  0.81721  0.46427  0.00321  1.0000
  H   H1861     1.0  0.75291  0.87841  0.20930  1.0000
  C   C1061     1.0  0.52238  0.73174  0.01974  1.0000
  H   H1862     1.0  0.89398  0.51414  0.17978  1.0000
  H   H1863     1.0  0.83616  0.50716  0.22045  1.0000
  H   H1864     1.0  0.89725  0.76508  0.83584  1.0000
  C   C1062     1.0  0.73384  0.80949  0.77283  1.0000
  C   C1063     1.0  0.98200  0.69392  0.05958  1.0000
  S   S232      1.0  0.52832  0.45617  0.75833  1.0000
  C   C1064     1.0  0.79932  0.71407  0.00743  1.0000
  C   C1065     1.0  0.83798  0.61972  0.73433  1.0000
  H   H1865     1.0  0.88434  0.46491  0.77818  1.0000
  C   C1066     1.0  0.54309  0.64213  0.03248  1.0000
  N   N61       1.0  0.95948  0.56307  0.18066  1.0000
  H   H1866     1.0  0.51722  0.84990  0.90690  1.0000
  H   H1867     1.0  0.86164  0.87636  0.73996  1.0000
  H   H1868     1.0  0.91122  0.74229  0.95371  1.0000
  C   C1067     1.0  0.85972  0.53274  0.20889  1.0000
  H   H1869     1.0  0.84465  0.86766  0.80539  1.0000
  H   H1870     1.0  0.92284  0.85318  0.09703  1.0000
  C   C1068     1.0  0.71198  0.65572  0.12371  1.0000
  H   H1871     1.0  0.87904  0.83168  0.77246  1.0000
  H   H1872     1.0  0.52473  0.84130  0.96287  1.0000
  H   H1873     1.0  0.63360  0.55767  0.07404  1.0000
  H   H1874     1.0  0.63569  0.76557  0.99402  1.0000
  H   H1875     1.0  0.71032  0.52013  0.75619  1.0000
  S   S233      1.0  0.77158  0.60749  0.18696  1.0000
  H   H1876     1.0  0.60373  0.91146  0.77389  1.0000
  S   S234      1.0  0.76505  0.81561  0.96141  1.0000
  H   H1877     1.0  0.76355  0.50381  0.10165  1.0000
  H   H1878     1.0  0.71565  0.65061  0.19651  1.0000
  H   H1879     1.0  0.54186  0.80634  0.89830  1.0000
  H   H1880     1.0  0.64099  0.50697  0.80873  1.0000
  H   H1881     1.0  0.89416  0.78358  0.13312  1.0000
  C   C1069     1.0  0.69397  0.75833  0.11526  1.0000
  Fe  Fe115     1.0  0.59945  0.61529  0.21928  1.0000
  C   C1070     1.0  0.67650  0.70792  0.08945  1.0000
  C   C1071     1.0  0.73600  0.78062  0.85017  1.0000
  H   H1882     1.0  0.99588  0.78982  0.12885  1.0000
  H   H1883     1.0  0.66047  0.75164  0.18589  1.0000
  C   C1072     1.0  0.85402  0.80992  0.16525  1.0000
  C   C1073     1.0  0.54042  0.80946  0.86081  1.0000
  H   H1884     1.0  0.98273  0.57222  0.02771  1.0000
  C   C1074     1.0  0.80310  0.68684  0.03225  1.0000
  H   H1885     1.0  0.72594  0.67665  0.08739  1.0000
  H   H1886     1.0  0.56558  0.74962  0.16127  1.0000
  C   C1075     1.0  0.68609  0.61508  0.00590  1.0000
  H   H1887     1.0  0.59055  0.79535  0.08730  1.0000
  H   H1888     1.0  0.64435  0.89123  0.89418  1.0000
  C   C1076     1.0  0.57598  0.87245  0.11403  1.0000
  H   H1889     1.0  0.70013  0.79571  0.92473  1.0000
  H   H1890     1.0  0.85606  0.52341  0.86022  1.0000
  H   H1891     1.0  0.69922  0.74097  0.82848  1.0000
  C   C1077     1.0  0.70007  0.74229  0.08103  1.0000
  H   H1892     1.0  0.97308  0.59075  0.23115  1.0000
  C   C1078     1.0  0.66509  0.73940  0.15914  1.0000
  C   C1079     1.0  0.88987  0.77773  0.86163  1.0000
  H   H1893     1.0  0.75182  0.80122  0.75409  1.0000
  H   H1894     1.0  0.93360  0.49401  0.99262  1.0000
  C   C1080     1.0  0.56306  0.84319  0.05508  1.0000
  H   H1895     1.0  0.89735  0.93309  0.76149  1.0000
  H   H1896     1.0  0.67850  0.54472  0.16217  1.0000
  C   C1081     1.0  0.70177  0.74703  0.86239  1.0000
  C   C1082     1.0  0.70301  0.62919  0.04228  1.0000
  H   H1897     1.0  0.80508  0.68471  0.06832  1.0000
  H   H1898     1.0  0.69337  0.93239  0.76780  1.0000
  C   C1083     1.0  0.64549  0.72270  0.99955  1.0000
  H   H1899     1.0  0.52271  0.74786  0.98589  1.0000
  H   H1900     1.0  0.53611  0.75289  0.83740  1.0000
  H   H1901     1.0  0.68413  0.85528  0.06355  1.0000
  C   C1084     1.0  0.98793  0.65809  0.01111  1.0000
  H   H1902     1.0  0.83991  0.68836  0.83689  1.0000
  H   H1903     1.0  0.74228  0.63104  0.10250  1.0000
  S   S235      1.0  0.78776  0.48256  0.75837  1.0000
  H   H1904     1.0  0.58291  0.46736  0.80743  1.0000
  H   H1905     1.0  0.75988  0.86584  0.73375  1.0000
  H   H1906     1.0  0.68093  0.69594  0.06226  1.0000
  H   H1907     1.0  0.96406  0.52613  0.04118  1.0000
  H   H1908     1.0  0.92399  0.82658  0.80077  1.0000
  C   C1085     1.0  0.68177  0.83272  0.91952  1.0000
  Fe  Fe116     1.0  0.84536  0.84443  0.00194  1.0000
  S   S236      1.0  0.51910  0.92525  0.19596  1.0000
  S   S237      1.0  0.82669  0.90790  0.86355  1.0000
  H   H1909     1.0  0.65973  0.85304  0.02280  1.0000
  H   H1910     1.0  0.77986  0.54889  0.84076  1.0000
  C   C1086     1.0  0.99595  0.62934  0.15937  1.0000
  C   C1087     1.0  0.78747  0.56711  0.80374  1.0000
  H   H1911     1.0  0.59987  0.89927  0.94820  1.0000
  C   C1088     1.0  0.92231  0.91963  0.05213  1.0000
  H   H1912     1.0  0.57146  0.83994  0.02000  1.0000
  H   H1913     1.0  0.78837  0.80850  0.18588  1.0000
  C   C1089     1.0  0.59453  0.89041  0.91715  1.0000
  H   H1914     1.0  0.98285  0.88057  0.13622  1.0000
  S   S238      1.0  0.90628  0.49985  0.84532  1.0000
  C   C1090     1.0  0.70826  0.82147  0.89922  1.0000
  Fe  Fe117     1.0  0.81441  0.62928  0.11339  1.0000
  C   C1091     1.0  0.70482  0.64178  0.95415  1.0000
  H   H1915     1.0  0.51227  0.62432  0.77682  1.0000
  C   C1092     1.0  0.91019  0.83468  0.17733  1.0000
  H   H1916     1.0  0.56476  0.81273  0.83536  1.0000
  H   H1917     1.0  0.68373  0.47632  0.94108  1.0000
  H   H1918     1.0  0.74049  0.78286  0.88505  1.0000
  C   C1093     1.0  0.65767  0.84266  0.06135  1.0000
  H   H1919     1.0  0.95347  0.52564  0.90292  1.0000
  Fe  Fe118     1.0  0.87102  0.64456  0.15868  1.0000
  H   H1920     1.0  0.93687  0.50718  0.20617  1.0000
  H   H1921     1.0  0.67645  0.69272  0.90515  1.0000
  H   H1922     1.0  0.88838  0.71437  0.18490  1.0000
  C   C1094     1.0  0.70151  0.71650  0.89576  1.0000
  S   S239      1.0  0.79918  0.79155  0.03835  1.0000
  S   S240      1.0  0.60635  0.77921  0.84176  1.0000
  Fe  Fe119     1.0  0.80834  0.65194  0.20423  1.0000
  C   C1095     1.0  0.64190  0.70469  0.16808  1.0000
  H   H1923     1.0  0.95924  0.56747  0.76035  1.0000
  H   H1924     1.0  0.87682  0.47998  0.07678  1.0000
  H   H1925     1.0  0.67195  0.73893  0.99961  1.0000
  H   H1926     1.0  0.54936  0.65947  0.82510  1.0000
  H   H1927     1.0  0.91792  0.82027  0.98291  1.0000
  C   C1096     1.0  0.79688  0.69201  0.93953  1.0000
  H   H1928     1.0  0.66268  0.79846  0.05473  1.0000
  C   C1097     1.0  0.62893  0.70952  0.79789  1.0000
  H   H1929     1.0  0.71449  0.84561  0.82524  1.0000
  C   C1098     1.0  0.82447  0.44393  0.01388  1.0000
  H   H1930     1.0  0.67933  0.50473  0.11667  1.0000
  C   C1099     1.0  0.77385  0.84275  0.81167  1.0000
  C   C1100     1.0  0.90529  0.72100  0.89547  1.0000
  C   C1101     1.0  0.82625  0.59326  0.78568  1.0000
  C   C1102     1.0  0.88656  0.48704  0.97575  1.0000
  H   H1931     1.0  0.83881  0.93899  0.02291  1.0000
  H   H1932     1.0  0.98121  0.52957  0.19810  1.0000
  H   H1933     1.0  0.94566  0.83136  0.11537  1.0000
  H   H1934     1.0  0.61363  0.79493  0.03035  1.0000
  C   C1103     1.0  0.95538  0.54148  0.10582  1.0000
  C   C1104     1.0  0.81983  0.48593  0.78379  1.0000
  C   C1105     1.0  0.97561  0.56903  0.12663  1.0000
  H   H1935     1.0  0.51582  0.68831  0.80595  1.0000
  H   H1936     1.0  0.57791  0.75980  0.99834  1.0000
  H   H1937     1.0  0.87656  0.53141  0.09517  1.0000
  C   C1106     1.0  0.76688  0.49900  0.21668  1.0000
  H   H1938     1.0  0.51152  0.89416  0.00125  1.0000
  C   C1107     1.0  0.84061  0.47091  0.77111  1.0000
  N   N62       1.0  0.67688  0.46677  0.80404  1.0000
  H   H1939     1.0  0.80064  0.64545  0.94784  1.0000
  H   H1940     1.0  0.70725  0.78853  0.77977  1.0000
  H   H1941     1.0  0.91030  0.61452  0.10618  1.0000
  H   H1942     1.0  0.80887  0.93364  0.17801  1.0000
  H   H1943     1.0  0.78243  0.91131  0.10818  1.0000
  H   H1944     1.0  0.64757  0.72200  0.96188  1.0000
  H   H1945     1.0  0.54549  0.88440  0.99941  1.0000
  C   C1108     1.0  0.88309  0.77505  0.17404  1.0000
  S   S241      1.0  0.95614  0.45175  0.87223  1.0000
  H   H1946     1.0  0.80861  0.51552  0.82690  1.0000
  C   C1109     1.0  0.53814  0.90127  0.97734  1.0000
  C   C1110     1.0  0.61047  0.73120  0.07120  1.0000
  H   H1947     1.0  0.61343  0.88518  0.04308  1.0000
  H   H1948     1.0  0.89264  0.82896  0.84860  1.0000
  Fe  Fe120     1.0  0.99810  0.46583  0.80137  1.0000
  H   H1949     1.0  0.58049  0.86186  0.93033  1.0000
  H   H1950     1.0  0.52486  0.47303  0.21162  1.0000
  H   H1951     1.0  0.92561  0.74953  0.13361  1.0000
  C   C1111     1.0  0.52109  0.68729  0.84075  1.0000
  C   C1112     1.0  0.75190  0.44408  0.20334  1.0000
  C   C1113     1.0  0.89683  0.81246  0.82771  1.0000
  H   H1952     1.0  0.00237  0.57218  0.11876  1.0000
  C   C1114     1.0  0.79601  0.71654  0.96120  1.0000
  H   H1953     1.0  0.80470  0.80849  0.12417  1.0000
  H   H1954     1.0  0.84171  0.54009  0.09013  1.0000
  H   H1955     1.0  0.53910  0.83333  0.84687  1.0000
  S   S242      1.0  0.92803  0.67067  0.14515  1.0000
  S   S243      1.0  0.89252  0.86347  0.02372  1.0000
  H   H1956     1.0  0.68369  0.92804  0.18555  1.0000
  H   H1957     1.0  0.52414  0.56156  0.77358  1.0000
  C   C1115     1.0  0.90946  0.79453  0.97836  1.0000
  H   H1958     1.0  0.92486  0.83140  0.20165  1.0000
  H   H1959     1.0  0.95468  0.79552  0.83568  1.0000
  H   H1960     1.0  0.84482  0.79406  0.82301  1.0000
  H   H1961     1.0  0.64057  0.84934  0.08599  1.0000
  H   H1962     1.0  0.54876  0.63644  0.06683  1.0000
  C   C1116     1.0  0.92187  0.50990  0.98033  1.0000
  C   C1117     1.0  0.62419  0.68721  0.84218  1.0000
  H   H1963     1.0  0.99913  0.49609  0.96803  1.0000
  H   H1964     1.0  0.94769  0.51522  0.12854  1.0000
  C   C1118     1.0  0.70863  0.47959  0.86622  1.0000
  H   H1965     1.0  0.65002  0.57989  0.16141  1.0000
  C   C1119     1.0  0.80545  0.84462  0.77363  1.0000
  Fe  Fe121     1.0  0.76765  0.81874  0.03510  1.0000
  C   C1120     1.0  0.90664  0.76421  0.19579  1.0000
  H   H1966     1.0  0.61932  0.69037  0.20152  1.0000
  H   H1967     1.0  0.92041  0.57325  0.22246  1.0000
  H   H1968     1.0  0.93742  0.55445  0.91726  1.0000
  H   H1969     1.0  0.97306  0.63168  0.15549  1.0000
  S   S244      1.0  0.84930  0.84280  0.92582  1.0000
  C   C1121     1.0  0.89789  0.74271  0.92655  1.0000
  C   C1122     1.0  0.52865  0.82160  0.08780  1.0000
  C   C1123     1.0  0.97773  0.54784  0.05367  1.0000
  H   H1970     1.0  0.73380  0.84044  0.89877  1.0000
  H   H1971     1.0  0.81802  0.76153  0.15853  1.0000
  H   H1972     1.0  0.97275  0.55388  0.93530  1.0000
  C   C1124     1.0  0.89129  0.89252  0.05452  1.0000
  H   H1973     1.0  0.93171  0.54278  0.10359  1.0000
  H   H1974     1.0  0.89322  0.76907  0.05689  1.0000
  H   H1975     1.0  0.54927  0.60100  0.78125  1.0000
  H   H1976     1.0  0.73186  0.64324  0.02350  1.0000
  H   H1977     1.0  0.53274  0.85449  0.18124  1.0000
  H   H1978     1.0  0.00302  0.54932  0.05306  1.0000
  H   H1979     1.0  0.59852  0.72444  0.00558  1.0000
  C   C1125     1.0  0.86752  0.47546  0.78960  1.0000
  C   C1126     1.0  0.83297  0.67277  0.77327  1.0000
  H   H1980     1.0  0.85214  0.83261  0.17171  1.0000
  H   H1981     1.0  0.59437  0.58337  0.78930  1.0000
  C   C1127     1.0  0.76860  0.90681  0.92014  1.0000
  H   H1982     1.0  0.95314  0.85159  0.84629  1.0000
  H   H1983     1.0  0.83520  0.86785  0.08384  1.0000
  H   H1984     1.0  0.84115  0.57892  0.78338  1.0000
  H   H1985     1.0  0.54581  0.71076  0.83321  1.0000
  Fe  Fe122     1.0  0.80001  0.79227  0.96216  1.0000
  C   C1128     1.0  0.94790  0.53760  0.93088  1.0000
  C   C1129     1.0  0.63009  0.55399  0.11329  1.0000
  H   H1986     1.0  0.69546  0.64915  0.04708  1.0000
  H   H1987     1.0  0.55466  0.63204  0.00620  1.0000
  H   H1988     1.0  0.99365  0.50307  0.90908  1.0000
  C   C1130     1.0  0.70868  0.49328  0.90946  1.0000
  H   H1989     1.0  0.83338  0.91146  0.12105  1.0000
  Fe  Fe123     1.0  0.68290  0.67325  0.77492  1.0000
  H   H1990     1.0  0.82379  0.67973  0.74343  1.0000
  Fe  Fe124     1.0  0.61622  0.81197  0.76600  1.0000
  H   H1991     1.0  0.76727  0.77045  0.17002  1.0000
  H   H1992     1.0  0.86646  0.81811  0.12463  1.0000
  H   H1993     1.0  0.72662  0.52930  0.08942  1.0000
  H   H1994     1.0  0.87711  0.50406  0.95901  1.0000
  C   C1131     1.0  0.94770  0.79927  0.87201  1.0000
  H   H1995     1.0  0.90253  0.82116  0.91654  1.0000
  C   C1132     1.0  0.94956  0.66659  0.09151  1.0000
  C   C1133     1.0  0.64298  0.46105  0.79721  1.0000
  S   S245      1.0  0.97344  0.48525  0.75435  1.0000
  H   H1996     1.0  0.79847  0.73273  0.02448  1.0000
  H   H1997     1.0  0.99279  0.71803  0.06676  1.0000
  H   H1998     1.0  0.95903  0.90264  0.12141  1.0000
  C   C1134     1.0  0.61167  0.69184  0.88672  1.0000
  N   N63       1.0  0.73848  0.81328  0.82043  1.0000
  C   C1135     1.0  0.55469  0.73221  0.07989  1.0000
  C   C1136     1.0  0.85389  0.47286  0.06460  1.0000
  S   S246      1.0  0.63582  0.86908  0.74710  1.0000
  H   H1999     1.0  0.58618  0.53344  0.18125  1.0000
  S   S247      1.0  0.60551  0.90330  0.13167  1.0000
  C   C1137     1.0  0.59804  0.93086  0.75675  1.0000
  H   H2000     1.0  0.93222  0.78675  0.18791  1.0000
  H   H2001     1.0  0.88900  0.70151  0.73380  1.0000
  C   C1138     1.0  0.54437  0.58889  0.75258  1.0000
  H   H2002     1.0  0.51457  0.50775  0.20225  1.0000
  H   H2003     1.0  0.62055  0.44381  0.83220  1.0000
  H   H2004     1.0  0.84193  0.44735  0.93622  1.0000
  H   H2005     1.0  0.78357  0.92813  0.02239  1.0000
  C   C1139     1.0  0.51293  0.74595  0.86925  1.0000
  H   H2006     1.0  0.93102  0.73199  0.18943  1.0000
  C   C1140     1.0  0.77857  0.93351  0.09384  1.0000
  C   C1141     1.0  0.77299  0.88208  0.22666  1.0000
  H   H2007     1.0  0.80396  0.76495  0.21811  1.0000
  H   H2008     1.0  0.60338  0.47284  0.74365  1.0000
  H   H2009     1.0  0.00597  0.85380  0.79209  1.0000
  C   C1142     1.0  0.54500  0.68968  0.23130  1.0000
  H   H2010     1.0  0.75877  0.93865  0.21426  1.0000
  H   H2011     1.0  0.66076  0.51276  0.74507  1.0000
  H   H2012     1.0  0.00842  0.47294  0.92884  1.0000
  H   H2013     1.0  0.56102  0.67420  0.73181  1.0000
  H   H2014     1.0  0.81611  0.62481  0.73330  1.0000
  H   H2015     1.0  0.59736  0.91882  0.23060  1.0000
  H   H2016     1.0  0.90575  0.86943  0.43969  1.0000
  H   H2017     1.0  0.60246  0.71089  0.64234  1.0000
  H   H2018     1.0  0.76296  0.81925  0.39823  1.0000
  H   H2019     1.0  0.51723  0.44959  0.48830  1.0000
  S   S248      1.0  0.64507  0.64585  0.35228  1.0000
  H   H2020     1.0  0.76414  0.62204  0.37977  1.0000
  C   C1143     1.0  0.55394  0.44553  0.27677  1.0000
  H   H2021     1.0  0.73791  0.51331  0.63189  1.0000
  H   H2022     1.0  0.76271  0.89090  0.54852  1.0000
  H   H2023     1.0  0.88310  0.90772  0.40552  1.0000
  C   C1144     1.0  0.93095  0.53109  0.60512  1.0000
  H   H2024     1.0  0.98075  0.56768  0.63174  1.0000
  H   H2025     1.0  0.57060  0.45035  0.24025  1.0000
  C   C1145     1.0  0.50990  0.60676  0.45044  1.0000
  C   C1146     1.0  0.84503  0.55829  0.63198  1.0000
  C   C1147     1.0  0.56862  0.80736  0.25416  1.0000
  H   H2026     1.0  0.94312  0.81347  0.45057  1.0000
  C   C1148     1.0  0.69908  0.60536  0.43653  1.0000
  H   H2027     1.0  0.62639  0.59837  0.61740  1.0000
  H   H2028     1.0  0.88730  0.44415  0.67608  1.0000
  H   H2029     1.0  0.98689  0.66497  0.30524  1.0000
  H   H2030     1.0  0.87724  0.86226  0.58597  1.0000
  H   H2031     1.0  0.94503  0.80021  0.34879  1.0000
  H   H2032     1.0  0.96146  0.90452  0.39545  1.0000
  H   H2033     1.0  0.62356  0.45351  0.45236  1.0000
  H   H2034     1.0  0.52991  0.66144  0.25112  1.0000
  H   H2035     1.0  0.87276  0.73571  0.39989  1.0000
  H   H2036     1.0  0.97038  0.54081  0.27456  1.0000
  S   S249      1.0  0.60400  0.50766  0.27143  1.0000
  C   C1149     1.0  0.91240  0.80542  0.66335  1.0000
  S   S250      1.0  0.99098  0.91722  0.60309  1.0000
  C   C1150     1.0  0.54735  0.72789  0.68073  1.0000
  S   S251      1.0  0.89109  0.62761  0.51185  1.0000
  C   C1151     1.0  0.91989  0.78471  0.38036  1.0000
  H   H2037     1.0  0.60174  0.82153  0.32666  1.0000
  H   H2038     1.0  0.52023  0.59864  0.51910  1.0000
  Fe  Fe125     1.0  0.61349  0.61313  0.31561  1.0000
  C   C1152     1.0  0.77311  0.93620  0.23956  1.0000
  C   C1153     1.0  0.99311  0.59918  0.53068  1.0000
  H   H2039     1.0  0.69817  0.54431  0.29871  1.0000
  H   H2040     1.0  0.72415  0.72797  0.42030  1.0000
  H   H2041     1.0  0.92621  0.53081  0.28138  1.0000
  Fe  Fe126     1.0  0.59365  0.85950  0.71480  1.0000
  H   H2042     1.0  0.70728  0.44316  0.59288  1.0000
  S   S252      1.0  0.60329  0.78592  0.60954  1.0000
  C   C1154     1.0  0.61000  0.69990  0.67188  1.0000
  C   C1155     1.0  0.77025  0.84233  0.41006  1.0000
  C   C1156     1.0  0.83724  0.50808  0.35529  1.0000
  H   H2043     1.0  0.69550  0.77513  0.64054  1.0000
  H   H2044     1.0  0.85642  0.52793  0.31947  1.0000
  H   H2045     1.0  0.80554  0.88636  0.45112  1.0000
  H   H2046     1.0  0.84461  0.91661  0.66572  1.0000
  C   C1157     1.0  0.59594  0.91859  0.48589  1.0000
  C   C1158     1.0  0.56011  0.83405  0.27149  1.0000
  C   C1159     1.0  0.90055  0.46628  0.64128  1.0000
  C   C1160     1.0  0.87378  0.89063  0.38391  1.0000
  C   C1161     1.0  0.51721  0.58409  0.68975  1.0000
  C   C1162     1.0  0.76608  0.61945  0.65682  1.0000
  C   C1163     1.0  0.55034  0.80628  0.37629  1.0000
  H   H2047     1.0  0.81339  0.50278  0.43053  1.0000
  H   H2048     1.0  0.80350  0.76625  0.33440  1.0000
  C   C1164     1.0  0.75632  0.82620  0.56719  1.0000
  H   H2049     1.0  0.97213  0.84740  0.36601  1.0000
  C   C1165     1.0  0.68854  0.65661  0.32405  1.0000
  C   C1166     1.0  0.54263  0.46350  0.34784  1.0000
  H   H2050     1.0  0.64633  0.48657  0.33097  1.0000
  C   C1167     1.0  0.83227  0.52448  0.39587  1.0000
  H   H2051     1.0  0.89054  0.76234  0.33554  1.0000
  S   S253      1.0  0.72241  0.91075  0.62127  1.0000
  H   H2052     1.0  0.98648  0.88548  0.41240  1.0000
  H   H2053     1.0  0.92510  0.77466  0.41317  1.0000
  H   H2054     1.0  0.51667  0.54616  0.46586  1.0000
  H   H2055     1.0  0.79662  0.59384  0.66302  1.0000
  C   C1168     1.0  0.51825  0.82464  0.60417  1.0000
  H   H2056     1.0  0.83653  0.59973  0.33241  1.0000
  C   C1169     1.0  0.81787  0.92561  0.51343  1.0000
  H   H2057     1.0  0.89060  0.54930  0.67272  1.0000
  H   H2058     1.0  0.60467  0.93595  0.54630  1.0000
  H   H2059     1.0  0.84686  0.57701  0.42949  1.0000
  H   H2060     1.0  0.63360  0.73961  0.31426  1.0000
  H   H2061     1.0  0.83065  0.50305  0.55529  1.0000
  H   H2062     1.0  0.00450  0.77982  0.59300  1.0000
  H   H2063     1.0  0.77092  0.72147  0.29410  1.0000
  C   C1170     1.0  0.55946  0.64147  0.68552  1.0000
  S   S254      1.0  0.83262  0.62268  0.23521  1.0000
  Fe  Fe127     1.0  0.95339  0.71542  0.40773  1.0000
  H   H2064     1.0  0.00356  0.51055  0.64046  1.0000
  H   H2065     1.0  0.71182  0.46536  0.70888  1.0000
  N   N64       1.0  0.52645  0.64546  0.42875  1.0000
  H   H2066     1.0  0.65502  0.57618  0.39116  1.0000
  H   H2067     1.0  0.72206  0.93756  0.31126  1.0000
  H   H2068     1.0  0.84021  0.60648  0.70670  1.0000
  S   S255      1.0  0.82307  0.65704  0.49094  1.0000
  C   C1171     1.0  0.62130  0.87502  0.25292  1.0000
  H   H2069     1.0  0.92406  0.46614  0.61915  1.0000
  C   C1172     1.0  0.81357  0.66607  0.36455  1.0000
  S   S256      1.0  0.76749  0.70607  0.66365  1.0000
  H   H2070     1.0  0.81683  0.93268  0.47594  1.0000
  H   H2071     1.0  0.84691  0.86959  0.40582  1.0000
  C   C1173     1.0  0.70130  0.67257  0.45239  1.0000
  C   C1174     1.0  0.77415  0.64909  0.57342  1.0000
  Fe  Fe128     1.0  0.66867  0.87327  0.67372  1.0000
  C   C1175     1.0  0.99767  0.80196  0.41784  1.0000
  H   H2072     1.0  0.72931  0.52362  0.35042  1.0000
  S   S257      1.0  0.99276  0.76690  0.35000  1.0000
  C   C1176     1.0  0.63500  0.62525  0.59990  1.0000
  C   C1177     1.0  0.57884  0.66683  0.71033  1.0000
  C   C1178     1.0  0.88348  0.59730  0.32885  1.0000
  H   H2073     1.0  0.76866  0.84052  0.67005  1.0000
  C   C1179     1.0  0.57364  0.88071  0.30656  1.0000
  C   C1180     1.0  0.78113  0.86471  0.48023  1.0000
  C   C1181     1.0  0.57800  0.58825  0.72564  1.0000
  C   C1182     1.0  0.88208  0.67312  0.66685  1.0000
  H   H2074     1.0  0.82524  0.54860  0.61450  1.0000
  H   H2075     1.0  0.71445  0.83063  0.54371  1.0000
  H   H2076     1.0  0.52854  0.70121  0.24396  1.0000
  H   H2077     1.0  0.79426  0.91413  0.31768  1.0000
  S   S258      1.0  0.79877  0.78009  0.71928  1.0000
  H   H2078     1.0  0.90091  0.61390  0.24842  1.0000
  H   H2079     1.0  0.93006  0.58015  0.70503  1.0000
  S   S259      1.0  0.55808  0.56013  0.25027  1.0000
  H   H2080     1.0  0.70266  0.66883  0.41641  1.0000
  H   H2081     1.0  0.72503  0.57322  0.59520  1.0000
  C   C1183     1.0  0.99973  0.69195  0.55234  1.0000
  S   S260      1.0  0.55818  0.88296  0.72123  1.0000
  H   H2082     1.0  0.61407  0.56126  0.43814  1.0000
  H   H2083     1.0  0.88644  0.49861  0.67461  1.0000
  H   H2084     1.0  0.73766  0.64540  0.63844  1.0000
  H   H2085     1.0  0.56045  0.65207  0.50088  1.0000
  C   C1184     1.0  0.88752  0.49199  0.47166  1.0000
  H   H2086     1.0  0.71892  0.65613  0.51096  1.0000
  C   C1185     1.0  0.75714  0.63831  0.62436  1.0000
  S   S261      1.0  0.71118  0.71759  0.58921  1.0000
  H   H2087     1.0  0.93293  0.63730  0.27293  1.0000
  H   H2088     1.0  0.65171  0.89507  0.29882  1.0000
  H   H2089     1.0  0.56443  0.64398  0.37062  1.0000
  H   H2090     1.0  0.71685  0.53449  0.24674  1.0000
  H   H2091     1.0  0.96452  0.83447  0.25139  1.0000
  H   H2092     1.0  0.98460  0.75205  0.56058  1.0000
  S   S262      1.0  0.68439  0.64674  0.71867  1.0000
  S   S263      1.0  0.97162  0.67991  0.43940  1.0000
  Fe  Fe129     1.0  0.77783  0.44550  0.71624  1.0000
  H   H2093     1.0  0.66512  0.78434  0.61881  1.0000
  H   H2094     1.0  0.85716  0.53581  0.40284  1.0000
  H   H2095     1.0  0.74455  0.81184  0.48641  1.0000
  H   H2096     1.0  0.71580  0.55018  0.37791  1.0000
  Fe  Fe130     1.0  0.71591  0.69977  0.66216  1.0000
  H   H2097     1.0  0.95601  0.53150  0.58890  1.0000
  H   H2098     1.0  0.56884  0.70032  0.24095  1.0000
  Fe  Fe131     1.0  0.75938  0.72826  0.72330  1.0000
  C   C1186     1.0  0.67548  0.68553  0.58230  1.0000
  H   H2099     1.0  0.88737  0.65813  0.64337  1.0000
  H   H2100     1.0  0.00394  0.66483  0.61695  1.0000
  H   H2101     1.0  0.76303  0.92598  0.34343  1.0000
  H   H2102     1.0  0.78712  0.88482  0.58458  1.0000
  H   H2103     1.0  0.75813  0.45354  0.27005  1.0000
  H   H2104     1.0  0.67512  0.67008  0.46817  1.0000
  C   C1187     1.0  0.98824  0.85890  0.23860  1.0000
  H   H2105     1.0  0.77949  0.57745  0.34712  1.0000
  S   S264      1.0  0.83174  0.43996  0.54986  1.0000
  H   H2106     1.0  0.92555  0.53798  0.71306  1.0000
  C   C1188     1.0  0.84396  0.57907  0.33689  1.0000
  C   C1189     1.0  0.85277  0.50949  0.52375  1.0000
  H   H2107     1.0  0.67744  0.53732  0.25391  1.0000
  H   H2108     1.0  0.60036  0.85130  0.35625  1.0000
  C   C1190     1.0  0.75615  0.65174  0.42742  1.0000
  H   H2109     1.0  0.60129  0.44045  0.32968  1.0000
  H   H2110     1.0  0.88611  0.51083  0.24300  1.0000
  H   H2111     1.0  0.51688  0.68119  0.38192  1.0000
  H   H2112     1.0  0.89331  0.71923  0.57940  1.0000
  H   H2113     1.0  0.83023  0.73665  0.70860  1.0000
  H   H2114     1.0  0.66657  0.72208  0.53676  1.0000
  H   H2115     1.0  0.99285  0.57591  0.52374  1.0000
  C   C1191     1.0  0.58196  0.69774  0.36130  1.0000
  C   C1192     1.0  0.56426  0.46966  0.30075  1.0000
  H   H2116     1.0  0.77612  0.54367  0.55184  1.0000
  H   H2117     1.0  0.89390  0.75139  0.23634  1.0000
  H   H2118     1.0  0.60455  0.46092  0.64153  1.0000
  H   H2119     1.0  0.61510  0.67729  0.52793  1.0000
  H   H2120     1.0  0.83810  0.88411  0.57519  1.0000
  H   H2121     1.0  0.95552  0.48020  0.28558  1.0000
  H   H2122     1.0  0.00039  0.83157  0.46750  1.0000
  H   H2123     1.0  0.86878  0.56359  0.49988  1.0000
  C   C1193     1.0  0.54662  0.68576  0.53138  1.0000
  N   N65       1.0  0.87145  0.65286  0.72031  1.0000
  C   C1194     1.0  0.50954  0.55366  0.49863  1.0000
  H   H2124     1.0  0.85635  0.70494  0.66514  1.0000
  Fe  Fe132     1.0  0.51699  0.47996  0.59270  1.0000
  C   C1195     1.0  0.96125  0.57667  0.63912  1.0000
  H   H2125     1.0  0.67815  0.64310  0.62567  1.0000
  C   C1196     1.0  0.62122  0.71207  0.33701  1.0000
  S   S265      1.0  0.65316  0.81752  0.69531  1.0000
  C   C1197     1.0  0.55487  0.78744  0.42096  1.0000
  H   H2126     1.0  0.92738  0.50091  0.67564  1.0000
  H   H2127     1.0  0.52486  0.85135  0.65764  1.0000
  H   H2128     1.0  0.86741  0.79744  0.50240  1.0000
  H   H2129     1.0  0.57906  0.63938  0.65747  1.0000
  H   H2130     1.0  0.51770  0.84433  0.57585  1.0000
  H   H2131     1.0  0.71628  0.83918  0.59984  1.0000
  H   H2132     1.0  0.51916  0.54409  0.52627  1.0000
  H   H2133     1.0  0.91668  0.77997  0.54459  1.0000
  C   C1198     1.0  0.62698  0.45724  0.63053  1.0000
  C   C1199     1.0  0.88963  0.79217  0.49756  1.0000
  C   C1200     1.0  0.85621  0.68369  0.65206  1.0000
  H   H2134     1.0  0.87687  0.49685  0.37187  1.0000
  H   H2135     1.0  0.52130  0.68493  0.45605  1.0000
  H   H2136     1.0  0.92440  0.89775  0.34748  1.0000
  C   C1201     1.0  0.91071  0.49978  0.65299  1.0000
  C   C1202     1.0  0.82615  0.79220  0.32477  1.0000
  S   S266      1.0  0.59614  0.52624  0.63120  1.0000
  H   H2137     1.0  0.75464  0.66974  0.39762  1.0000
  H   H2138     1.0  0.81215  0.49346  0.35030  1.0000
  C   C1203     1.0  0.66412  0.65060  0.60500  1.0000
  H   H2139     1.0  0.90973  0.59228  0.63284  1.0000
  C   C1204     1.0  0.53725  0.77983  0.24807  1.0000
  H   H2140     1.0  0.99298  0.61980  0.45752  1.0000
  C   C1205     1.0  0.90192  0.80678  0.38932  1.0000
  H   H2141     1.0  0.57382  0.57439  0.69878  1.0000
  H   H2142     1.0  0.95440  0.86840  0.33366  1.0000
  H   H2143     1.0  0.87091  0.76517  0.57633  1.0000
  H   H2144     1.0  0.88242  0.46297  0.62052  1.0000
  H   H2145     1.0  0.55499  0.75975  0.56194  1.0000
  H   H2146     1.0  0.76348  0.52437  0.67076  1.0000
  H   H2147     1.0  0.83254  0.46229  0.40480  1.0000
  H   H2148     1.0  0.53606  0.78653  0.36106  1.0000
  H   H2149     1.0  0.59879  0.89533  0.49753  1.0000
  H   H2150     1.0  0.55813  0.81345  0.61840  1.0000
  C   C1206     1.0  0.86650  0.85786  0.55633  1.0000
  C   C1207     1.0  0.85884  0.78795  0.24604  1.0000
  H   H2151     1.0  0.51630  0.76360  0.28455  1.0000
  H   H2152     1.0  0.69001  0.76908  0.58372  1.0000
  H   H2153     1.0  0.90216  0.80992  0.55776  1.0000
  C   C1208     1.0  0.65898  0.59094  0.45651  1.0000
  H   H2154     1.0  0.62635  0.69773  0.31248  1.0000
  C   C1209     1.0  0.71936  0.82273  0.57786  1.0000
  S   S267      1.0  0.54097  0.45152  0.62687  1.0000
  H   H2155     1.0  0.73452  0.54198  0.66470  1.0000
  H   H2156     1.0  0.82939  0.68020  0.38453  1.0000
  H   H2157     1.0  0.00029  0.93104  0.30961  1.0000
  S   S268      1.0  0.90940  0.67278  0.39744  1.0000
  H   H2158     1.0  0.53290  0.82089  0.29821  1.0000
  H   H2159     1.0  0.75544  0.71418  0.42723  1.0000
  H   H2160     1.0  0.65628  0.93162  0.50389  1.0000
  H   H2161     1.0  0.89302  0.75110  0.68056  1.0000
  S   S269      1.0  0.80139  0.68785  0.24280  1.0000
  C   C1210     1.0  0.65791  0.69509  0.55423  1.0000
  H   H2162     1.0  0.67599  0.60906  0.30890  1.0000
  H   H2163     1.0  0.55954  0.85044  0.23872  1.0000
  C   C1211     1.0  0.75023  0.69709  0.29690  1.0000
  H   H2164     1.0  0.89245  0.47191  0.46313  1.0000
  H   H2165     1.0  0.72186  0.81439  0.68647  1.0000
  H   H2166     1.0  0.92794  0.48362  0.33671  1.0000
  C   C1212     1.0  0.61727  0.63487  0.57217  1.0000
  C   C1213     1.0  0.93692  0.67408  0.70899  1.0000
  Fe  Fe133     1.0  0.53999  0.57211  0.31802  1.0000
  H   H2167     1.0  0.82783  0.65508  0.34401  1.0000
  S   S270      1.0  0.89835  0.93837  0.24637  1.0000
  H   H2168     1.0  0.81663  0.80836  0.34033  1.0000
  S   S271      1.0  0.95420  0.67343  0.57714  1.0000
  C   C1214     1.0  0.86864  0.82367  0.67959  1.0000
  C   C1215     1.0  0.71542  0.68815  0.32034  1.0000
  H   H2169     1.0  0.57652  0.79392  0.28048  1.0000
  C   C1216     1.0  0.78697  0.88928  0.54638  1.0000
  H   H2170     1.0  0.98597  0.55954  0.71414  1.0000
  Fe  Fe134     1.0  0.59440  0.55058  0.28321  1.0000
  C   C1217     1.0  0.64953  0.90451  0.26282  1.0000
  H   H2171     1.0  0.89380  0.57890  0.33129  1.0000
  C   C1218     1.0  0.96176  0.66133  0.72046  1.0000
  H   H2172     1.0  0.54647  0.86624  0.33376  1.0000
  C   C1219     1.0  0.66251  0.46848  0.26985  1.0000
  H   H2173     1.0  0.58021  0.65654  0.41608  1.0000
  H   H2174     1.0  0.78489  0.52462  0.35079  1.0000
  H   H2175     1.0  0.64716  0.57736  0.49668  1.0000
  H   H2176     1.0  0.64027  0.54075  0.44631  1.0000
  H   H2177     1.0  0.54872  0.65463  0.66371  1.0000
  H   H2178     1.0  0.68578  0.48410  0.32487  1.0000
  H   H2179     1.0  0.60517  0.92863  0.44499  1.0000
  C   C1220     1.0  0.90323  0.55248  0.45151  1.0000
  H   H2180     1.0  0.90689  0.69771  0.65488  1.0000
  H   H2181     1.0  0.53893  0.58346  0.66382  1.0000
  H   H2182     1.0  0.63118  0.85671  0.24726  1.0000
  C   C1221     1.0  0.69093  0.78555  0.60713  1.0000
  C   C1222     1.0  0.75888  0.46452  0.23357  1.0000
  C   C1223     1.0  0.85916  0.48345  0.51316  1.0000
  C   C1224     1.0  0.95552  0.59172  0.55862  1.0000
  H   H2183     1.0  0.90103  0.62669  0.70191  1.0000
  H   H2184     1.0  0.57182  0.77612  0.40960  1.0000
  C   C1225     1.0  0.85079  0.48301  0.36902  1.0000
  C   C1226     1.0  0.90955  0.52640  0.44104  1.0000
  H   H2185     1.0  0.51048  0.59542  0.42028  1.0000
  H   H2186     1.0  0.88219  0.76785  0.48888  1.0000
  C   C1227     1.0  0.72826  0.53365  0.38173  1.0000
  C   C1228     1.0  0.57368  0.90710  0.26396  1.0000
  C   C1229     1.0  0.68499  0.44725  0.60334  1.0000
  H   H2187     1.0  0.84784  0.70386  0.58610  1.0000
  C   C1230     1.0  0.94427  0.56584  0.69592  1.0000
  C   C1231     1.0  0.62866  0.66978  0.54956  1.0000
  H   H2188     1.0  0.94040  0.58362  0.53438  1.0000
  Fe  Fe135     1.0  0.98081  0.92904  0.53295  1.0000
  H   H2189     1.0  0.71197  0.51176  0.41690  1.0000
  C   C1232     1.0  0.69657  0.63380  0.30507  1.0000
  H   H2190     1.0  0.76692  0.50858  0.41569  1.0000
  H   H2191     1.0  0.84113  0.87995  0.49033  1.0000
  C   C1233     1.0  0.92332  0.82210  0.45619  1.0000
  Fe  Fe136     1.0  0.59276  0.49721  0.57778  1.0000
  H   H2192     1.0  0.72602  0.71408  0.48042  1.0000
  C   C1234     1.0  0.79399  0.56191  0.51439  1.0000
  C   C1235     1.0  0.79977  0.64050  0.55465  1.0000
  C   C1236     1.0  0.52390  0.66153  0.46876  1.0000
  H   H2193     1.0  0.76000  0.86711  0.26669  1.0000
  H   H2194     1.0  0.84483  0.78960  0.34174  1.0000
  H   H2195     1.0  0.65271  0.61225  0.44875  1.0000
  H   H2196     1.0  0.96244  0.64272  0.70136  1.0000
  Fe  Fe137     1.0  0.54270  0.48224  0.67801  1.0000
  C   C1237     1.0  0.77102  0.83308  0.46221  1.0000
  H   H2197     1.0  0.63341  0.71003  0.36528  1.0000
  H   H2198     1.0  0.52900  0.76612  0.44703  1.0000
  H   H2199     1.0  0.67748  0.62634  0.51429  1.0000
  H   H2200     1.0  0.97661  0.60533  0.62658  1.0000
  C   C1238     1.0  0.56209  0.74971  0.63170  1.0000
  C   C1239     1.0  0.74938  0.92914  0.69179  1.0000
  H   H2201     1.0  0.78974  0.82314  0.46208  1.0000
  C   C1240     1.0  0.73137  0.64283  0.28135  1.0000
  H   H2202     1.0  0.68846  0.47609  0.24310  1.0000
  H   H2203     1.0  0.87442  0.78922  0.41469  1.0000
  S   S272      1.0  0.70981  0.72576  0.71789  1.0000
  H   H2204     1.0  0.76240  0.56388  0.41343  1.0000
  H   H2205     1.0  0.55451  0.45041  0.50171  1.0000
  S   S273      1.0  0.57279  0.55770  0.35431  1.0000
  H   H2206     1.0  0.77172  0.66792  0.44609  1.0000
  C   C1241     1.0  0.51119  0.71326  0.61615  1.0000
  C   C1242     1.0  0.86673  0.69657  0.59617  1.0000
  S   S274      1.0  0.94600  0.88759  0.24342  1.0000
  H   H2207     1.0  0.73085  0.58340  0.48733  1.0000
  S   S275      1.0  0.58046  0.60395  0.56588  1.0000
  H   H2208     1.0  0.81061  0.68453  0.33758  1.0000
  H   H2209     1.0  0.60023  0.61470  0.70574  1.0000
  C   C1243     1.0  0.87460  0.54390  0.49260  1.0000
  S   S276      1.0  0.93025  0.59512  0.41094  1.0000
  C   C1244     1.0  0.72852  0.70935  0.44465  1.0000
  C   C1245     1.0  0.57167  0.93669  0.27952  1.0000
  N   N66       1.0  0.82021  0.55076  0.38567  1.0000
  H   H2210     1.0  0.82574  0.61179  0.57280  1.0000
  H   H2211     1.0  0.86658  0.67597  0.58108  1.0000
  H   H2212     1.0  0.65802  0.45584  0.47489  1.0000
  C   C1246     1.0  0.70434  0.64447  0.48778  1.0000
  Fe  Fe138     1.0  0.87777  0.66555  0.47355  1.0000
  H   H2213     1.0  0.51638  0.88927  0.61179  1.0000
  H   H2214     1.0  0.93356  0.84340  0.47112  1.0000
  C   C1247     1.0  0.67930  0.46800  0.56808  1.0000
  H   H2215     1.0  0.97687  0.77819  0.44548  1.0000
  H   H2216     1.0  0.56842  0.69323  0.54572  1.0000
  S   S277      1.0  0.62815  0.86839  0.64009  1.0000
  H   H2217     1.0  0.80071  0.52203  0.49250  1.0000
  H   H2218     1.0  0.54497  0.76295  0.23181  1.0000
  C   C1248     1.0  0.74290  0.83902  0.68535  1.0000
  C   C1249     1.0  0.79399  0.54208  0.47825  1.0000
  C   C1250     1.0  0.81960  0.85838  0.52323  1.0000
  C   C1251     1.0  0.77789  0.63711  0.40081  1.0000
  H   H2219     1.0  0.81708  0.83443  0.51587  1.0000
  H   H2220     1.0  0.55073  0.89399  0.25339  1.0000
  C   C1252     1.0  0.89714  0.75381  0.36780  1.0000
  C   C1253     1.0  0.64111  0.56574  0.43151  1.0000
  H   H2221     1.0  0.87762  0.78679  0.26402  1.0000
  H   H2222     1.0  0.73738  0.62526  0.26635  1.0000
  C   C1254     1.0  0.70239  0.55699  0.58615  1.0000
  H   H2223     1.0  0.57761  0.71426  0.38225  1.0000
  H   H2224     1.0  0.88614  0.56599  0.57000  1.0000
  C   C1255     1.0  0.73803  0.51898  0.66663  1.0000
  H   H2225     1.0  0.86202  0.84404  0.67975  1.0000
  H   H2226     1.0  0.78490  0.58066  0.50366  1.0000
  C   C1256     1.0  0.78400  0.53293  0.38382  1.0000
  H   H2227     1.0  0.93138  0.53273  0.40898  1.0000
  H   H2228     1.0  0.76692  0.52895  0.47864  1.0000
  H   H2229     1.0  0.93707  0.69257  0.72872  1.0000
  H   H2230     1.0  0.68786  0.59614  0.57162  1.0000
  H   H2231     1.0  0.51029  0.64381  0.36521  1.0000
  H   H2232     1.0  0.64329  0.92578  0.26288  1.0000
  C   C1257     1.0  0.89949  0.64346  0.72441  1.0000
  C   C1258     1.0  0.69373  0.57965  0.55190  1.0000
  C   C1259     1.0  0.89788  0.85307  0.41650  1.0000
  H   H2233     1.0  0.64891  0.47757  0.24818  1.0000
  Fe  Fe139     1.0  0.93653  0.67346  0.51231  1.0000
  H   H2234     1.0  0.75258  0.91693  0.27487  1.0000
  H   H2235     1.0  0.88834  0.61010  0.35665  1.0000
  H   H2236     1.0  0.62037  0.71947  0.68964  1.0000
  H   H2237     1.0  0.81326  0.83787  0.60141  1.0000
  H   H2238     1.0  0.91718  0.52553  0.57850  1.0000
  C   C1260     1.0  0.97195  0.57442  0.72003  1.0000
  Fe  Fe140     1.0  0.98691  0.86896  0.58922  1.0000
  H   H2239     1.0  0.75616  0.80370  0.55709  1.0000
  H   H2240     1.0  0.75059  0.85099  0.40920  1.0000
  C   C1261     1.0  0.93451  0.48692  0.29684  1.0000
  H   H2241     1.0  0.76094  0.87284  0.48055  1.0000
  Fe  Fe141     1.0  0.61084  0.81217  0.66540  1.0000
  C   C1262     1.0  0.89527  0.78646  0.54692  1.0000
  C   C1263     1.0  0.79004  0.60890  0.63809  1.0000
  H   H2242     1.0  0.63114  0.69458  0.65509  1.0000
  H   H2243     1.0  0.88870  0.86047  0.34598  1.0000
  S   S278      1.0  0.92038  0.71091  0.48069  1.0000
  H   H2244     1.0  0.70862  0.53974  0.56863  1.0000
  H   H2245     1.0  0.00468  0.72436  0.48404  1.0000
  S   S279      1.0  0.51500  0.50755  0.64713  1.0000
  H   H2246     1.0  0.67015  0.56246  0.54605  1.0000
  C   C1264     1.0  0.94690  0.52424  0.26728  1.0000
  H   H2247     1.0  0.88647  0.87804  0.52106  1.0000
  H   H2248     1.0  0.53380  0.81759  0.38946  1.0000
  H   H2249     1.0  0.54826  0.92668  0.31288  1.0000
  H   H2250     1.0  0.69722  0.48003  0.53032  1.0000
  C   C1265     1.0  0.84221  0.78940  0.69631  1.0000
  C   C1266     1.0  0.80685  0.61942  0.58697  1.0000
  H   H2251     1.0  0.89698  0.64556  0.27460  1.0000
  C   C1267     1.0  0.58628  0.83451  0.33708  1.0000
  H   H2252     1.0  0.56366  0.82717  0.55415  1.0000
  H   H2253     1.0  0.56780  0.91098  0.50061  1.0000
  C   C1268     1.0  0.82066  0.56663  0.42597  1.0000
  S   S280      1.0  0.56847  0.52261  0.53869  1.0000
  C   C1269     1.0  0.64979  0.47231  0.58159  1.0000
  C   C1270     1.0  0.90370  0.83172  0.66237  1.0000
  C   C1271     1.0  0.69203  0.52894  0.27398  1.0000
  H   H2254     1.0  0.94788  0.68819  0.66883  1.0000
  H   H2255     1.0  0.76015  0.82234  0.60302  1.0000
  H   H2256     1.0  0.84346  0.92686  0.50975  1.0000
  H   H2257     1.0  0.99242  0.79576  0.54338  1.0000
  S   S281      1.0  0.76841  0.45868  0.64575  1.0000
  H   H2258     1.0  0.70800  0.62172  0.39751  1.0000
  H   H2259     1.0  0.54332  0.70867  0.51910  1.0000
  C   C1272     1.0  0.51517  0.69766  0.69660  1.0000
  C   C1273     1.0  0.79131  0.93529  0.32805  1.0000
  H   H2260     1.0  0.87014  0.83356  0.43821  1.0000
  H   H2261     1.0  0.78269  0.62036  0.42756  1.0000
  H   H2262     1.0  0.70925  0.70578  0.33507  1.0000
  N   N67       1.0  0.93737  0.56552  0.61015  1.0000
  H   H2263     1.0  0.73519  0.90224  0.71347  1.0000
  C   C1274     1.0  0.67052  0.49048  0.30412  1.0000
  H   H2264     1.0  0.58962  0.89504  0.32631  1.0000
  H   H2265     1.0  0.92390  0.85825  0.64939  1.0000
  H   H2266     1.0  0.67960  0.54074  0.62096  1.0000
  C   C1275     1.0  0.75811  0.67483  0.27618  1.0000
  H   H2267     1.0  0.55444  0.60383  0.46669  1.0000
  H   H2268     1.0  0.76819  0.66505  0.54876  1.0000
  C   C1276     1.0  0.54392  0.74251  0.59958  1.0000
  H   H2269     1.0  0.83773  0.76070  0.25852  1.0000
  H   H2270     1.0  0.57375  0.85823  0.58614  1.0000
  C   C1277     1.0  0.83261  0.85974  0.56742  1.0000
  H   H2271     1.0  0.57890  0.69476  0.45925  1.0000
  H   H2272     1.0  0.84058  0.56931  0.30570  1.0000
  C   C1278     1.0  0.89795  0.87572  0.36966  1.0000
  Fe  Fe142     1.0  0.92487  0.63687  0.43640  1.0000
  H   H2273     1.0  0.90038  0.81751  0.35326  1.0000
  H   H2274     1.0  0.81688  0.58954  0.41624  1.0000
  N   N68       1.0  0.72007  0.62533  0.46381  1.0000
  S   S282      1.0  0.95622  0.81529  0.64330  1.0000
  S   S283      1.0  0.63736  0.60500  0.24700  1.0000
  S   S284      1.0  0.77458  0.52403  0.25556  1.0000
  H   H2275     1.0  0.70395  0.58348  0.43388  1.0000
  H   H2276     1.0  0.86147  0.83204  0.55460  1.0000
  Fe  Fe143     1.0  0.73581  0.65443  0.72375  1.0000
  H   H2277     1.0  0.74737  0.61690  0.51184  1.0000
  H   H2278     1.0  0.86506  0.52439  0.61655  1.0000
  H   H2279     1.0  0.56134  0.73375  0.70572  1.0000
  H   H2280     1.0  0.95714  0.61673  0.55962  1.0000
  N   N69       1.0  0.91978  0.83553  0.40807  1.0000
  C   C1279     1.0  0.90473  0.62514  0.27808  1.0000
  C   C1280     1.0  0.87554  0.55246  0.60997  1.0000
  H   H2281     1.0  0.52241  0.66522  0.56188  1.0000
  Fe  Fe144     1.0  0.56828  0.54889  0.59505  1.0000
  H   H2282     1.0  0.87326  0.90611  0.35040  1.0000
  C   C1281     1.0  0.76507  0.55476  0.38141  1.0000
  C   C1282     1.0  0.95582  0.86025  0.37058  1.0000
  C   C1283     1.0  0.97719  0.89264  0.38266  1.0000
  H   H2283     1.0  0.91172  0.73994  0.35832  1.0000
  S   S285      1.0  0.57913  0.62815  0.28448  1.0000
  H   H2284     1.0  0.55075  0.48203  0.36662  1.0000
  N   N70       1.0  0.78597  0.85966  0.52941  1.0000
  C   C1284     1.0  0.72459  0.60166  0.50226  1.0000
  H   H2285     1.0  0.78654  0.91926  0.40438  1.0000
  H   H2286     1.0  0.51692  0.62105  0.62930  1.0000
  H   H2287     1.0  0.82049  0.57592  0.51566  1.0000
  H   H2288     1.0  0.85412  0.58620  0.62522  1.0000
  C   C1285     1.0  0.90379  0.56567  0.63330  1.0000
  C   C1286     1.0  0.55467  0.67308  0.48830  1.0000
  S   S286      1.0  0.97292  0.87891  0.52229  1.0000
  S   S287      1.0  0.64000  0.49469  0.53723  1.0000
  H   H2289     1.0  0.79625  0.86307  0.38352  1.0000
  H   H2290     1.0  0.83252  0.54431  0.67227  1.0000
  C   C1287     1.0  0.88599  0.77114  0.68015  1.0000
  H   H2291     1.0  0.74228  0.86071  0.66131  1.0000
  S   S288      1.0  0.75059  0.61303  0.72002  1.0000
  N   N71       1.0  0.58531  0.85609  0.29197  1.0000
  C   C1288     1.0  0.00304  0.77891  0.55630  1.0000
  H   H2292     1.0  0.57147  0.69985  0.33104  1.0000
  C   C1289     1.0  0.56359  0.65952  0.39511  1.0000
  C   C1290     1.0  0.55581  0.83136  0.58977  1.0000
  H   H2293     1.0  0.91092  0.46898  0.29115  1.0000
  H   H2294     1.0  0.99410  0.72119  0.26424  1.0000
  C   C1291     1.0  0.70816  0.48801  0.70960  1.0000
  H   H2295     1.0  0.82921  0.66236  0.66664  1.0000
  C   C1292     1.0  0.84381  0.80908  0.26879  1.0000
  C   C1293     1.0  0.85077  0.76310  0.69585  1.0000
  C   C1294     1.0  0.52585  0.59282  0.48443  1.0000
  H   H2296     1.0  0.56626  0.80531  0.44057  1.0000
  H   H2297     1.0  0.86494  0.83560  0.26075  1.0000
  H   H2298     1.0  0.85329  0.47090  0.34016  1.0000
  C   C1295     1.0  0.57674  0.92366  0.72839  1.0000
  H   H2299     1.0  0.85547  0.54572  0.23595  1.0000
  H   H2300     1.0  0.68375  0.48356  0.70277  1.0000
  H   H2301     1.0  0.99118  0.60240  0.70475  1.0000
  H   H2302     1.0  0.98861  0.68346  0.70733  1.0000
  N   N72       1.0  0.53089  0.60617  0.72002  1.0000
  H   H2303     1.0  0.82385  0.81083  0.25417  1.0000
  H   H2304     1.0  0.81589  0.92319  0.23478  1.0000
  C   C1296     1.0  0.98680  0.88962  0.23146  1.0000
