data_image0
_chemical_formula_structural       H3CH8C2H4SC3H3C2HCHSH2NC3HCH2C2H3NCHCHC3HC3H14C2HCH4CH6CH3C5HSCHSCH2CFeCNH2C2HC2HFeCH2C2FeHC2H4CHCHCH7S2C2H2NHC2H2SCH6FeHC2SHCH2CHSHNCH3CH5SC3H2SFeH2FeSHCHC2H4CHC2SCHC2H6C2HCHCSH2C3H3CHCHCFeHCH5C3H3CH3CH2CH2C2H4C3HSH2C3HFeH2CNCHCHCH6CH2CH3CH4C2HCHCH4CHC2SCH5CH3SC3H2CH3CHC2HSH3CHCH2CH2FeH2FeC5HC2SCHSHC2H2CNCSCH3CH2CHC2FeC2S3H3SCHCSHFeCFeH6SHCHCHFeH4FeHCH3CHCSH2CH3C2HCHSH3NH2CHCH5CNHCH2C2SH2CSH4CHCSHCHC2H2FeH2CHC2SH2FeHCH4SHCH2CH2CH2SHC2H2CNCHCH3C3SH3SHCH2CFeH4C2H2C2H4CH2NHCHCH3CHFeC4S2H2CHCH4SHFeH2CH2CH6C2HCNCHCH2CHCHCH6CH6CSHCH3FeC2H2SC5H2C2H3CHCSHNCH2CH2SFeH3SC2HCH3NC3H3FeH2C2H7CHCHCH3CH2CHSNCHSC2H4CSH3CH2CH3C3H2CHFeCHC2HCHCHCHSCSH2CH3CHSH4C3H4CFeH4CSHCH3SH2C3H2CH2CSH3CH2CFeH4CHCSHC2HCHCSH4FeHCHNFeH3CH2CHCH2CH10C3HFeHCHSH5C2H2SH2SHCH2CNCHSH4SHCH4CH3SCFeHCH3C2FeH2FeSHCSH2SH2C2SHC2H2CH7CH5CHCHCH8CHSHC2HC2H3FeH5NCH3CSCHC4HC5HFeSCHC2S2C2NSHCH2CSH3CHCHCFeSHFeSC2HSH3CHCHCH2Fe2H3C3H4C2H5CHSH2FeHSCHCH2CH4CH3CH2CHCH4CHCH5SC2H3NC3HCHCH4CSCFeH3
_chemical_formula_sum              "H640 C360 S80 N20 Fe40"
_cell_length_a       22.9283
_cell_length_b       28.3537
_cell_length_c       22.7397
_cell_angle_alpha    78.8435
_cell_angle_beta     84.3591
_cell_angle_gamma    88.0167

_space_group_name_H-M_alt    "P 1"
_space_group_IT_number       1

loop_
  _space_group_symop_operation_xyz
  'x, y, z'

loop_
  _atom_site_type_symbol
  _atom_site_label
  _atom_site_symmetry_multiplicity
  _atom_site_fract_x
  _atom_site_fract_y
  _atom_site_fract_z
  _atom_site_occupancy
  H   H1        1.0  0.09597  0.03795  0.87632  1.0000
  H   H2        1.0  0.13999  0.21013  0.79644  1.0000
  H   H3        1.0  0.33731  0.09378  0.78923  1.0000
  C   C1        1.0  0.31737  0.24953  0.01320  1.0000
  H   H4        1.0  0.03748  0.27281  0.83747  1.0000
  H   H5        1.0  0.12295  0.34101  0.97336  1.0000
  H   H6        1.0  0.38453  0.08555  0.90810  1.0000
  H   H7        1.0  0.40046  0.27289  0.86356  1.0000
  H   H8        1.0  0.43567  0.37163  0.99058  1.0000
  H   H9        1.0  0.18120  0.39202  0.86967  1.0000
  H   H10       1.0  0.41111  0.03819  0.83213  1.0000
  H   H11       1.0  0.36147  0.33438  0.93458  1.0000
  C   C2        1.0  0.35864  0.01533  0.95692  1.0000
  C   C3        1.0  0.09003  0.05723  0.91460  1.0000
  H   H12       1.0  0.16875  0.08188  0.80647  1.0000
  H   H13       1.0  0.19162  0.33485  0.84599  1.0000
  H   H14       1.0  0.09663  0.09839  0.78751  1.0000
  H   H15       1.0  0.34056  0.24771  0.78887  1.0000
  S   S1        1.0  0.29843  0.01305  0.91583  1.0000
  C   C4        1.0  0.13847  0.11346  0.79648  1.0000
  C   C5        1.0  0.41925  0.01901  0.79404  1.0000
  C   C6        1.0  0.18291  0.13480  0.88339  1.0000
  H   H16       1.0  0.39120  0.98669  0.80707  1.0000
  H   H17       1.0  0.37629  0.40837  0.96012  1.0000
  H   H18       1.0  0.03777  0.11718  0.87166  1.0000
  C   C7        1.0  0.08009  0.11211  0.89269  1.0000
  C   C8        1.0  0.28376  0.16349  0.89335  1.0000
  H   H19       1.0  0.25567  0.14737  0.81289  1.0000
  C   C9        1.0  0.03776  0.03530  0.95668  1.0000
  H   H20       1.0  0.07575  0.29240  0.89367  1.0000
  S   S2        1.0  0.20096  0.24993  0.99755  1.0000
  H   H21       1.0  0.03159  0.05257  0.99675  1.0000
  H   H22       1.0  0.07240  0.12747  0.93404  1.0000
  N   N1        1.0  0.37220  0.33995  0.81044  1.0000
  C   C10       1.0  0.40544  0.29274  0.81607  1.0000
  C   C11       1.0  0.08012  0.27154  0.85679  1.0000
  C   C12       1.0  0.41712  0.38891  0.94819  1.0000
  H   H23       1.0  0.30694  0.30355  0.87833  1.0000
  C   C13       1.0  0.37252  0.97656  0.00188  1.0000
  H   H24       1.0  0.99706  0.35248  0.97129  1.0000
  H   H25       1.0  0.29421  0.12603  0.91489  1.0000
  C   C14       1.0  0.96513  0.36845  0.93919  1.0000
  C   C15       1.0  0.39386  0.05597  0.94382  1.0000
  H   H26       1.0  0.21174  0.34046  0.91815  1.0000
  H   H27       1.0  0.42727  0.19708  0.83544  1.0000
  H   H28       1.0  0.99705  0.04017  0.93326  1.0000
  N   N2        1.0  0.12863  0.13818  0.85020  1.0000
  C   C16       1.0  0.23628  0.16406  0.85064  1.0000
  H   H29       1.0  0.11383  0.28877  0.82163  1.0000
  C   C17       1.0  0.21005  0.35961  0.87122  1.0000
  H   H30       1.0  0.06674  0.19037  0.80908  1.0000
  C   C18       1.0  0.09762  0.21956  0.88178  1.0000
  C   C19       1.0  0.40332  0.35059  0.91318  1.0000
  C   C20       1.0  0.30955  0.33007  0.83534  1.0000
  H   H31       1.0  0.98967  0.38707  0.89700  1.0000
  C   C21       1.0  0.38716  0.25768  0.77694  1.0000
  C   C22       1.0  0.12656  0.37175  0.99634  1.0000
  C   C23       1.0  0.27178  0.37463  0.84561  1.0000
  H   H32       1.0  0.30223  0.04214  0.77302  1.0000
  H   H33       1.0  0.17247  0.14506  0.92818  1.0000
  H   H34       1.0  0.19909  0.09692  0.89381  1.0000
  H   H35       1.0  0.06176  0.20457  0.91577  1.0000
  H   H36       1.0  0.28681  0.31230  0.80476  1.0000
  H   H37       1.0  0.13867  0.40467  0.96269  1.0000
  H   H38       1.0  0.32422  0.17979  0.86839  1.0000
  H   H39       1.0  0.26899  0.18440  0.92874  1.0000
  H   H40       1.0  0.26904  0.40102  0.80308  1.0000
  H   H41       1.0  0.12907  0.05008  0.94039  1.0000
  H   H42       1.0  0.32492  0.25146  0.96524  1.0000
  H   H43       1.0  0.13791  0.22062  0.90462  1.0000
  H   H44       1.0  0.28956  0.39300  0.87871  1.0000
  H   H45       1.0  0.38007  0.40811  0.83897  1.0000
  C   C24       1.0  0.10816  0.18965  0.83109  1.0000
  C   C25       1.0  0.40076  0.37159  0.84504  1.0000
  H   H46       1.0  0.22492  0.20221  0.83341  1.0000
  C   C26       1.0  0.44224  0.05808  0.97602  1.0000
  H   H47       1.0  0.04579  0.99620  0.97229  1.0000
  H   H48       1.0  0.43807  0.32222  0.91899  1.0000
  H   H49       1.0  0.95563  0.30215  0.90889  1.0000
  H   H50       1.0  0.04188  0.41157  0.78019  1.0000
  C   C27       1.0  0.42472  0.21169  0.78672  1.0000
  H   H51       1.0  0.44669  0.37845  0.82627  1.0000
  H   H52       1.0  0.95896  0.21175  0.83243  1.0000
  H   H53       1.0  0.40520  0.18388  0.76689  1.0000
  H   H54       1.0  0.21429  0.07995  0.23719  1.0000
  H   H55       1.0  0.35314  0.09793  0.12446  1.0000
  H   H56       1.0  0.16196  0.32531  0.07164  1.0000
  C   C28       1.0  0.24834  0.05088  0.23719  1.0000
  H   H57       1.0  0.41508  0.41539  0.24666  1.0000
  H   H58       1.0  0.98881  0.03206  0.10165  1.0000
  H   H59       1.0  0.31074  0.12504  0.02532  1.0000
  C   C29       1.0  0.00267  0.41578  0.10572  1.0000
  C   C30       1.0  0.35658  0.03801  0.23416  1.0000
  C   C31       1.0  0.31848  0.37751  0.15299  1.0000
  C   C32       1.0  0.26821  0.10911  0.04613  1.0000
  C   C33       1.0  0.35590  0.24104  0.11027  1.0000
  H   H60       1.0  0.23360  0.02782  0.20707  1.0000
  S   S3        1.0  0.41521  0.22968  0.15405  1.0000
  C   C34       1.0  0.26177  0.10877  0.11363  1.0000
  H   H61       1.0  0.42785  0.08944  0.22969  1.0000
  S   S4        1.0  0.09648  0.21334  0.15193  1.0000
  C   C35       1.0  0.11523  0.02385  0.12286  1.0000
  H   H62       1.0  0.10108  0.37483  0.20288  1.0000
  H   H63       1.0  0.30922  0.34528  0.18876  1.0000
  C   C36       1.0  0.11218  0.98403  0.09511  1.0000
  Fe  Fe1       1.0  0.11759  0.22304  0.05177  1.0000
  C   C37       1.0  0.96719  0.44552  0.13703  1.0000
  N   N3        1.0  0.30764  0.07227  0.21283  1.0000
  H   H64       1.0  0.12674  0.40799  0.09450  1.0000
  H   H65       1.0  0.31458  0.04344  0.13076  1.0000
  C   C38       1.0  0.20997  0.43774  0.15765  1.0000
  C   C39       1.0  0.17220  0.36046  0.04213  1.0000
  H   H66       1.0  0.03615  0.43168  0.07206  1.0000
  C   C40       1.0  0.17277  0.40104  0.07868  1.0000
  C   C41       1.0  0.29885  0.24179  0.13798  1.0000
  H   H67       1.0  0.11414  0.44951  0.17618  1.0000
  Fe  Fe2       1.0  0.06830  0.13994  0.14552  1.0000
  C   C42       1.0  0.99566  0.36564  0.11909  1.0000
  H   H68       1.0  0.35286  0.13944  0.20411  1.0000
  H   H69       1.0  0.21083  0.35011  0.22081  1.0000
  C   C43       1.0  0.08584  0.02362  0.17990  1.0000
  C   C44       1.0  0.19102  0.34960  0.17822  1.0000
  Fe  Fe3       1.0  0.00578  0.23812  0.13065  1.0000
  H   H70       1.0  0.31913  0.40941  0.17439  1.0000
  C   C45       1.0  0.36513  0.24684  0.04765  1.0000
  C   C46       1.0  0.27231  0.38342  0.10640  1.0000
  H   H71       1.0  0.23220  0.13118  0.02491  1.0000
  H   H72       1.0  0.21805  0.09432  0.13190  1.0000
  H   H73       1.0  0.06436  0.29506  0.25593  1.0000
  H   H74       1.0  0.18726  0.43385  0.04606  1.0000
  C   C47       1.0  0.37998  0.37121  0.12302  1.0000
  H   H75       1.0  0.13480  0.98440  0.05098  1.0000
  C   C48       1.0  0.25109  0.24499  0.10335  1.0000
  H   H76       1.0  0.13602  0.26886  0.24293  1.0000
  C   C49       1.0  0.11203  0.30249  0.24915  1.0000
  H   H77       1.0  0.20848  0.31592  0.16458  1.0000
  H   H78       1.0  0.38207  0.33981  0.10032  1.0000
  H   H79       1.0  0.29156  0.23851  0.18625  1.0000
  H   H80       1.0  0.22119  0.42883  0.20489  1.0000
  H   H81       1.0  0.39290  0.40390  0.08930  1.0000
  H   H82       1.0  0.08274  0.37806  0.01810  1.0000
  H   H83       1.0  0.28667  0.41289  0.06816  1.0000
  S   S5        1.0  0.97603  0.16353  0.13244  1.0000
  S   S6        1.0  0.08677  0.07415  0.21362  1.0000
  C   C50       1.0  0.31212  0.07907  0.14491  1.0000
  C   C51       1.0  0.31324  0.12095  0.22909  1.0000
  H   H84       1.0  0.10485  0.33085  0.15616  1.0000
  H   H85       1.0  0.02282  0.34245  0.09511  1.0000
  N   N4        1.0  0.21010  0.39271  0.13070  1.0000
  H   H86       1.0  0.24539  0.46222  0.13395  1.0000
  C   C52       1.0  0.12434  0.34209  0.19379  1.0000
  C   C53       1.0  0.41997  0.05583  0.21372  1.0000
  H   H87       1.0  0.20738  0.24464  0.12502  1.0000
  H   H88       1.0  0.26270  0.14657  0.11939  1.0000
  S   S7        1.0  0.09415  0.14805  0.04674  1.0000
  C   C54       1.0  0.05378  0.98338  0.20933  1.0000
  H   H89       1.0  0.41171  0.36496  0.15772  1.0000
  H   H90       1.0  0.27593  0.14492  0.21424  1.0000
  H   H91       1.0  0.27550  0.34989  0.08759  1.0000
  H   H92       1.0  0.14045  0.05457  0.10007  1.0000
  H   H93       1.0  0.35208  0.00334  0.21894  1.0000
  H   H94       1.0  0.42883  0.06237  0.16405  1.0000
  Fe  Fe4       1.0  0.00395  0.17837  0.03357  1.0000
  H   H95       1.0  0.26572  0.07205  0.03729  1.0000
  C   C55       1.0  0.95359  0.34510  0.16441  1.0000
  C   C56       1.0  0.26024  0.24805  0.04108  1.0000
  S   S8        1.0  0.02907  0.25429  0.03082  1.0000
  H   H96       1.0  0.02012  0.45305  0.23975  1.0000
  C   C57       1.0  0.41971  0.97951  0.03573  1.0000
  H   H97       1.0  0.40915  0.24914  0.02570  1.0000
  H   H98       1.0  0.03099  0.98310  0.25338  1.0000
  C   C58       1.0  0.43886  0.44953  0.24219  1.0000
  H   H99       1.0  0.21543  0.35728  0.01651  1.0000
  S   S9        1.0  0.37721  0.31507  0.37464  1.0000
  H   H100      1.0  0.17763  0.98278  0.36859  1.0000
  N   N5        1.0  0.99847  0.15768  0.41591  1.0000
  C   C59       1.0  0.95332  0.28889  0.34347  1.0000
  H   H101      1.0  0.97860  0.43545  0.37091  1.0000
  H   H102      1.0  0.18953  0.42153  0.50037  1.0000
  H   H103      1.0  0.15942  0.98765  0.29217  1.0000
  C   C60       1.0  0.31546  0.43980  0.31179  1.0000
  H   H104      1.0  0.35933  0.97490  0.49530  1.0000
  H   H105      1.0  0.98928  0.22806  0.30864  1.0000
  H   H106      1.0  0.12552  0.15973  0.26806  1.0000
  H   H107      1.0  0.05896  0.16732  0.47974  1.0000
  H   H108      1.0  0.96976  0.36294  0.43008  1.0000
  S   S10       1.0  0.22249  0.10916  0.44863  1.0000
  C   C61       1.0  0.27062  0.07343  0.49391  1.0000
  C   C62       1.0  0.41615  0.30772  0.48594  1.0000
  C   C63       1.0  0.09903  0.17874  0.35547  1.0000
  H   H109      1.0  0.11987  0.17731  0.39773  1.0000
  H   H110      1.0  0.05840  0.10954  0.37597  1.0000
  S   S11       1.0  0.23793  0.31447  0.48959  1.0000
  Fe  Fe5       1.0  0.29814  0.27833  0.42778  1.0000
  H   H111      1.0  0.42267  0.42377  0.35736  1.0000
  H   H112      1.0  0.34531  0.40541  0.43426  1.0000
  Fe  Fe6       1.0  0.16520  0.27867  0.45726  1.0000
  S   S12       1.0  0.31030  0.21163  0.49665  1.0000
  H   H113      1.0  0.08170  0.41875  0.35539  1.0000
  C   C64       1.0  0.14461  0.16106  0.31063  1.0000
  H   H114      1.0  0.12240  0.39323  0.49210  1.0000
  C   C65       1.0  0.36893  0.43932  0.43221  1.0000
  C   C66       1.0  0.25664  0.43699  0.35270  1.0000
  H   H115      1.0  0.20982  0.39293  0.30471  1.0000
  H   H116      1.0  0.04729  0.10655  0.47760  1.0000
  H   H117      1.0  0.37101  0.30191  0.50373  1.0000
  H   H118      1.0  0.02319  0.15181  0.32279  1.0000
  C   C67       1.0  0.33136  0.17082  0.30697  1.0000
  H   H119      1.0  0.18328  0.38915  0.38254  1.0000
  C   C68       1.0  0.02428  0.14201  0.47539  1.0000
  C   C69       1.0  0.07090  0.41602  0.30966  1.0000
  S   S13       1.0  0.22453  0.24835  0.38895  1.0000
  C   C70       1.0  0.95975  0.23455  0.34796  1.0000
  H   H120      1.0  0.99651  0.30516  0.34385  1.0000
  C   C71       1.0  0.41411  0.42852  0.47838  1.0000
  C   C72       1.0  0.97214  0.45729  0.32646  1.0000
  H   H121      1.0  0.02206  0.23114  0.41481  1.0000
  H   H122      1.0  0.97346  0.05977  0.46239  1.0000
  H   H123      1.0  0.26284  0.43649  0.40030  1.0000
  H   H124      1.0  0.26192  0.03564  0.33438  1.0000
  H   H125      1.0  0.26754  0.98396  0.29949  1.0000
  H   H126      1.0  0.34601  0.09493  0.31779  1.0000
  C   C73       1.0  0.03010  0.45728  0.28512  1.0000
  C   C74       1.0  0.97024  0.33565  0.47018  1.0000
  H   H127      1.0  0.97702  0.06559  0.38193  1.0000
  C   C75       1.0  0.39856  0.45629  0.36775  1.0000
  H   H128      1.0  0.08815  0.21679  0.33717  1.0000
  C   C76       1.0  0.04316  0.14775  0.36628  1.0000
  S   S14       1.0  0.08364  0.31953  0.43033  1.0000
  H   H129      1.0  0.28209  0.02025  0.43787  1.0000
  H   H130      1.0  0.40319  0.12930  0.48880  1.0000
  C   C77       1.0  0.29543  0.03185  0.47695  1.0000
  C   C78       1.0  0.24345  0.01847  0.30087  1.0000
  C   C79       1.0  0.98342  0.21061  0.40848  1.0000
  H   H131      1.0  0.18249  0.18559  0.30051  1.0000
  H   H132      1.0  0.43321  0.05420  0.44723  1.0000
  H   H133      1.0  0.38985  0.09816  0.40228  1.0000
  C   C80       1.0  0.31431  0.12158  0.29676  1.0000
  H   H134      1.0  0.15385  0.03969  0.32751  1.0000
  C   C81       1.0  0.14102  0.42332  0.50860  1.0000
  H   H135      1.0  0.25084  0.35922  0.36261  1.0000
  C   C82       1.0  0.22320  0.39186  0.35032  1.0000
  Fe  Fe7       1.0  0.23163  0.18428  0.46312  1.0000
  H   H136      1.0  0.33638  0.40352  0.31855  1.0000
  C   C83       1.0  0.02094  0.30798  0.48138  1.0000
  H   H137      1.0  0.11241  0.41729  0.28031  1.0000
  H   H138      1.0  0.16076  0.12456  0.32997  1.0000
  H   H139      1.0  0.30007  0.19905  0.28791  1.0000
  H   H140      1.0  0.33033  0.17030  0.35604  1.0000
  H   H141      1.0  0.27002  0.11390  0.32019  1.0000
  C   C84       1.0  0.43115  0.31666  0.42377  1.0000
  C   C85       1.0  0.43317  0.09087  0.41996  1.0000
  C   C86       1.0  0.17968  0.00644  0.32346  1.0000
  H   H142      1.0  0.35392  0.02846  0.28396  1.0000
  H   H143      1.0  0.04973  0.38104  0.31168  1.0000
  H   H144      1.0  0.12535  0.31367  0.29005  1.0000
  C   C87       1.0  0.95095  0.07517  0.42189  1.0000
  H   H145      1.0  0.37637  0.18004  0.28596  1.0000
  H   H146      1.0  0.30309  0.44619  0.26477  1.0000
  H   H147      1.0  0.44838  0.16221  0.42796  1.0000
  C   C88       1.0  0.44379  0.12717  0.45896  1.0000
  H   H148      1.0  0.43260  0.46212  0.48615  1.0000
  H   H149      1.0  0.12514  0.45788  0.48323  1.0000
  C   C89       1.0  0.33955  0.00656  0.50902  1.0000
  H   H150      1.0  0.94937  0.21732  0.44433  1.0000
  H   H151      1.0  0.38877  0.02721  0.70436  1.0000
  C   C90       1.0  0.03761  0.32136  0.65534  1.0000
  C   C91       1.0  0.17675  0.11339  0.68752  1.0000
  H   H152      1.0  0.31752  0.09426  0.71446  1.0000
  H   H153      1.0  0.04335  0.46207  0.56870  1.0000
  H   H154      1.0  0.98985  0.45890  0.75643  1.0000
  H   H155      1.0  0.18010  0.37791  0.75287  1.0000
  C   C92       1.0  0.01299  0.12841  0.58965  1.0000
  C   C93       1.0  0.42617  0.39067  0.64231  1.0000
  C   C94       1.0  0.17082  0.98646  0.62302  1.0000
  H   H156      1.0  0.44776  0.29895  0.57346  1.0000
  S   S15       1.0  0.25412  0.24790  0.65316  1.0000
  H   H157      1.0  0.44809  0.22492  0.64069  1.0000
  H   H158      1.0  0.30495  0.33524  0.58024  1.0000
  C   C95       1.0  0.12350  0.41956  0.57579  1.0000
  C   C96       1.0  0.05051  0.36362  0.68565  1.0000
  C   C97       1.0  0.03678  0.44780  0.75223  1.0000
  H   H159      1.0  0.10791  0.44311  0.68481  1.0000
  Fe  Fe8       1.0  0.24576  0.24599  0.55640  1.0000
  H   H160      1.0  0.42282  0.08021  0.71639  1.0000
  H   H161      1.0  0.96915  0.23429  0.61156  1.0000
  C   C98       1.0  0.05982  0.44903  0.68544  1.0000
  N   N6        1.0  0.03298  0.41347  0.65479  1.0000
  C   C99       1.0  0.96717  0.42078  0.66185  1.0000
  H   H162      1.0  0.35095  0.40145  0.74279  1.0000
  C   C100      1.0  0.28732  0.08810  0.54501  1.0000
  H   H163      1.0  0.40969  0.14919  0.57370  1.0000
  C   C101      1.0  0.35919  0.02320  0.55750  1.0000
  H   H164      1.0  0.14605  0.44876  0.59035  1.0000
  H   H165      1.0  0.99041  0.31259  0.66482  1.0000
  H   H166      1.0  0.39277  0.27372  0.72824  1.0000
  H   H167      1.0  0.04355  0.15794  0.58982  1.0000
  H   H168      1.0  0.03811  0.09394  0.59262  1.0000
  H   H169      1.0  0.21089  0.08599  0.70190  1.0000
  C   C102      1.0  0.16161  0.14443  0.73509  1.0000
  H   H170      1.0  0.19440  0.29221  0.74421  1.0000
  H   H171      1.0  0.95494  0.17238  0.53276  1.0000
  C   C103      1.0  0.23599  0.40454  0.67322  1.0000
  H   H172      1.0  0.41818  0.16616  0.67145  1.0000
  H   H173      1.0  0.13715  0.09506  0.67924  1.0000
  H   H174      1.0  0.40069  0.36448  0.62516  1.0000
  C   C104      1.0  0.24967  0.30813  0.66123  1.0000
  H   H175      1.0  0.43011  0.20917  0.53666  1.0000
  H   H176      1.0  0.34457  0.34557  0.72112  1.0000
  H   H177      1.0  0.19402  0.13655  0.64463  1.0000
  H   H178      1.0  0.06583  0.26753  0.72983  1.0000
  C   C105      1.0  0.21592  0.32010  0.71079  1.0000
  C   C106      1.0  0.41852  0.19694  0.63308  1.0000
  H   H179      1.0  0.13352  0.98493  0.59577  1.0000
  C   C107      1.0  0.98065  0.13858  0.53271  1.0000
  H   H180      1.0  0.40351  0.42634  0.63464  1.0000
  C   C108      1.0  0.33157  0.06292  0.57690  1.0000
  H   H181      1.0  0.29202  0.42091  0.59042  1.0000
  H   H182      1.0  0.14027  0.38439  0.59883  1.0000
  H   H183      1.0  0.12747  0.17096  0.71801  1.0000
  H   H184      1.0  0.20115  0.16446  0.73866  1.0000
  C   C109      1.0  0.20845  0.36825  0.71613  1.0000
  H   H185      1.0  0.05858  0.24522  0.66201  1.0000
  C   C110      1.0  0.37215  0.36524  0.74567  1.0000
  C   C111      1.0  0.07266  0.27622  0.68007  1.0000
  S   S16       1.0  0.42143  0.99745  0.59043  1.0000
  C   C112      1.0  0.96970  0.26285  0.57236  1.0000
  H   H186      1.0  0.09792  0.36224  0.69190  1.0000
  H   H187      1.0  0.04956  0.32944  0.60628  1.0000
  H   H188      1.0  0.98076  0.12580  0.62990  1.0000
  H   H189      1.0  0.12007  0.28153  0.66583  1.0000
  H   H190      1.0  0.39256  0.40923  0.52170  1.0000
  C   C113      1.0  0.05608  0.42465  0.58907  1.0000
  H   H191      1.0  0.37349  0.21239  0.63102  1.0000
  H   H192      1.0  0.34636  0.07577  0.61448  1.0000
  H   H193      1.0  0.02838  0.35472  0.73201  1.0000
  S   S17       1.0  0.22617  0.46367  0.68432  1.0000
  C   C114      1.0  0.27732  0.34445  0.61775  1.0000
  C   C115      1.0  0.27044  0.39286  0.62368  1.0000
  C   C116      1.0  0.43812  0.17972  0.57456  1.0000
  H   H194      1.0  0.03563  0.40200  0.56236  1.0000
  H   H195      1.0  0.26709  0.11954  0.55916  1.0000
  C   C117      1.0  0.39414  0.04994  0.73798  1.0000
  H   H196      1.0  0.18757  0.02375  0.61254  1.0000
  H   H197      1.0  0.95575  0.45968  0.65950  1.0000
  H   H198      1.0  0.96575  0.23156  0.75158  1.0000
  C   C118      1.0  0.43298  0.37326  0.70923  1.0000
  H   H199      1.0  0.05879  0.24936  0.54104  1.0000
  C   C119      1.0  0.33407  0.07124  0.75483  1.0000
  C   C120      1.0  0.02039  0.27120  0.53223  1.0000
  H   H200      1.0  0.15519  0.97771  0.67166  1.0000
  S   S18       1.0  0.16814  0.21265  0.52908  1.0000
  H   H201      1.0  0.94938  0.10897  0.53589  1.0000
  H   H202      1.0  0.94878  0.40233  0.70734  1.0000
  H   H203      1.0  0.23423  0.59146  0.81964  1.0000
  C   C121      1.0  0.23157  0.64947  0.90680  1.0000
  H   H204      1.0  0.04054  0.85434  0.91521  1.0000
  C   C122      1.0  0.02199  0.73728  0.86115  1.0000
  H   H205      1.0  0.05474  0.47985  0.82716  1.0000
  H   H206      1.0  0.28722  0.80644  0.79407  1.0000
  C   C123      1.0  0.27288  0.70726  0.81692  1.0000
  H   H207      1.0  0.35405  0.80633  0.82982  1.0000
  H   H208      1.0  0.42512  0.64387  0.00317  1.0000
  Fe  Fe9       1.0  0.25328  0.94243  0.94653  1.0000
  H   H209      1.0  0.97795  0.78401  0.79241  1.0000
  H   H210      1.0  0.15847  0.68420  0.79619  1.0000
  Fe  Fe10      1.0  0.44084  0.52139  0.00802  1.0000
  C   C124      1.0  0.44393  0.76024  0.93345  1.0000
  C   C125      1.0  0.26627  0.65041  0.96182  1.0000
  C   C126      1.0  0.07271  0.72952  0.89157  1.0000
  C   C127      1.0  0.16558  0.64484  0.80528  1.0000
  C   C128      1.0  0.32408  0.62832  0.85099  1.0000
  H   H211      1.0  0.98380  0.90011  0.91033  1.0000
  C   C129      1.0  0.01719  0.77791  0.81583  1.0000
  C   C130      1.0  0.32717  0.78516  0.80653  1.0000
  S   S19       1.0  0.28728  0.87629  0.91343  1.0000
  C   C131      1.0  0.36326  0.62723  0.79119  1.0000
  H   H212      1.0  0.07642  0.69827  0.92680  1.0000
  S   S20       1.0  0.00698  0.48388  0.96395  1.0000
  H   H213      1.0  0.02960  0.89169  0.97155  1.0000
  C   C132      1.0  0.36228  0.57889  0.77067  1.0000
  C   C133      1.0  0.27005  0.49815  0.91165  1.0000
  H   H214      1.0  0.14121  0.63007  0.84928  1.0000
  H   H215      1.0  0.29707  0.68041  0.95384  1.0000
  C   C134      1.0  0.29888  0.51146  0.00694  1.0000
  N   N7        1.0  0.26595  0.65482  0.84568  1.0000
  C   C135      1.0  0.11785  0.76329  0.87758  1.0000
  S   S21       1.0  0.05690  0.59001  0.97292  1.0000
  C   C136      1.0  0.07116  0.48203  0.77919  1.0000
  H   H216      1.0  0.40943  0.63339  0.79855  1.0000
  H   H217      1.0  0.28145  0.48858  0.86806  1.0000
  H   H218      1.0  0.35815  0.48925  0.93763  1.0000
  C   C137      1.0  0.19776  0.52374  0.98424  1.0000
  H   H219      1.0  0.15317  0.53271  0.99788  1.0000
  H   H220      1.0  0.20893  0.61437  0.91796  1.0000
  C   C138      1.0  0.41954  0.68231  0.99399  1.0000
  H   H221      1.0  0.02343  0.77735  0.99012  1.0000
  C   C139      1.0  0.23183  0.63133  0.80581  1.0000
  C   C140      1.0  0.21210  0.51073  0.92835  1.0000
  Fe  Fe11      1.0  0.98474  0.62131  0.91671  1.0000
  C   C141      1.0  0.31348  0.49868  0.95088  1.0000
  C   C142      1.0  0.31069  0.73763  0.84798  1.0000
  S   S22       1.0  0.17247  0.82141  0.99184  1.0000
  S   S23       1.0  0.15867  0.51164  0.87823  1.0000
  S   S24       1.0  0.96247  0.69850  0.88102  1.0000
  H   H222      1.0  0.35229  0.71934  0.86059  1.0000
  H   H223      1.0  0.29241  0.61665  0.97245  1.0000
  H   H224      1.0  0.37643  0.54917  0.80607  1.0000
  S   S25       1.0  0.16831  0.84662  0.81434  1.0000
  C   C143      1.0  0.00716  0.87284  0.94192  1.0000
  H   H225      1.0  0.15647  0.75807  0.90191  1.0000
  C   C144      1.0  0.06310  0.81058  0.80037  1.0000
  S   S26       1.0  0.16095  0.93446  0.92611  1.0000
  H   H226      1.0  0.35154  0.64298  0.88046  1.0000
  Fe  Fe12      1.0  0.19371  0.86537  0.89959  1.0000
  C   C145      1.0  0.11310  0.80365  0.83169  1.0000
  Fe  Fe13      1.0  0.06959  0.53768  0.91001  1.0000
  H   H227      1.0  0.19597  0.67721  0.90587  1.0000
  H   H228      1.0  0.11851  0.47195  0.77703  1.0000
  H   H229      1.0  0.28525  0.74648  0.88869  1.0000
  H   H230      1.0  0.39156  0.81989  0.95667  1.0000
  H   H231      1.0  0.35322  0.77814  0.76528  1.0000
  H   H232      1.0  0.31671  0.59073  0.87535  1.0000
  S   S27       1.0  0.00112  0.57223  0.85040  1.0000
  H   H233      1.0  0.29000  0.71128  0.76878  1.0000
  C   C146      1.0  0.39944  0.78156  0.96709  1.0000
  H   H234      1.0  0.22948  0.72590  0.81518  1.0000
  C   C147      1.0  0.96341  0.83684  0.97925  1.0000
  H   H235      1.0  0.42259  0.93672  0.88609  1.0000
  Fe  Fe14      1.0  0.26369  0.83772  0.00824  1.0000
  H   H236      1.0  0.14155  0.58432  0.76673  1.0000
  H   H237      1.0  0.34715  0.94430  0.01065  1.0000
  H   H238      1.0  0.20086  0.68978  0.01044  1.0000
  H   H239      1.0  0.05910  0.84194  0.76528  1.0000
  Fe  Fe15      1.0  0.14764  0.89140  0.01985  1.0000
  H   H240      1.0  0.19692  0.53374  0.17025  1.0000
  C   C148      1.0  0.39768  0.48999  0.26064  1.0000
  H   H241      1.0  0.09392  0.63143  0.08331  1.0000
  H   H242      1.0  0.22188  0.89222  0.17959  1.0000
  H   H243      1.0  0.09024  0.66851  0.13965  1.0000
  C   C149      1.0  0.24122  0.52468  0.02307  1.0000
  H   H244      1.0  0.43118  0.46615  0.14561  1.0000
  C   C150      1.0  0.22480  0.65467  0.01750  1.0000
  S   S28       1.0  0.23727  0.90474  0.04276  1.0000
  H   H245      1.0  0.26862  0.94433  0.16124  1.0000
  H   H246      1.0  0.31134  0.83754  0.17325  1.0000
  C   C151      1.0  0.06413  0.65312  0.10948  1.0000
  H   H247      1.0  0.23030  0.53629  0.06533  1.0000
  H   H248      1.0  0.03063  0.62878  0.13702  1.0000
  H   H249      1.0  0.41223  0.84766  0.09062  1.0000
  C   C152      1.0  0.99384  0.72494  0.10158  1.0000
  C   C153      1.0  0.36698  0.75341  0.01583  1.0000
  H   H250      1.0  0.02280  0.74334  0.12620  1.0000
  C   C154      1.0  0.33789  0.86144  0.19339  1.0000
  H   H251      1.0  0.35091  0.68191  0.06580  1.0000
  S   S29       1.0  0.97846  0.50809  0.12302  1.0000
  H   H252      1.0  0.34020  0.73640  0.24933  1.0000
  H   H253      1.0  0.31998  0.91371  0.25353  1.0000
  H   H254      1.0  0.32469  0.57070  0.24582  1.0000
  N   N8        1.0  0.95595  0.76125  0.06426  1.0000
  H   H255      1.0  0.38646  0.77994  0.16804  1.0000
  H   H256      1.0  0.37046  0.50269  0.22248  1.0000
  C   C155      1.0  0.40875  0.65281  0.18374  1.0000
  H   H257      1.0  0.35519  0.88898  0.15427  1.0000
  C   C156      1.0  0.41822  0.80407  0.18089  1.0000
  H   H258      1.0  0.07069  0.71508  0.03865  1.0000
  H   H259      1.0  0.43666  0.90037  0.20061  1.0000
  H   H260      1.0  0.25036  0.65247  0.05698  1.0000
  H   H261      1.0  0.01125  0.67598  0.03624  1.0000
  H   H262      1.0  0.95821  0.85531  0.10217  1.0000
  C   C157      1.0  0.07842  0.94451  0.12373  1.0000
  N   N9        1.0  0.38790  0.83380  0.22341  1.0000
  H   H263      1.0  0.96525  0.52941  0.23583  1.0000
  C   C158      1.0  0.15878  0.51099  0.19009  1.0000
  H   H264      1.0  0.16394  0.49665  0.23834  1.0000
  H   H265      1.0  0.39690  0.69161  0.17777  1.0000
  C   C159      1.0  0.24855  0.91668  0.19848  1.0000
  C   C160      1.0  0.29573  0.88816  0.23409  1.0000
  S   S30       1.0  0.35164  0.50989  0.05804  1.0000
  H   H266      1.0  0.19277  0.62505  0.02738  1.0000
  H   H267      1.0  0.28231  0.78058  0.25187  1.0000
  C   C161      1.0  0.04929  0.94417  0.18085  1.0000
  S   S31       1.0  0.07154  0.89575  0.08812  1.0000
  H   H268      1.0  0.11848  0.53392  0.18686  1.0000
  H   H269      1.0  0.02348  0.91349  0.20317  1.0000
  H   H270      1.0  0.37825  0.63516  0.16002  1.0000
  H   H271      1.0  0.02628  0.81279  0.04559  1.0000
  C   C162      1.0  0.03506  0.69317  0.06640  1.0000
  H   H272      1.0  0.14564  0.48636  0.10922  1.0000
  C   C163      1.0  0.37699  0.70384  0.02912  1.0000
  S   S32       1.0  0.31579  0.77977  0.06241  1.0000
  H   H273      1.0  0.40322  0.63623  0.23236  1.0000
  C   C164      1.0  0.42918  0.86921  0.23855  1.0000
  H   H274      1.0  0.42955  0.95006  0.07148  1.0000
  C   C165      1.0  0.15354  0.46990  0.15620  1.0000
  C   C166      1.0  0.99519  0.79636  0.02101  1.0000
  H   H275      1.0  0.98604  0.80747  0.15669  1.0000
  H   H276      1.0  0.21860  0.93500  0.22861  1.0000
  Fe  Fe16      1.0  0.99016  0.53742  0.02389  1.0000
  H   H277      1.0  0.96630  0.70087  0.13737  1.0000
  H   H278      1.0  0.42597  0.52079  0.26252  1.0000
  C   C167      1.0  0.44682  0.83265  0.12032  1.0000
  H   H279      1.0  0.26722  0.52765  0.26342  1.0000
  C   C168      1.0  0.36624  0.80049  0.28109  1.0000
  C   C169      1.0  0.98860  0.53969  0.34891  1.0000
  S   S33       1.0  0.43600  0.83561  0.41549  1.0000
  H   H280      1.0  0.23250  0.90185  0.39420  1.0000
  H   H281      1.0  0.43255  0.48304  0.36965  1.0000
  Fe  Fe17      1.0  0.33841  0.56589  0.50331  1.0000
  H   H282      1.0  0.27286  0.86242  0.27154  1.0000
  C   C170      1.0  0.02541  0.63929  0.44834  1.0000
  H   H283      1.0  0.26964  0.75997  0.36212  1.0000
  H   H284      1.0  0.36333  0.54690  0.34134  1.0000
  H   H285      1.0  0.21021  0.84538  0.48843  1.0000
  H   H286      1.0  0.26644  0.70678  0.33078  1.0000
  S   S34       1.0  0.41833  0.56051  0.43970  1.0000
  H   H287      1.0  0.19248  0.90596  0.49913  1.0000
  C   C171      1.0  0.25414  0.58870  0.30714  1.0000
  H   H288      1.0  0.03351  0.66824  0.40997  1.0000
  H   H289      1.0  0.22115  0.57101  0.34299  1.0000
  C   C172      1.0  0.29431  0.55123  0.28294  1.0000
  H   H290      1.0  0.11534  0.51667  0.34131  1.0000
  H   H291      1.0  0.30051  0.51497  0.37531  1.0000
  C   C173      1.0  0.96785  0.62729  0.47112  1.0000
  H   H292      1.0  0.28011  0.61360  0.32610  1.0000
  H   H293      1.0  0.09495  0.57470  0.35943  1.0000
  S   S35       1.0  0.14365  0.62700  0.44222  1.0000
  H   H294      1.0  0.40339  0.77937  0.30169  1.0000
  C   C174      1.0  0.22883  0.88034  0.49154  1.0000
  C   C175      1.0  0.32983  0.52212  0.33295  1.0000
  H   H295      1.0  0.32717  0.78681  0.42947  1.0000
  H   H296      1.0  0.12138  0.52788  0.41555  1.0000
  C   C176      1.0  0.29580  0.73557  0.33662  1.0000
  N   N10       1.0  0.35906  0.47653  0.31908  1.0000
  C   C177      1.0  0.34756  0.77640  0.47087  1.0000
  H   H297      1.0  0.29968  0.87527  0.42125  1.0000
  C   C178      1.0  0.26222  0.89957  0.43040  1.0000
  H   H298      1.0  0.33185  0.71857  0.36311  1.0000
  H   H299      1.0  0.01766  0.53044  0.43904  1.0000
  H   H300      1.0  0.01487  0.55876  0.30787  1.0000
  C   C179      1.0  0.40206  0.79489  0.47618  1.0000
  C   C180      1.0  0.03171  0.51809  0.39649  1.0000
  C   C181      1.0  0.09452  0.53528  0.37675  1.0000
  S   S36       1.0  0.25507  0.52509  0.50939  1.0000
  H   H301      1.0  0.03294  0.47854  0.40858  1.0000
  H   H302      1.0  0.34828  0.82133  0.31577  1.0000
  H   H303      1.0  0.27921  0.93595  0.42922  1.0000
  S   S37       1.0  0.29374  0.63748  0.49084  1.0000
  H   H304      1.0  0.96386  0.56941  0.36650  1.0000
  C   C182      1.0  0.07239  0.61402  0.47506  1.0000
  H   H305      1.0  0.22792  0.46845  0.33782  1.0000
  H   H306      1.0  0.40903  0.88516  0.27701  1.0000
  C   C183      1.0  0.32005  0.76324  0.27505  1.0000
  Fe  Fe18      1.0  0.21046  0.59711  0.50479  1.0000
  H   H307      1.0  0.33809  0.46648  0.44680  1.0000
  H   H308      1.0  0.05399  0.49124  0.27896  1.0000
  H   H309      1.0  0.23057  0.61005  0.27022  1.0000
  H   H310      1.0  0.40255  0.83571  0.69290  1.0000
  C   C184      1.0  0.38529  0.87321  0.68430  1.0000
  C   C185      1.0  0.39883  0.75118  0.57951  1.0000
  H   H311      1.0  0.33676  0.91930  0.62010  1.0000
  H   H312      1.0  0.15800  0.89845  0.59880  1.0000
  C   C186      1.0  0.17831  0.79423  0.67499  1.0000
  C   C187      1.0  0.14623  0.74813  0.67405  1.0000
  H   H313      1.0  0.30287  0.84514  0.53434  1.0000
  H   H314      1.0  0.36132  0.88186  0.72587  1.0000
  H   H315      1.0  0.25587  0.95587  0.63541  1.0000
  H   H316      1.0  0.25173  0.63956  0.75831  1.0000
  C   C188      1.0  0.28839  0.85129  0.65036  1.0000
  H   H317      1.0  0.41532  0.62207  0.52732  1.0000
  H   H318      1.0  0.23420  0.96285  0.55952  1.0000
  N   N11       1.0  0.24175  0.86101  0.60634  1.0000
  H   H319      1.0  0.42313  0.89756  0.67113  1.0000
  C   C189      1.0  0.20839  0.81514  0.61161  1.0000
  H   H320      1.0  0.14507  0.81985  0.68976  1.0000
  C   C190      1.0  0.06182  0.57729  0.52561  1.0000
  H   H321      1.0  0.16022  0.63800  0.71208  1.0000
  H   H322      1.0  0.37136  0.86869  0.59409  1.0000
  H   H323      1.0  0.21060  0.78579  0.70900  1.0000
  C   C191      1.0  0.31869  0.74541  0.51968  1.0000
  H   H324      1.0  0.11494  0.75424  0.63891  1.0000
  Fe  Fe19      1.0  0.28776  0.62893  0.59106  1.0000
  C   C192      1.0  0.27019  0.87361  0.54263  1.0000
  C   C193      1.0  0.42784  0.78201  0.53041  1.0000
  C   C194      1.0  0.13804  0.62419  0.75740  1.0000
  C   C195      1.0  0.19852  0.89922  0.62189  1.0000
  S   S38       1.0  0.33877  0.55935  0.60328  1.0000
  S   S39       1.0  0.31019  0.69067  0.63306  1.0000
  H   H325      1.0  0.05365  0.48653  0.66045  1.0000
  H   H326      1.0  0.31811  0.57119  0.75934  1.0000
  C   C196      1.0  0.21990  0.95164  0.60791  1.0000
  H   H327      1.0  0.17827  0.71950  0.66506  1.0000
  C   C197      1.0  0.34456  0.73235  0.57384  1.0000
  H   H328      1.0  0.29585  0.90692  0.53585  1.0000
  H   H329      1.0  0.27598  0.73199  0.51565  1.0000
  H   H330      1.0  0.09098  0.63482  0.75737  1.0000
  H   H331      1.0  0.06605  0.51963  0.75477  1.0000
  S   S40       1.0  0.20050  0.59370  0.60438  1.0000
  H   H332      1.0  0.12069  0.73611  0.71813  1.0000
  Fe  Fe20      1.0  0.25199  0.52443  0.60865  1.0000
  H   H333      1.0  0.99526  0.53590  0.58587  1.0000
  H   H334      1.0  0.41950  0.74038  0.62090  1.0000
  C   C198      1.0  0.00388  0.56476  0.54771  1.0000
  H   H335      1.0  0.26990  0.85661  0.69583  1.0000
  H   H336      1.0  0.18376  0.89152  0.67090  1.0000
  C   C199      1.0  0.34577  0.88046  0.63297  1.0000
  H   H337      1.0  0.23791  0.78661  0.59720  1.0000
  H   H338      1.0  0.17275  0.82055  0.58108  1.0000
  H   H339      1.0  0.30332  0.81286  0.65668  1.0000
  H   H340      1.0  0.09812  0.55773  0.54647  1.0000
  H   H341      1.0  0.39303  0.58002  0.72960  1.0000
  H   H342      1.0  0.35254  0.65614  0.75363  1.0000
  C   C200      1.0  0.95696  0.58901  0.51938  1.0000
  C   C201      1.0  0.86332  0.27126  0.85650  1.0000
  H   H343      1.0  0.75258  0.23891  0.92068  1.0000
  C   C202      1.0  0.82470  0.14612  0.99609  1.0000
  N   N12       1.0  0.83643  0.31750  0.87062  1.0000
  C   C203      1.0  0.87373  0.17125  0.00467  1.0000
  H   H344      1.0  0.90776  0.36722  0.83823  1.0000
  C   C204      1.0  0.56168  0.37995  0.79322  1.0000
  H   H345      1.0  0.49150  0.00137  0.88098  1.0000
  H   H346      1.0  0.51843  0.07629  0.84955  1.0000
  C   C205      1.0  0.74029  0.27698  0.92201  1.0000
  H   H347      1.0  0.83627  0.35559  0.77872  1.0000
  C   C206      1.0  0.56066  0.40546  0.84003  1.0000
  H   H348      1.0  0.70406  0.43750  0.78462  1.0000
  C   C207      1.0  0.50077  0.97852  0.84640  1.0000
  H   H349      1.0  0.59987  0.11730  0.77810  1.0000
  H   H350      1.0  0.56580  0.39947  0.93510  1.0000
  H   H351      1.0  0.47093  0.08842  0.96362  1.0000
  H   H352      1.0  0.78150  0.33855  0.94489  1.0000
  H   H353      1.0  0.90013  0.20235  0.78869  1.0000
  H   H354      1.0  0.69632  0.37622  0.77644  1.0000
  C   C208      1.0  0.90808  0.27642  0.80001  1.0000
  H   H355      1.0  0.90409  0.31168  0.97047  1.0000
  H   H356      1.0  0.88445  0.25063  0.89587  1.0000
  H   H357      1.0  0.93773  0.39522  0.95974  1.0000
  H   H358      1.0  0.56493  0.31078  0.95660  1.0000
  H   H359      1.0  0.77688  0.31678  0.80211  1.0000
  H   H360      1.0  0.82855  0.24728  0.84887  1.0000
  C   C209      1.0  0.72862  0.40432  0.77721  1.0000
  S   S41       1.0  0.61009  0.13967  0.00461  1.0000
  H   H361      1.0  0.82861  0.12193  0.96446  1.0000
  C   C210      1.0  0.56470  0.38025  0.89879  1.0000
  H   H362      1.0  0.46622  0.10437  0.79908  1.0000
  H   H363      1.0  0.73691  0.37989  0.87040  1.0000
  H   H364      1.0  0.54902  0.97199  0.84424  1.0000
  Fe  Fe21      1.0  0.54993  0.20221  0.97550  1.0000
  C   C211      1.0  0.51133  0.08917  0.80150  1.0000
  C   C212      1.0  0.88226  0.35104  0.88118  1.0000
  H   H365      1.0  0.66057  0.25215  0.97331  1.0000
  H   H366      1.0  0.67609  0.31398  0.97449  1.0000
  S   S42       1.0  0.55547  0.24129  0.87868  1.0000
  C   C213      1.0  0.56311  0.30422  0.86435  1.0000
  C   C214      1.0  0.69555  0.27740  0.97581  1.0000
  C   C215      1.0  0.80447  0.34245  0.81804  1.0000
  C   C216      1.0  0.93493  0.22749  0.79294  1.0000
  C   C217      1.0  0.56498  0.32973  0.91098  1.0000
  H   H367      1.0  0.71752  0.29195  0.88159  1.0000
  H   H368      1.0  0.86050  0.38217  0.89808  1.0000
  C   C218      1.0  0.76692  0.38717  0.82854  1.0000
  C   C219      1.0  0.79538  0.30548  0.92722  1.0000
  H   H369      1.0  0.81825  0.28301  0.96396  1.0000
  H   H370      1.0  0.54700  0.15847  0.80465  1.0000
  H   H371      1.0  0.79610  0.41700  0.83094  1.0000
  C   C220      1.0  0.56366  0.32956  0.80507  1.0000
  H   H372      1.0  0.45325  0.29864  0.80629  1.0000
  C   C221      1.0  0.92659  0.32924  0.92675  1.0000
  S   S43       1.0  0.94326  0.16112  0.96923  1.0000
  H   H373      1.0  0.94402  0.30079  0.80278  1.0000
  N   N13       1.0  0.48301  0.00462  0.78631  1.0000
  C   C222      1.0  0.55366  0.13031  0.77666  1.0000
  H   H374      1.0  0.44917  0.41495  0.92146  1.0000
  H   H375      1.0  0.56854  0.03704  0.76732  1.0000
  C   C223      1.0  0.52156  0.04795  0.76533  1.0000
  H   H376      1.0  0.56245  0.31020  0.76861  1.0000
  H   H377      1.0  0.46987  0.21920  0.76499  1.0000
  S   S44       1.0  0.54273  0.13342  0.14134  1.0000
  Fe  Fe22      1.0  0.61821  0.17275  0.08508  1.0000
  H   H378      1.0  0.88345  0.35936  0.22921  1.0000
  H   H379      1.0  0.71474  0.05794  0.24104  1.0000
  H   H380      1.0  0.76980  0.32180  0.18081  1.0000
  S   S45       1.0  0.51081  0.02579  0.06743  1.0000
  C   C224      1.0  0.92426  0.42484  0.18155  1.0000
  C   C225      1.0  0.53278  0.34827  0.09125  1.0000
  H   H381      1.0  0.51000  0.03176  0.22368  1.0000
  C   C226      1.0  0.80360  0.98333  0.24619  1.0000
  H   H382      1.0  0.83388  0.07360  0.12421  1.0000
  H   H383      1.0  0.65432  0.07573  0.12108  1.0000
  H   H384      1.0  0.79192  0.43604  0.22266  1.0000
  N   N14       1.0  0.67610  0.33131  0.17493  1.0000
  C   C227      1.0  0.76709  0.18001  0.07399  1.0000
  C   C228      1.0  0.74731  0.22771  0.25294  1.0000
  C   C229      1.0  0.90781  0.03091  0.15945  1.0000
  H   H385      1.0  0.86948  0.18473  0.24125  1.0000
  H   H386      1.0  0.62355  0.01662  0.13282  1.0000
  H   H387      1.0  0.65135  0.32480  0.08735  1.0000
  Fe  Fe23      1.0  0.48687  0.19536  0.10158  1.0000
  H   H388      1.0  0.67988  0.40660  0.18038  1.0000
  H   H389      1.0  0.61657  0.28059  0.23379  1.0000
  C   C230      1.0  0.73785  0.32752  0.14609  1.0000
  C   C231      1.0  0.46563  0.46352  0.17711  1.0000
  H   H390      1.0  0.46012  0.98426  0.22339  1.0000
  H   H391      1.0  0.74328  0.08778  0.16945  1.0000
  H   H392      1.0  0.58443  0.39843  0.22543  1.0000
  H   H393      1.0  0.55095  0.33923  0.18324  1.0000
  H   H394      1.0  0.79003  0.13735  0.21620  1.0000
  H   H395      1.0  0.85945  0.12460  0.17905  1.0000
  H   H396      1.0  0.89566  0.44734  0.20498  1.0000
  C   C232      1.0  0.67371  0.37096  0.21089  1.0000
  H   H397      1.0  0.93304  0.07254  0.06995  1.0000
  C   C233      1.0  0.74181  0.05187  0.19965  1.0000
  H   H398      1.0  0.69871  0.98347  0.19929  1.0000
  C   C234      1.0  0.83335  0.11979  0.22327  1.0000
  H   H399      1.0  0.77663  0.24072  0.21183  1.0000
  H   H400      1.0  0.73390  0.13002  0.02560  1.0000
  H   H401      1.0  0.73165  0.01243  0.12661  1.0000
  C   C235      1.0  0.57062  0.32757  0.14199  1.0000
  H   H402      1.0  0.49827  0.43577  0.16681  1.0000
  H   H403      1.0  0.73083  0.38108  0.06207  1.0000
  C   C236      1.0  0.46506  0.01839  0.23928  1.0000
  H   H404      1.0  0.90523  0.22330  0.05107  1.0000
  S   S46       1.0  0.56296  0.23738  0.05301  1.0000
  N   N15       1.0  0.80296  0.03490  0.21337  1.0000
  C   C237      1.0  0.81566  0.20616  0.08082  1.0000
  H   H405      1.0  0.81942  0.32834  0.04799  1.0000
  S   S47       1.0  0.70286  0.18401  0.12153  1.0000
  C   C238      1.0  0.70733  0.01870  0.16906  1.0000
  C   C239      1.0  0.61659  0.37564  0.25218  1.0000
  H   H406      1.0  0.71567  0.26576  0.01874  1.0000
  H   H407      1.0  0.82777  0.01121  0.12931  1.0000
  H   H408      1.0  0.63554  0.38222  0.10616  1.0000
  H   H409      1.0  0.66379  0.25498  0.18465  1.0000
  C   C240      1.0  0.63540  0.34292  0.12544  1.0000
  S   S48       1.0  0.94562  0.28244  0.18300  1.0000
  H   H410      1.0  0.81295  0.22915  0.11378  1.0000
  H   H411      1.0  0.74210  0.29551  0.12400  1.0000
  H   H412      1.0  0.85294  0.35301  0.10344  1.0000
  C   C241      1.0  0.64808  0.04123  0.15357  1.0000
  H   H413      1.0  0.62162  0.04786  0.19487  1.0000
  H   H414      1.0  0.52219  0.38646  0.09239  1.0000
  C   C242      1.0  0.84093  0.03840  0.15456  1.0000
  H   H415      1.0  0.55548  0.34566  0.04657  1.0000
  H   H416      1.0  0.56788  0.28780  0.14975  1.0000
  H   H417      1.0  0.91779  0.99445  0.18468  1.0000
  C   C243      1.0  0.82090  0.36027  0.06924  1.0000
  C   C244      1.0  0.82542  0.06604  0.25271  1.0000
  C   C245      1.0  0.77705  0.45243  0.26080  1.0000
  H   H418      1.0  0.72546  0.19467  0.24767  1.0000
  H   H419      1.0  0.71171  0.36812  0.23799  1.0000
  C   C246      1.0  0.66237  0.28261  0.21344  1.0000
  H   H420      1.0  0.92561  0.05771  0.18230  1.0000
  Fe  Fe24      1.0  0.53093  0.10405  0.05854  1.0000
  C   C247      1.0  0.91735  0.37486  0.19517  1.0000
  H   H421      1.0  0.76431  0.40278  0.12026  1.0000
  C   C248      1.0  0.94113  0.03631  0.09707  1.0000
  C   C249      1.0  0.76033  0.37137  0.09852  1.0000
  H   H422      1.0  0.49142  0.32800  0.09720  1.0000
  C   C250      1.0  0.77116  0.15064  0.03073  1.0000
  H   H423      1.0  0.83636  0.39128  0.03420  1.0000
  C   C251      1.0  0.86838  0.20242  0.04558  1.0000
  H   H424      1.0  0.92784  0.00841  0.07304  1.0000
  C   C252      1.0  0.45405  0.02066  0.02326  1.0000
  H   H425      1.0  0.84848  0.97216  0.25850  1.0000
  S   S49       1.0  0.46954  0.16352  0.02243  1.0000
  C   C253      1.0  0.86459  0.14630  0.26318  1.0000
  S   S50       1.0  0.73366  0.33917  0.50289  1.0000
  H   H426      1.0  0.86754  0.05123  0.26967  1.0000
  H   H427      1.0  0.70751  0.17204  0.36305  1.0000
  C   C254      1.0  0.89164  0.05083  0.42786  1.0000
  H   H428      1.0  0.65333  0.37425  0.33711  1.0000
  H   H429      1.0  0.86647  0.06585  0.38896  1.0000
  H   H430      1.0  0.55208  0.15265  0.39433  1.0000
  C   C255      1.0  0.68481  0.03460  0.40221  1.0000
  H   H431      1.0  0.83899  0.14424  0.30770  1.0000
  S   S51       1.0  0.78898  0.36287  0.32829  1.0000
  H   H432      1.0  0.91571  0.22084  0.34443  1.0000
  H   H433      1.0  0.57881  0.32773  0.42343  1.0000
  H   H434      1.0  0.62193  0.41267  0.45621  1.0000
  H   H435      1.0  0.90911  0.13061  0.26948  1.0000
  C   C256      1.0  0.49698  0.11119  0.49666  1.0000
  C   C257      1.0  0.76288  0.97206  0.30562  1.0000
  C   C258      1.0  0.56493  0.18702  0.40524  1.0000
  H   H436      1.0  0.61293  0.18603  0.40621  1.0000
  H   H437      1.0  0.57037  0.26108  0.35711  1.0000
  H   H438      1.0  0.89827  0.01163  0.42952  1.0000
  H   H439      1.0  0.46028  0.01160  0.28929  1.0000
  C   C259      1.0  0.77020  0.42419  0.31866  1.0000
  Fe  Fe25      1.0  0.74735  0.20827  0.47261  1.0000
  H   H440      1.0  0.49420  0.21427  0.46152  1.0000
  H   H441      1.0  0.67239  0.24810  0.30588  1.0000
  H   H442      1.0  0.55354  0.42983  0.42465  1.0000
  H   H443      1.0  0.72303  0.29475  0.28023  1.0000
  C   C260      1.0  0.65219  0.06299  0.35935  1.0000
  S   S52       1.0  0.57191  0.98575  0.50148  1.0000
  H   H444      1.0  0.67788  0.99625  0.41443  1.0000
  C   C261      1.0  0.66283  0.11226  0.34247  1.0000
  H   H445      1.0  0.46778  0.09304  0.38174  1.0000
  H   H446      1.0  0.63827  0.13424  0.30866  1.0000
  H   H447      1.0  0.50104  0.33369  0.35305  1.0000
  S   S53       1.0  0.82230  0.25833  0.45764  1.0000
  H   H448      1.0  0.58500  0.40722  0.32888  1.0000
  H   H449      1.0  0.61336  0.11866  0.48534  1.0000
  C   C262      1.0  0.94349  0.13060  0.41391  1.0000
  C   C263      1.0  0.54966  0.22711  0.35364  1.0000
  C   C264      1.0  0.72555  0.05582  0.43062  1.0000
  H   H450      1.0  0.74233  0.42367  0.41194  1.0000
  H   H451      1.0  0.88010  0.34830  0.50030  1.0000
  C   C265      1.0  0.74886  0.44532  0.36742  1.0000
  H   H452      1.0  0.86562  0.05598  0.47007  1.0000
  H   H453      1.0  0.59594  0.34098  0.27239  1.0000
  C   C266      1.0  0.73168  0.10572  0.41824  1.0000
  S   S54       1.0  0.59442  0.03761  0.33186  1.0000
  H   H454      1.0  0.71736  0.98509  0.29958  1.0000
  H   H455      1.0  0.56398  0.22149  0.48211  1.0000
  H   H456      1.0  0.90812  0.13953  0.44745  1.0000
  C   C267      1.0  0.59181  0.44344  0.44224  1.0000
  H   H457      1.0  0.93456  0.30521  0.30115  1.0000
  H   H458      1.0  0.65199  0.43283  0.28916  1.0000
  C   C268      1.0  0.48954  0.32590  0.40118  1.0000
  Fe  Fe26      1.0  0.76066  0.31500  0.41623  1.0000
  H   H459      1.0  0.77492  0.21878  0.29115  1.0000
  H   H460      1.0  0.94009  0.43562  0.30935  1.0000
  H   H461      1.0  0.50141  0.23248  0.35361  1.0000
  H   H462      1.0  0.77983  0.98899  0.34053  1.0000
  C   C269      1.0  0.53345  0.32255  0.44090  1.0000
  H   H463      1.0  0.92547  0.14236  0.36984  1.0000
  C   C270      1.0  0.62754  0.39905  0.30500  1.0000
  S   S55       1.0  0.68679  0.26350  0.42470  1.0000
  H   H464      1.0  0.82652  0.43382  0.47229  1.0000
  C   C271      1.0  0.70199  0.13367  0.37281  1.0000
  C   C272      1.0  0.51854  0.31148  0.50313  1.0000
  H   H465      1.0  0.56662  0.21716  0.31016  1.0000
  C   C273      1.0  0.91938  0.32703  0.50971  1.0000
  H   H466      1.0  0.52727  0.08953  0.47047  1.0000
  C   C274      1.0  0.53662  0.19498  0.46749  1.0000
  S   S56       1.0  0.77309  0.13262  0.46304  1.0000
  H   H467      1.0  0.74935  0.03382  0.46506  1.0000
  H   H468      1.0  0.92316  0.29764  0.38106  1.0000
  H   H469      1.0  0.47592  0.44294  0.27092  1.0000
  H   H470      1.0  0.79465  0.06561  0.29391  1.0000
  Fe  Fe27      1.0  0.55963  0.97933  0.40700  1.0000
  H   H471      1.0  0.92959  0.44790  0.45001  1.0000
  C   C275      1.0  0.70120  0.26532  0.26606  1.0000
  H   H472      1.0  0.45061  0.40583  0.46320  1.0000
  N   N16       1.0  0.53058  0.14999  0.51531  1.0000
  Fe  Fe28      1.0  0.78902  0.27797  0.54548  1.0000
  H   H473      1.0  0.66103  0.03764  0.62069  1.0000
  H   H474      1.0  0.55728  0.39932  0.74827  1.0000
  H   H475      1.0  0.66365  0.04591  0.54030  1.0000
  C   C276      1.0  0.91942  0.29107  0.56130  1.0000
  H   H476      1.0  0.64978  0.40116  0.68936  1.0000
  H   H477      1.0  0.46011  0.33990  0.71323  1.0000
  C   C277      1.0  0.59735  0.08947  0.58079  1.0000
  H   H478      1.0  0.85889  0.37291  0.67543  1.0000
  C   C278      1.0  0.65752  0.06480  0.57883  1.0000
  H   H479      1.0  0.51769  0.06343  0.71698  1.0000
  H   H480      1.0  0.84891  0.43655  0.64512  1.0000
  C   C279      1.0  0.68242  0.33760  0.65848  1.0000
  H   H481      1.0  0.56374  0.06180  0.58304  1.0000
  H   H482      1.0  0.58661  0.97670  0.71850  1.0000
  H   H483      1.0  0.93767  0.43186  0.57151  1.0000
  H   H484      1.0  0.59188  0.10380  0.62319  1.0000
  H   H485      1.0  0.46975  0.39361  0.61615  1.0000
  H   H486      1.0  0.72866  0.34925  0.64781  1.0000
  H   H487      1.0  0.84253  0.39193  0.59914  1.0000
  H   H488      1.0  0.61670  0.39556  0.56464  1.0000
  H   H489      1.0  0.88627  0.29081  0.75858  1.0000
  H   H490      1.0  0.54311  0.44156  0.52877  1.0000
  C   C280      1.0  0.86656  0.40167  0.63506  1.0000
  C   C281      1.0  0.49071  0.97314  0.73961  1.0000
  C   C282      1.0  0.64059  0.38099  0.65452  1.0000
  H   H491      1.0  0.50283  0.13144  0.61076  1.0000
  Fe  Fe29      1.0  0.66315  0.28432  0.51452  1.0000
  H   H492      1.0  0.67761  0.31587  0.70485  1.0000
  C   C283      1.0  0.64479  0.41315  0.59081  1.0000
  H   H493      1.0  0.48244  0.99459  0.69472  1.0000
  S   S57       1.0  0.57251  0.30087  0.55394  1.0000
  H   H494      1.0  0.59530  0.36711  0.66569  1.0000
  H   H495      1.0  0.54450  0.43996  0.63265  1.0000
  H   H496      1.0  0.68985  0.41000  0.56855  1.0000
  H   H497      1.0  0.52931  0.19120  0.58585  1.0000
  H   H498      1.0  0.67181  0.31438  0.62706  1.0000
  C   C284      1.0  0.50293  0.16293  0.57322  1.0000
  C   C285      1.0  0.93198  0.40513  0.61433  1.0000
  H   H499      1.0  0.62041  0.16067  0.53250  1.0000
  H   H500      1.0  0.54588  0.14676  0.72956  1.0000
  S   S58       1.0  0.71722  0.22451  0.56360  1.0000
  H   H501      1.0  0.75569  0.41230  0.73332  1.0000
  H   H502      1.0  0.69286  0.09140  0.57475  1.0000
  S   S59       1.0  0.85559  0.28041  0.61007  1.0000
  H   H503      1.0  0.94711  0.36996  0.60471  1.0000
  C   C286      1.0  0.59212  0.13124  0.52593  1.0000
  H   H504      1.0  0.48020  0.08471  0.53689  1.0000
  H   H505      1.0  0.45708  0.40102  0.72493  1.0000
  C   C287      1.0  0.45966  0.30606  0.52547  1.0000
  N   N17       1.0  0.62858  0.46569  0.58817  1.0000
  C   C288      1.0  0.46973  0.93025  0.87308  1.0000
  H   H506      1.0  0.74996  0.83724  0.77716  1.0000
  S   S60       1.0  0.86311  0.48358  0.88635  1.0000
  H   H507      1.0  0.93127  0.85686  0.00518  1.0000
  H   H508      1.0  0.73946  0.47043  0.88291  1.0000
  H   H509      1.0  0.47317  0.90533  0.84085  1.0000
  H   H510      1.0  0.49578  0.92833  0.96339  1.0000
  S   S61       1.0  0.51249  0.68412  0.90819  1.0000
  H   H511      1.0  0.94466  0.72554  0.99043  1.0000
  C   C289      1.0  0.74674  0.47508  0.92761  1.0000
  H   H512      1.0  0.65523  0.47033  0.95922  1.0000
  H   H513      1.0  0.73681  0.58492  0.83713  1.0000
  H   H514      1.0  0.73141  0.67233  0.80939  1.0000
  H   H515      1.0  0.79053  0.73270  0.77699  1.0000
  C   C290      1.0  0.73341  0.65200  0.77216  1.0000
  H   H516      1.0  0.47034  0.78218  0.89695  1.0000
  H   H517      1.0  0.85559  0.49046  0.01283  1.0000
  H   H518      1.0  0.47206  0.87183  0.95003  1.0000
  S   S62       1.0  0.91659  0.57461  0.97463  1.0000
  C   C291      1.0  0.81184  0.48832  0.99998  1.0000
  Fe  Fe30      1.0  0.51533  0.60401  0.94047  1.0000
  H   H519      1.0  0.71146  0.63014  0.01063  1.0000
  C   C292      1.0  0.45449  0.71054  0.94743  1.0000
  H   H520      1.0  0.54317  0.89402  0.91826  1.0000
  H   H521      1.0  0.86005  0.67077  0.98292  1.0000
  H   H522      1.0  0.88554  0.76346  0.00699  1.0000
  C   C293      1.0  0.49700  0.90469  0.92963  1.0000
  C   C294      1.0  0.80345  0.48190  0.94183  1.0000
  Fe  Fe31      1.0  0.52766  0.50544  0.90258  1.0000
  H   H523      1.0  0.65243  0.67354  0.99674  1.0000
  H   H524      1.0  0.56272  0.92486  0.77386  1.0000
  Fe  Fe32      1.0  0.93695  0.52327  0.91192  1.0000
  S   S63       1.0  0.54868  0.46810  0.82372  1.0000
  H   H525      1.0  0.71500  0.57835  0.76520  1.0000
  C   C295      1.0  0.71084  0.60164  0.79946  1.0000
  S   S64       1.0  0.59214  0.55618  0.92313  1.0000
  H   H526      1.0  0.66416  0.60352  0.81719  1.0000
  H   H527      1.0  0.93994  0.82141  0.94708  1.0000
  S   S65       1.0  0.45205  0.55717  0.91087  1.0000
  H   H528      1.0  0.80666  0.80453  0.81855  1.0000
  H   H529      1.0  0.73159  0.78590  0.83654  1.0000
  C   C296      1.0  0.69869  0.47640  0.97046  1.0000
  C   C297      1.0  0.76472  0.80095  0.79924  1.0000
  S   S66       1.0  0.51097  0.46591  0.99790  1.0000
  H   H530      1.0  0.46292  0.76812  0.08155  1.0000
  C   C298      1.0  0.47166  0.64616  0.15717  1.0000
  C   C299      1.0  0.51641  0.66666  0.19242  1.0000
  H   H531      1.0  0.66387  0.68684  0.18686  1.0000
  H   H532      1.0  0.87977  0.80578  0.08271  1.0000
  C   C300      1.0  0.76451  0.50185  0.25190  1.0000
  H   H533      1.0  0.52529  0.78774  0.11305  1.0000
  H   H534      1.0  0.57025  0.55964  0.16318  1.0000
  H   H535      1.0  0.86705  0.63450  0.19376  1.0000
  H   H536      1.0  0.45152  0.77953  0.20375  1.0000
  H   H537      1.0  0.92629  0.86617  0.20464  1.0000
  H   H538      1.0  0.92920  0.60088  0.16694  1.0000
  H   H539      1.0  0.67246  0.60576  0.11629  1.0000
  C   C301      1.0  0.90440  0.83898  0.18553  1.0000
  H   H540      1.0  0.89267  0.80809  0.22263  1.0000
  H   H541      1.0  0.81732  0.64378  0.05122  1.0000
  H   H542      1.0  0.56713  0.62672  0.09895  1.0000
  H   H543      1.0  0.64704  0.60390  0.21207  1.0000
  H   H544      1.0  0.47524  0.66541  0.10950  1.0000
  C   C302      1.0  0.90113  0.57974  0.26252  1.0000
  H   H545      1.0  0.53664  0.91681  0.23250  1.0000
  C   C303      1.0  0.61612  0.69562  0.19140  1.0000
  H   H546      1.0  0.50329  0.81999  0.04228  1.0000
  C   C304      1.0  0.48697  0.79997  0.08747  1.0000
  H   H547      1.0  0.47889  0.60745  0.15723  1.0000
  H   H548      1.0  0.68393  0.74784  0.25127  1.0000
  H   H549      1.0  0.79280  0.95875  0.21624  1.0000
  H   H550      1.0  0.68897  0.66904  0.09798  1.0000
  H   H551      1.0  0.63746  0.60984  0.01614  1.0000
  H   H552      1.0  0.86381  0.85549  0.16701  1.0000
  H   H553      1.0  0.89405  0.50513  0.25770  1.0000
  H   H554      1.0  0.60958  0.72908  0.15760  1.0000
  C   C305      1.0  0.59882  0.60939  0.21833  1.0000
  H   H555      1.0  0.85879  0.70136  0.10571  1.0000
  S   S67       1.0  0.50119  0.57029  0.03833  1.0000
  H   H556      1.0  0.77023  0.49802  0.08634  1.0000
  C   C306      1.0  0.76352  0.49141  0.04220  1.0000
  C   C307      1.0  0.65847  0.64137  0.09152  1.0000
  H   H557      1.0  0.48813  0.49848  0.16963  1.0000
  C   C308      1.0  0.94598  0.82275  0.13616  1.0000
  C   C309      1.0  0.88305  0.69323  0.06418  1.0000
  H   H558      1.0  0.77001  0.52338  0.20696  1.0000
  H   H559      1.0  0.91321  0.66227  0.07676  1.0000
  H   H560      1.0  0.64445  0.51518  0.22254  1.0000
  Fe  Fe33      1.0  0.57257  0.51837  0.01884  1.0000
  H   H561      1.0  0.85773  0.57405  0.18304  1.0000
  H   H562      1.0  0.62145  0.78488  0.22688  1.0000
  H   H563      1.0  0.47342  0.86292  0.12644  1.0000
  H   H564      1.0  0.58164  0.68862  0.08437  1.0000
  H   H565      1.0  0.50337  0.65472  0.24150  1.0000
  N   N18       1.0  0.58079  0.65534  0.17846  1.0000
  C   C310      1.0  0.91635  0.78622  0.10628  1.0000
  H   H566      1.0  0.50830  0.70623  0.18273  1.0000
  H   H567      1.0  0.57465  0.48631  0.24064  1.0000
  H   H568      1.0  0.89468  0.75925  0.14343  1.0000
  C   C311      1.0  0.59916  0.51858  0.24389  1.0000
  S   S68       1.0  0.64552  0.49476  0.07707  1.0000
  C   C312      1.0  0.60321  0.70828  0.25513  1.0000
  H   H569      1.0  0.51540  0.83515  0.21864  1.0000
  C   C313      1.0  0.91798  0.73724  0.02855  1.0000
  C   C314      1.0  0.88812  0.59836  0.19745  1.0000
  C   C315      1.0  0.56894  0.56321  0.21093  1.0000
  C   C316      1.0  0.59410  0.65363  0.11243  1.0000
  H   H570      1.0  0.52285  0.56303  0.23103  1.0000
  C   C317      1.0  0.63584  0.75338  0.25969  1.0000
  C   C318      1.0  0.70673  0.48641  0.02700  1.0000
  C   C319      1.0  0.49017  0.84878  0.25620  1.0000
  C   C320      1.0  0.83834  0.67754  0.02645  1.0000
  C   C321      1.0  0.66515  0.63876  0.02464  1.0000
  H   H571      1.0  0.80372  0.70564  0.01724  1.0000
  Fe  Fe34      1.0  0.75519  0.61803  0.36812  1.0000
  S   S69       1.0  0.58816  0.90219  0.41853  1.0000
  C   C322      1.0  0.73118  0.80243  0.44049  1.0000
  H   H572      1.0  0.61784  0.67851  0.29018  1.0000
  C   C323      1.0  0.92734  0.52800  0.27037  1.0000
  C   C324      1.0  0.84279  0.46853  0.47946  1.0000
  S   S70       1.0  0.84512  0.64185  0.37945  1.0000
  S   S71       1.0  0.46459  0.96244  0.42875  1.0000
  C   C325      1.0  0.47260  0.59416  0.46071  1.0000
  C   C326      1.0  0.52977  0.59370  0.43303  1.0000
  N   N19       1.0  0.94631  0.50612  0.33161  1.0000
  S   S72       1.0  0.78523  0.67932  0.49940  1.0000
  H   H573      1.0  0.72180  0.51134  0.39634  1.0000
  C   C327      1.0  0.73761  0.49507  0.35865  1.0000
  H   H574      1.0  0.62641  0.76136  0.30569  1.0000
  H   H575      1.0  0.86692  0.53323  0.37444  1.0000
  C   C328      1.0  0.89208  0.49905  0.37521  1.0000
  S   S73       1.0  0.83374  0.78366  0.37712  1.0000
  H   H576      1.0  0.92197  0.50895  0.45987  1.0000
  H   H577      1.0  0.61879  0.61455  0.43434  1.0000
  H   H578      1.0  0.61465  0.46989  0.40548  1.0000
  C   C329      1.0  0.74628  0.52348  0.30101  1.0000
  H   H579      1.0  0.86242  0.47381  0.36130  1.0000
  C   C330      1.0  0.69634  0.82455  0.48168  1.0000
  H   H580      1.0  0.54049  0.49733  0.47840  1.0000
  C   C331      1.0  0.57445  0.61607  0.45479  1.0000
  Fe  Fe35      1.0  0.49359  0.88538  0.44879  1.0000
  S   S74       1.0  0.73542  0.58604  0.28952  1.0000
  H   H581      1.0  0.80487  0.90284  0.33694  1.0000
  Fe  Fe36      1.0  0.82420  0.61096  0.47780  1.0000
  S   S75       1.0  0.73767  0.58208  0.46466  1.0000
  C   C332      1.0  0.45962  0.61944  0.50756  1.0000
  C   C333      1.0  0.78072  0.86755  0.49842  1.0000
  H   H582      1.0  0.86151  0.85425  0.44623  1.0000
  S   S76       1.0  0.71176  0.68762  0.38115  1.0000
  H   H583      1.0  0.53989  0.57476  0.39622  1.0000
  H   H584      1.0  0.65036  0.81598  0.49138  1.0000
  H   H585      1.0  0.71158  0.77745  0.41834  1.0000
  C   C334      1.0  0.76023  0.91804  0.32994  1.0000
  H   H586      1.0  0.60086  0.52016  0.29216  1.0000
  C   C335      1.0  0.79064  0.81325  0.42731  1.0000
  H   H587      1.0  0.74016  0.89942  0.29839  1.0000
  C   C336      1.0  0.52710  0.88757  0.27221  1.0000
  H   H588      1.0  0.85917  0.58050  0.29054  1.0000
  H   H589      1.0  0.56937  0.87157  0.28709  1.0000
  Fe  Fe37      1.0  0.79995  0.70871  0.40065  1.0000
  Fe  Fe38      1.0  0.70064  0.65342  0.47855  1.0000
  H   H590      1.0  0.48568  0.81889  0.29569  1.0000
  H   H591      1.0  0.73292  0.91119  0.37378  1.0000
  H   H592      1.0  0.66366  0.48330  0.49511  1.0000
  C   C337      1.0  0.81544  0.84608  0.45603  1.0000
  C   C338      1.0  0.56186  0.63876  0.50422  1.0000
  C   C339      1.0  0.90144  0.48053  0.44225  1.0000
  H   H593      1.0  0.80962  0.49714  0.46723  1.0000
  H   H594      1.0  0.50406  0.90306  0.30960  1.0000
  H   H595      1.0  0.93203  0.64785  0.45123  1.0000
  H   H596      1.0  0.93144  0.60526  0.27452  1.0000
  C   C340      1.0  0.57052  0.46735  0.49535  1.0000
  C   C341      1.0  0.72105  0.85694  0.51086  1.0000
  H   H597      1.0  0.58958  0.61164  0.26666  1.0000
  H   H598      1.0  0.55595  0.71539  0.26625  1.0000
  H   H599      1.0  0.80946  0.70729  0.68547  1.0000
  H   H600      1.0  0.47114  0.79421  0.53376  1.0000
  H   H601      1.0  0.46377  0.55665  0.65041  1.0000
  C   C342      1.0  0.57379  0.47084  0.62948  1.0000
  H   H602      1.0  0.68768  0.65215  0.69283  1.0000
  S   S77       1.0  0.88519  0.56897  0.54098  1.0000
  H   H603      1.0  0.69395  0.46739  0.65088  1.0000
  H   H604      1.0  0.72480  0.59843  0.63318  1.0000
  Fe  Fe39      1.0  0.47915  0.96273  0.52476  1.0000
  H   H605      1.0  0.56079  0.54965  0.59790  1.0000
  S   S78       1.0  0.67635  0.88499  0.56125  1.0000
  C   C343      1.0  0.67275  0.54069  0.61682  1.0000
  H   H606      1.0  0.60221  0.76165  0.70057  1.0000
  C   C344      1.0  0.69476  0.67766  0.72297  1.0000
  H   H607      1.0  0.51457  0.53006  0.70334  1.0000
  H   H608      1.0  0.80924  0.78329  0.71898  1.0000
  C   C345      1.0  0.71678  0.76300  0.72385  1.0000
  H   H609      1.0  0.63947  0.54324  0.65505  1.0000
  H   H610      1.0  0.50905  0.51316  0.57460  1.0000
  H   H611      1.0  0.68578  0.77715  0.61175  1.0000
  H   H612      1.0  0.52515  0.77077  0.63041  1.0000
  C   C346      1.0  0.49121  0.52421  0.66486  1.0000
  H   H613      1.0  0.76584  0.55621  0.59572  1.0000
  H   H614      1.0  0.57609  0.75312  0.57270  1.0000
  H   H615      1.0  0.59055  0.70647  0.67510  1.0000
  C   C347      1.0  0.79875  0.75985  0.60441  1.0000
  H   H616      1.0  0.54459  0.94159  0.63912  1.0000
  H   H617      1.0  0.71955  0.48672  0.57444  1.0000
  C   C348      1.0  0.67424  0.74083  0.63808  1.0000
  H   H618      1.0  0.70821  0.79938  0.69675  1.0000
  C   C349      1.0  0.68057  0.48819  0.60761  1.0000
  H   H619      1.0  0.87380  0.71984  0.57095  1.0000
  H   H620      1.0  0.52436  0.88868  0.69524  1.0000
  H   H621      1.0  0.60024  0.90399  0.67599  1.0000
  H   H622      1.0  0.79089  0.79464  0.61951  1.0000
  C   C350      1.0  0.77560  0.71693  0.65345  1.0000
  H   H623      1.0  0.77572  0.76162  0.56333  1.0000
  C   C351      1.0  0.60846  0.74332  0.66145  1.0000
  H   H624      1.0  0.77963  0.64768  0.75449  1.0000
  H   H625      1.0  0.58666  0.80827  0.59878  1.0000
  H   H626      1.0  0.74305  0.53980  0.67522  1.0000
  H   H627      1.0  0.45711  0.94457  0.74869  1.0000
  H   H628      1.0  0.77436  0.68531  0.63111  1.0000
  S   S79       1.0  0.50288  0.88479  0.54645  1.0000
  C   C352      1.0  0.86433  0.75429  0.58669  1.0000
  C   C353      1.0  0.55521  0.91908  0.68252  1.0000
  H   H629      1.0  0.58553  0.46920  0.67626  1.0000
  H   H630      1.0  0.65929  0.56445  0.57576  1.0000
  H   H631      1.0  0.65118  0.68254  0.74748  1.0000
  N   N20       1.0  0.71634  0.72490  0.68560  1.0000
  C   C354      1.0  0.77401  0.76769  0.75356  1.0000
  C   C355      1.0  0.73016  0.55975  0.63128  1.0000
  C   C356      1.0  0.57201  0.77056  0.61269  1.0000
  H   H632      1.0  0.67810  0.71662  0.60462  1.0000
  C   C357      1.0  0.53490  0.51659  0.61224  1.0000
  H   H633      1.0  0.49418  0.65976  0.56708  1.0000
  C   C358      1.0  0.55214  0.94916  0.73173  1.0000
  H   H634      1.0  0.87879  0.78420  0.54944  1.0000
  H   H635      1.0  0.88983  0.75530  0.62549  1.0000
  H   H636      1.0  0.67990  0.75735  0.76010  1.0000
  H   H637      1.0  0.61519  0.52692  0.51689  1.0000
  C   C359      1.0  0.62178  0.48742  0.52319  1.0000
  S   S80       1.0  0.61833  0.66135  0.53634  1.0000
  C   C360      1.0  0.50427  0.64133  0.52974  1.0000
  Fe  Fe40      1.0  0.59518  0.90757  0.51497  1.0000
  H   H638      1.0  0.79979  0.89281  0.52080  1.0000
  H   H639      1.0  0.46210  0.49281  0.67972  1.0000
  H   H640      1.0  0.84822  0.46593  0.52778  1.0000
