data_image0
_chemical_formula_structural       FeS2FeS2FeS2FeS2HSH2SCHCSHSHC6H4C6H4C6H4C3H6FeH4CH5FeH8CHCH2CHSHCH2C3HCH2C2H3C2HNHFeC3H2CNC3H16C2H2CHSC3HNC2HC2SHC3HCHCH3SH13CHC2H5CH7CH2C3NFeC2HCHCHC2H4CH2NFeS2FeS2FeS2CSH2S2FeS2FeS2FeS2C2HC3HCH2C6H4C6H4C6HCH5CH3SH2CHCH2CH2CHNH8CFeH2CH3C2H9CHCHC2H13CH2CH3CHC4HNH5CHCH3CH2FeSH10C2H2CH2CH3C2H3C2H2S3FeS2FeS2FeCSFeS2FeS2HCSFeSHC6H3C7H4CH3C2H3C7H3NCHCNHC3H2CH4CH9C2HC2H3CH4CH3FeH2CH2C2NCH2SHCFeH3CH13CH3CH2SHCHNC2HC2H2C2H9C3H2CH8CH2CH3CH3CHCHC3HC2H3SH2CHCHCH10C2HC2HCH2CH9CNCSFeSHFeS2FeS2CS2HS2FeS2FeS2C6SCH3C6HFeH2C6H4CH3C3H4C4HC4HCHCH9CH10CHCHCSCHCH2NH4NC3H4C3HCH6CHCHFeHFeCH2C2H2CH5CH3CH5CH8CHNH3CHCH6CH5C3H3C2HCHCH13FeS2FeSHFeS2FeS2FeSFeS3FeHSFeC2H3C6H4C6HNCHC3HC2H5C6H7SC3HC2H3CHCH4CH7NH9NC11H23CH2C2HCH2NH10CHC2H2CHCNH2C2H2NC2HNH7CHC2HC2H2CSC4H2C3H4C2H7SH2C3HCHCH2C2H6CH7CH7C3H7CH2CH2CH7C2HCHC2SCFeHSH2SFeS2FeS2FeSFeS3HC5HFeH3C5H3C7H4C6H4C4H9NC4HC4H2CHCH18CH5CH3C2SC2NHC2H6CHCH2CH10N2H3CHC4H2C2H4SCHCH9FeHC2H3CH2CH7C3H2CH7CSFeH3C2H3C3H2CFeS2FeHSH2SFeS2FeS2FeSFeS3HC6H4C6H5C5H3CHC5HCH5C2FeH3CHCH5CH4C2H2CHCSCH3CH2C4H4CH2NC7H4C2H7CH7CH3CH5CH4CHCH2C2H3CH2CSHC2H2CHCH4NH3CH2C2H5CH6C2FeNCH2C2H5CHCH7CHCH3CHCH2CNH2CHCHCFeS2FeS2FeSFeS3HSHFeSHFeS2H2C4HC2H2CHC6H4C6H4C3HC2H3CH3CHCH6C5HFeHC2HCH2CHC3H4CH8CH2NH4C3HNCH2C2H2NH2C2H2C2H5CH2CHC2H2CHCH4CHCH4NCHC2HCH4CH3CH11SH7CSC2HNH4CH4CHCHFeC2H3C4SCSH2S2HSHFeS2FeS2FeS2FeS2C6H4C6H3C7HCH2CH3C3SHNCHFeC3H3C3FeH2CH8C3HC2H13C3HSH2NCHCHCHC2H9C2H5NHC3HSC2H4CH18C4H3CH4CH4CFe2H12SH3CH2CHCH5CHCHCHS2FeS2HCSHS2CS2FeS2FeS2FeS2C6HCH2C6H4C6H5C3H2SHCHC2HNC10HCH22CH5NC7HC2H15CSHCH5CH2CH3FeC2HCFeHCH2FeH4C2H2CH4NHC2H4FeH7CH13CFeS2FeSHFeS2FeS2HS2FeSHFeS2FeS2C6H8C2H4C6H4C6H4NC2HC3HC2HCH11NH2FeH3CH2CH3C2H2NC8HCHCH14SH3CH4SH8CSHC2HC2H4C2HNC12H22CH6C2H2CHCHC2H7FeS2FeSHFeS2FeS2HS2FeSCH2SFeS2C7H3C6H4CHC3H2C6H4NCHCHSC2HCHC2H2SH9CHCHC2H10FeNCH2C3H3CH7CHCHCHCH6SHCH2CH3CHCHCH2C2HCH2CH6NH2CH6CH3CH3SHCHCFeH2C2H2SH2C2HCHCH6CH6
_chemical_formula_sum              "Fe96 S192 H1536 C864 N48"
_cell_length_a       43.1879
_cell_length_b       43.0837
_cell_length_c       42.775
_cell_angle_alpha    89.7796
_cell_angle_beta     90.0829
_cell_angle_gamma    90.2585

_space_group_name_H-M_alt    "P 1"
_space_group_IT_number       1

loop_
  _space_group_symop_operation_xyz
  'x, y, z'

loop_
  _atom_site_type_symbol
  _atom_site_label
  _atom_site_symmetry_multiplicity
  _atom_site_fract_x
  _atom_site_fract_y
  _atom_site_fract_z
  _atom_site_occupancy
  Fe  Fe1       1.0  0.13602  0.47607  0.23087  1.0000
  S   S1        1.0  0.08406  0.47677  0.23399  1.0000
  S   S2        1.0  0.16463  0.44237  0.20224  1.0000
  Fe  Fe2       1.0  0.09072  0.47708  0.28611  1.0000
  S   S3        1.0  0.06136  0.45147  0.32235  1.0000
  S   S4        1.0  0.14234  0.47243  0.28307  1.0000
  Fe  Fe3       1.0  0.29785  0.38640  0.04803  1.0000
  S   S5        1.0  0.29563  0.43774  0.03949  1.0000
  S   S6        1.0  0.32666  0.36552  0.08738  1.0000
  Fe  Fe4       1.0  0.24398  0.43131  0.03896  1.0000
  S   S7        1.0  0.21029  0.46424  0.06245  1.0000
  S   S8        1.0  0.24603  0.38074  0.05110  1.0000
  H   H1        1.0  0.18268  0.48769  0.43145  1.0000
  S   S9        1.0  0.28000  0.16304  0.48831  1.0000
  H   H2        1.0  0.23066  0.46649  0.36752  1.0000
  H   H3        1.0  0.10038  0.24335  0.37254  1.0000
  S   S10       1.0  0.20029  0.19623  0.46748  1.0000
  C   C1        1.0  0.33326  0.29451  0.02438  1.0000
  H   H4        1.0  0.26405  0.44740  0.23659  1.0000
  C   C2        1.0  0.15827  0.48622  0.43930  1.0000
  S   S11       1.0  0.05226  0.30456  0.33853  1.0000
  H   H5        1.0  0.29504  0.50168  0.24212  1.0000
  S   S12       1.0  0.05357  0.19384  0.45287  1.0000
  H   H6        1.0  0.20379  0.50346  0.20661  1.0000
  C   C3        1.0  0.09404  0.19691  0.45943  1.0000
  C   C4        1.0  0.10889  0.17397  0.47743  1.0000
  C   C5        1.0  0.14135  0.17398  0.48097  1.0000
  C   C6        1.0  0.15928  0.19691  0.46636  1.0000
  C   C7        1.0  0.14439  0.22014  0.44878  1.0000
  C   C8        1.0  0.11192  0.22029  0.44548  1.0000
  H   H7        1.0  0.08857  0.48686  0.42204  1.0000
  H   H8        1.0  0.34477  0.20767  0.48091  1.0000
  H   H9        1.0  0.15810  0.23796  0.43739  1.0000
  H   H10       1.0  0.10077  0.23815  0.43172  1.0000
  C   C9        1.0  0.17665  0.44867  0.16322  1.0000
  C   C10       1.0  0.20082  0.43062  0.15110  1.0000
  C   C11       1.0  0.21110  0.43488  0.12016  1.0000
  C   C12       1.0  0.19732  0.45734  0.10108  1.0000
  C   C13       1.0  0.17281  0.47505  0.11303  1.0000
  C   C14       1.0  0.16242  0.47067  0.14396  1.0000
  H   H11       1.0  0.21173  0.41331  0.16577  1.0000
  H   H12       1.0  0.22997  0.42108  0.11123  1.0000
  H   H13       1.0  0.19905  0.43689  0.26387  1.0000
  H   H14       1.0  0.14345  0.48432  0.15291  1.0000
  C   C15       1.0  0.05870  0.41056  0.32596  1.0000
  C   C16       1.0  0.04159  0.39779  0.35086  1.0000
  C   C17       1.0  0.03888  0.36537  0.35466  1.0000
  C   C18       1.0  0.05370  0.34543  0.33384  1.0000
  C   C19       1.0  0.07107  0.35823  0.30911  1.0000
  C   C20       1.0  0.07356  0.39064  0.30514  1.0000
  H   H15       1.0  0.30120  0.21731  0.07699  1.0000
  H   H16       1.0  0.03062  0.41311  0.36739  1.0000
  H   H17       1.0  0.16250  0.37505  0.14902  1.0000
  H   H18       1.0  0.08692  0.40017  0.28597  1.0000
  C   C21       1.0  0.31835  0.07836  0.43281  1.0000
  C   C22       1.0  0.31959  0.10710  0.41758  1.0000
  C   C23       1.0  0.08851  0.33381  0.02609  1.0000
  H   H19       1.0  0.11836  0.12369  0.28327  1.0000
  H   H20       1.0  0.33487  0.18065  0.26358  1.0000
  H   H21       1.0  0.31123  0.12763  0.42929  1.0000
  H   H22       1.0  0.08897  0.13432  0.33153  1.0000
  H   H23       1.0  0.15913  0.39073  0.38546  1.0000
  H   H24       1.0  0.14107  0.20269  0.36547  1.0000
  Fe  Fe5       1.0  0.22904  0.16442  0.49870  1.0000
  H   H25       1.0  0.12186  0.40328  0.09238  1.0000
  H   H26       1.0  0.08424  0.23297  0.33492  1.0000
  H   H27       1.0  0.09862  0.36096  0.12032  1.0000
  H   H28       1.0  0.19297  0.27837  0.06289  1.0000
  C   C24       1.0  0.34246  0.08280  0.37148  1.0000
  H   H29       1.0  0.02998  0.12395  0.43542  1.0000
  H   H30       1.0  0.13446  0.11213  0.43143  1.0000
  H   H31       1.0  0.11432  0.47639  0.35515  1.0000
  H   H32       1.0  0.15210  0.43006  0.05688  1.0000
  H   H33       1.0  0.22427  0.49837  0.34091  1.0000
  Fe  Fe6       1.0  0.02207  0.27846  0.37362  1.0000
  H   H34       1.0  0.07437  0.17849  0.35584  1.0000
  H   H35       1.0  0.02584  0.35566  0.37392  1.0000
  H   H36       1.0  0.12285  0.24850  0.33751  1.0000
  H   H37       1.0  0.07887  0.36310  0.06596  1.0000
  H   H38       1.0  0.27626  0.31997  0.11060  1.0000
  H   H39       1.0  0.06410  0.29379  0.04577  1.0000
  H   H40       1.0  0.17204  0.46805  0.48495  1.0000
  H   H41       1.0  0.09728  0.42312  0.40051  1.0000
  C   C25       1.0  0.13679  0.37546  0.14882  1.0000
  H   H42       1.0  0.18540  0.43810  0.38941  1.0000
  C   C26       1.0  0.02803  0.11453  0.41132  1.0000
  H   H43       1.0  0.15590  0.15603  0.37904  1.0000
  H   H44       1.0  0.32805  0.06238  0.19116  1.0000
  C   C27       1.0  0.18206  0.11772  0.41862  1.0000
  H   H45       1.0  0.32760  0.02948  0.42860  1.0000
  S   S13       1.0  0.02680  0.27954  0.42599  1.0000
  H   H46       1.0  0.06764  0.51227  0.35814  1.0000
  C   C28       1.0  0.09581  0.17887  0.37029  1.0000
  H   H47       1.0  0.11297  0.42166  0.36217  1.0000
  H   H48       1.0  0.23997  0.31031  0.09246  1.0000
  C   C29       1.0  0.12351  0.39362  0.03488  1.0000
  C   C30       1.0  0.05958  0.31356  0.02967  1.0000
  C   C31       1.0  0.33178  0.10932  0.38712  1.0000
  H   H49       1.0  0.08433  0.14327  0.42287  1.0000
  C   C32       1.0  0.14781  0.11654  0.40963  1.0000
  H   H50       1.0  0.07036  0.46466  0.39135  1.0000
  H   H51       1.0  0.26053  0.28106  0.11432  1.0000
  C   C33       1.0  0.23944  0.45443  0.23871  1.0000
  C   C34       1.0  0.29562  0.18649  0.03838  1.0000
  H   H52       1.0  0.22521  0.40751  0.25055  1.0000
  H   H53       1.0  0.26641  0.27323  0.05709  1.0000
  H   H54       1.0  0.04582  0.12345  0.36507  1.0000
  C   C35       1.0  0.08627  0.48430  0.39637  1.0000
  C   C36       1.0  0.31812  0.24076  0.03408  1.0000
  H   H55       1.0  0.13079  0.50164  0.38284  1.0000
  N   N1        1.0  0.10642  0.14619  0.37750  1.0000
  H   H56       1.0  0.25092  0.48808  0.27341  1.0000
  Fe  Fe7       1.0  0.27788  0.11199  0.49757  1.0000
  C   C37       1.0  0.08299  0.13191  0.39959  1.0000
  C   C38       1.0  0.10745  0.12682  0.34808  1.0000
  C   C39       1.0  0.13859  0.12601  0.32997  1.0000
  H   H57       1.0  0.15908  0.43675  0.43588  1.0000
  H   H58       1.0  0.12831  0.36189  0.16923  1.0000
  C   C40       1.0  0.18262  0.48141  0.36353  1.0000
  N   N2        1.0  0.13750  0.45285  0.39314  1.0000
  C   C41       1.0  0.13467  0.11033  0.29820  1.0000
  C   C42       1.0  0.10567  0.23322  0.34931  1.0000
  C   C43       1.0  0.31349  0.28066  0.07608  1.0000
  H   H59       1.0  0.18878  0.09564  0.43022  1.0000
  H   H60       1.0  0.28066  0.31250  0.05296  1.0000
  H   H61       1.0  0.18647  0.13698  0.43524  1.0000
  H   H62       1.0  0.12581  0.08624  0.30116  1.0000
  H   H63       1.0  0.21268  0.49237  0.25868  1.0000
  H   H64       1.0  0.08839  0.10704  0.40402  1.0000
  H   H65       1.0  0.10181  0.10207  0.35335  1.0000
  H   H66       1.0  0.23635  0.49549  0.18324  1.0000
  H   H67       1.0  0.15608  0.11256  0.34331  1.0000
  H   H68       1.0  0.14834  0.14940  0.32589  1.0000
  H   H69       1.0  0.12148  0.45162  0.44105  1.0000
  H   H70       1.0  0.14406  0.09663  0.39368  1.0000
  H   H71       1.0  0.15938  0.38677  0.09213  1.0000
  H   H72       1.0  0.31152  0.26292  0.09479  1.0000
  H   H73       1.0  0.23558  0.43097  0.28385  1.0000
  H   H74       1.0  0.12285  0.19179  0.32882  1.0000
  C   C44       1.0  0.14335  0.45553  0.42783  1.0000
  C   C45       1.0  0.13708  0.14747  0.39447  1.0000
  H   H75       1.0  0.13902  0.39109  0.42233  1.0000
  H   H76       1.0  0.16804  0.49169  0.34482  1.0000
  C   C46       1.0  0.34092  0.05399  0.38655  1.0000
  H   H77       1.0  0.12881  0.39981  0.15140  1.0000
  S   S14       1.0  0.02390  0.22617  0.37091  1.0000
  C   C47       1.0  0.13432  0.38081  0.08964  1.0000
  C   C48       1.0  0.11879  0.20045  0.35276  1.0000
  C   C49       1.0  0.12430  0.36135  0.11858  1.0000
  H   H78       1.0  0.33688  0.20196  0.06116  1.0000
  N   N3        1.0  0.12803  0.36709  0.05766  1.0000
  C   C50       1.0  0.09837  0.34830  0.05783  1.0000
  C   C51       1.0  0.28018  0.29179  0.06850  1.0000
  H   H79       1.0  0.32574  0.30041  0.08734  1.0000
  C   C52       1.0  0.15524  0.34825  0.04662  1.0000
  C   C53       1.0  0.16274  0.31846  0.06538  1.0000
  S   S15       1.0  0.30522  0.07467  0.47185  1.0000
  H   H80       1.0  0.14549  0.50686  0.43097  1.0000
  C   C54       1.0  0.33191  0.05518  0.16659  1.0000
  C   C55       1.0  0.34420  0.15943  0.25240  1.0000
  C   C56       1.0  0.18698  0.29898  0.04849  1.0000
  H   H81       1.0  0.32802  0.07555  0.15112  1.0000
  C   C57       1.0  0.11826  0.47936  0.38073  1.0000
  H   H82       1.0  0.09948  0.32893  0.07489  1.0000
  C   C58       1.0  0.21466  0.47597  0.34956  1.0000
  H   H83       1.0  0.15740  0.10934  0.28613  1.0000
  H   H84       1.0  0.17785  0.29082  0.02564  1.0000
  H   H85       1.0  0.15225  0.34183  0.02169  1.0000
  S   S16       1.0  0.22610  0.11255  0.50349  1.0000
  H   H86       1.0  0.17682  0.36235  0.04709  1.0000
  H   H87       1.0  0.14210  0.30351  0.06871  1.0000
  H   H88       1.0  0.17262  0.32481  0.08846  1.0000
  H   H89       1.0  0.13600  0.16486  0.41355  1.0000
  H   H90       1.0  0.28260  0.48553  0.20638  1.0000
  H   H91       1.0  0.08273  0.34295  0.29298  1.0000
  H   H92       1.0  0.03459  0.08964  0.41142  1.0000
  H   H93       1.0  0.13480  0.48739  0.48443  1.0000
  H   H94       1.0  0.13235  0.33707  0.11738  1.0000
  H   H95       1.0  0.08938  0.19082  0.39236  1.0000
  H   H96       1.0  0.17007  0.50979  0.48242  1.0000
  H   H97       1.0  0.03991  0.32743  0.03867  1.0000
  H   H98       1.0  0.15253  0.15594  0.49449  1.0000
  C   C59       1.0  0.13605  0.39259  0.39660  1.0000
  H   H99       1.0  0.22857  0.45229  0.21537  1.0000
  C   C60       1.0  0.23714  0.48806  0.25146  1.0000
  C   C61       1.0  0.14959  0.41854  0.03390  1.0000
  H   H100      1.0  0.21308  0.45969  0.32956  1.0000
  H   H101      1.0  0.12886  0.34268  0.39412  1.0000
  H   H102      1.0  0.09365  0.36469  0.39719  1.0000
  H   H103      1.0  0.18505  0.49879  0.38229  1.0000
  H   H104      1.0  0.17218  0.40833  0.02739  1.0000
  C   C62       1.0  0.26328  0.30127  0.09836  1.0000
  H   H105      1.0  0.32554  0.14160  0.25175  1.0000
  H   H106      1.0  0.11477  0.36376  0.36067  1.0000
  H   H107      1.0  0.16449  0.43654  0.35365  1.0000
  H   H108      1.0  0.31478  0.03672  0.16088  1.0000
  H   H109      1.0  0.20838  0.31278  0.04435  1.0000
  H   H110      1.0  0.19678  0.12106  0.39760  1.0000
  H   H111      1.0  0.09525  0.15580  0.48832  1.0000
  C   C63       1.0  0.16773  0.45064  0.37527  1.0000
  H   H112      1.0  0.29342  0.16578  0.05378  1.0000
  H   H113      1.0  0.04005  0.15731  0.38907  1.0000
  C   C64       1.0  0.11947  0.42324  0.38738  1.0000
  C   C65       1.0  0.11709  0.36431  0.38652  1.0000
  C   C66       1.0  0.22387  0.43114  0.26073  1.0000
  N   N4        1.0  0.33246  0.26911  0.04892  1.0000
  Fe  Fe8       1.0  0.02509  0.22749  0.42345  1.0000
  C   C67       1.0  0.28117  0.50693  0.22080  1.0000
  C   C68       1.0  0.31393  0.21187  0.05525  1.0000
  H   H114      1.0  0.10141  0.40589  0.03998  1.0000
  C   C69       1.0  0.04865  0.13307  0.38894  1.0000
  H   H115      1.0  0.33272  0.13167  0.37555  1.0000
  C   C70       1.0  0.07076  0.51370  0.38389  1.0000
  H   H116      1.0  0.16190  0.49234  0.09834  1.0000
  C   C71       1.0  0.15875  0.48778  0.47498  1.0000
  C   C72       1.0  0.22733  0.51242  0.20060  1.0000
  H   H117      1.0  0.33481  0.50165  0.18526  1.0000
  H   H118      1.0  0.33853  0.31725  0.03547  1.0000
  H   H119      1.0  0.34245  0.14979  0.48158  1.0000
  H   H120      1.0  0.27196  0.19473  0.03247  1.0000
  C   C73       1.0  0.32901  0.05184  0.41713  1.0000
  H   H121      1.0  0.33152  0.19252  0.44407  1.0000
  H   H122      1.0  0.29526  0.24657  0.02357  1.0000
  N   N5        1.0  0.24793  0.51338  0.22940  1.0000
  Fe  Fe9       1.0  0.04675  0.24196  0.88169  1.0000
  S   S17       1.0  0.04805  0.25302  0.93322  1.0000
  S   S18       1.0  0.08313  0.20976  0.86089  1.0000
  Fe  Fe10      1.0  0.05056  0.30292  0.91830  1.0000
  S   S19       1.0  0.07988  0.34224  0.93826  1.0000
  S   S20       1.0  0.05226  0.29207  0.86719  1.0000
  Fe  Fe11      1.0  0.11083  0.03763  0.79885  1.0000
  S   S21       1.0  0.16232  0.03586  0.80753  1.0000
  S   S22       1.0  0.07289  0.06807  0.81907  1.0000
  C   C74       1.0  0.09760  0.41807  0.86186  1.0000
  S   S23       1.0  0.20383  0.05720  0.72990  1.0000
  H   H123      1.0  0.21209  0.13592  0.78996  1.0000
  H   H124      1.0  0.34326  0.31648  0.66367  1.0000
  S   S24       1.0  0.24169  0.42364  0.98672  1.0000
  S   S25       1.0  0.22149  0.33226  0.97821  1.0000
  Fe  Fe12      1.0  0.29384  0.42547  0.98822  1.0000
  S   S26       1.0  0.32836  0.45028  0.95638  1.0000
  S   S27       1.0  0.29940  0.37424  0.99713  1.0000
  Fe  Fe13      1.0  0.23582  0.12096  0.55470  1.0000
  S   S28       1.0  0.23639  0.17327  0.54994  1.0000
  S   S29       1.0  0.20195  0.09366  0.58545  1.0000
  Fe  Fe14      1.0  0.28755  0.16806  0.54005  1.0000
  S   S30       1.0  0.32566  0.20388  0.54952  1.0000
  S   S31       1.0  0.28762  0.11653  0.54913  1.0000
  C   C75       1.0  0.32066  0.47413  0.85174  1.0000
  C   C76       1.0  0.31907  0.36751  0.90500  1.0000
  H   H125      1.0  0.16721  0.15527  0.69720  1.0000
  C   C77       1.0  0.32417  0.45986  0.91628  1.0000
  C   C78       1.0  0.29759  0.45213  0.89919  1.0000
  C   C79       1.0  0.29591  0.45918  0.86702  1.0000
  H   H126      1.0  0.02025  0.38366  0.94448  1.0000
  C   C80       1.0  0.14422  0.12234  0.74690  1.0000
  H   H127      1.0  0.27847  0.44055  0.91074  1.0000
  H   H128      1.0  0.27538  0.45294  0.85394  1.0000
  C   C81       1.0  0.20354  0.08361  0.62562  1.0000
  C   C82       1.0  0.22853  0.09176  0.64476  1.0000
  C   C83       1.0  0.22839  0.08338  0.67667  1.0000
  C   C84       1.0  0.20339  0.06675  0.68963  1.0000
  C   C85       1.0  0.17837  0.05876  0.67053  1.0000
  C   C86       1.0  0.17841  0.06728  0.63871  1.0000
  H   H129      1.0  0.24790  0.10449  0.63501  1.0000
  H   H130      1.0  0.24778  0.08976  0.69137  1.0000
  H   H131      1.0  0.10719  0.09448  0.70430  1.0000
  H   H132      1.0  0.33246  0.23284  0.01414  1.0000
  C   C87       1.0  0.11991  0.33896  0.94655  1.0000
  C   C88       1.0  0.13459  0.31018  0.94859  1.0000
  C   C89       1.0  0.16595  0.30853  0.95759  1.0000
  C   C90       1.0  0.18281  0.33556  0.96481  1.0000
  C   C91       1.0  0.16826  0.36440  0.96217  1.0000
  C   C92       1.0  0.13700  0.36604  0.95288  1.0000
  H   H133      1.0  0.12168  0.28915  0.94369  1.0000
  H   H134      1.0  0.17703  0.28612  0.95944  1.0000
  H   H135      1.0  0.18102  0.38538  0.96749  1.0000
  H   H136      1.0  0.12584  0.38839  0.95105  1.0000
  C   C93       1.0  0.07970  0.17014  0.85018  1.0000
  C   C94       1.0  0.05107  0.15490  0.84888  1.0000
  C   C95       1.0  0.04943  0.12365  0.83931  1.0000
  C   C96       1.0  0.07631  0.10732  0.83102  1.0000
  C   C97       1.0  0.10494  0.12249  0.83246  1.0000
  C   C98       1.0  0.10659  0.15377  0.84190  1.0000
  H   H137      1.0  0.05823  0.36827  0.84938  1.0000
  C   C99       1.0  0.02158  0.42993  0.81467  1.0000
  H   H138      1.0  0.12579  0.10999  0.82668  1.0000
  H   H139      1.0  0.12883  0.16535  0.84299  1.0000
  H   H140      1.0  0.07039  0.20890  0.75555  1.0000
  H   H141      1.0  0.34217  0.16258  0.60132  1.0000
  H   H142      1.0  0.08248  0.43168  0.81528  1.0000
  C   C100      1.0  0.09890  0.11758  0.71243  1.0000
  H   H143      1.0  0.14487  0.16627  0.61506  1.0000
  H   H144      1.0  0.02102  0.36991  0.83271  1.0000
  H   H145      1.0  0.31116  0.21912  0.62370  1.0000
  S   S32       1.0  0.11503  0.03528  0.74657  1.0000
  H   H146      1.0  0.28229  0.22532  0.65331  1.0000
  H   H147      1.0  0.28695  0.46257  0.66216  1.0000
  C   C101      1.0  0.09320  0.20872  0.76759  1.0000
  H   H148      1.0  0.02768  0.42412  0.93654  1.0000
  C   C102      1.0  0.13201  0.15085  0.66173  1.0000
  H   H149      1.0  0.17547  0.16265  0.75387  1.0000
  H   H150      1.0  0.19345  0.12941  0.73647  1.0000
  C   C103      1.0  0.10878  0.17717  0.76394  1.0000
  H   H151      1.0  0.13043  0.17770  0.77792  1.0000
  H   H152      1.0  0.08924  0.21345  0.79275  1.0000
  C   C104      1.0  0.04931  0.08937  0.72750  1.0000
  H   H153      1.0  0.08491  0.10233  0.75978  1.0000
  N   N6        1.0  0.12628  0.13784  0.72090  1.0000
  H   H154      1.0  0.03981  0.32594  0.79850  1.0000
  H   H155      1.0  0.18377  0.02357  0.58390  1.0000
  H   H156      1.0  0.30728  0.38079  0.85818  1.0000
  H   H157      1.0  0.07926  0.32917  0.81266  1.0000
  H   H158      1.0  0.33788  0.35576  0.91812  1.0000
  H   H159      1.0  0.16133  0.46130  0.00972  1.0000
  H   H160      1.0  0.34197  0.07369  0.55723  1.0000
  H   H161      1.0  0.11711  0.17137  0.66567  1.0000
  C   C105      1.0  0.02577  0.41918  0.87084  1.0000
  Fe  Fe15      1.0  0.16594  0.03015  0.75513  1.0000
  H   H162      1.0  0.06972  0.02427  0.63448  1.0000
  H   H163      1.0  0.14848  0.09753  0.74108  1.0000
  C   C106      1.0  0.11599  0.17037  0.72903  1.0000
  H   H164      1.0  0.06250  0.13410  0.74388  1.0000
  H   H165      1.0  0.17041  0.17985  0.64549  1.0000
  H   H166      1.0  0.08281  0.35210  0.00874  1.0000
  C   C107      1.0  0.14238  0.44377  0.00979  1.0000
  C   C108      1.0  0.07273  0.43116  0.83932  1.0000
  H   H167      1.0  0.18949  0.10079  0.78748  1.0000
  H   H168      1.0  0.33019  0.34622  0.86137  1.0000
  H   H169      1.0  0.11765  0.13197  0.65150  1.0000
  H   H170      1.0  0.07108  0.33314  0.77156  1.0000
  H   H171      1.0  0.15756  0.11638  0.68788  1.0000
  H   H172      1.0  0.08256  0.04384  0.66940  1.0000
  H   H173      1.0  0.09515  0.17668  0.71505  1.0000
  H   H174      1.0  0.31570  0.26472  0.67900  1.0000
  H   H175      1.0  0.10082  0.39274  0.85906  1.0000
  C   C109      1.0  0.03107  0.39375  0.89603  1.0000
  H   H176      1.0  0.34468  0.36921  0.69092  1.0000
  C   C110      1.0  0.15638  0.15977  0.63737  1.0000
  H   H177      1.0  0.05945  0.06660  0.72126  1.0000
  C   C111      1.0  0.17633  0.13693  0.75428  1.0000
  C   C112      1.0  0.32643  0.24783  0.66283  1.0000
  H   H178      1.0  0.13065  0.12145  0.76885  1.0000
  H   H179      1.0  0.09345  0.15951  0.77463  1.0000
  H   H180      1.0  0.03253  0.08550  0.74682  1.0000
  H   H181      1.0  0.08131  0.38415  0.79616  1.0000
  H   H182      1.0  0.33289  0.42453  0.73364  1.0000
  H   H183      1.0  0.10701  0.31890  0.01640  1.0000
  H   H184      1.0  0.10810  0.22753  0.75798  1.0000
  H   H185      1.0  0.15880  0.06150  0.62410  1.0000
  H   H186      1.0  0.13742  0.42845  0.83218  1.0000
  H   H187      1.0  0.13394  0.18776  0.72217  1.0000
  H   H188      1.0  0.09113  0.42311  0.88641  1.0000
  H   H189      1.0  0.17199  0.13995  0.63272  1.0000
  H   H190      1.0  0.03664  0.09885  0.70699  1.0000
  C   C113      1.0  0.04433  0.38099  0.83171  1.0000
  H   H191      1.0  0.30658  0.42656  0.76620  1.0000
  H   H192      1.0  0.03023  0.16722  0.85515  1.0000
  C   C114      1.0  0.18840  0.12653  0.78622  1.0000
  H   H193      1.0  0.33417  0.22727  0.67645  1.0000
  H   H194      1.0  0.29186  0.25617  0.62638  1.0000
  H   H195      1.0  0.17319  0.13523  0.80514  1.0000
  C   C115      1.0  0.07442  0.11207  0.73829  1.0000
  H   H196      1.0  0.08579  0.12779  0.69255  1.0000
  C   C116      1.0  0.07956  0.02079  0.65823  1.0000
  C   C117      1.0  0.32734  0.37010  0.87033  1.0000
  C   C118      1.0  0.14723  0.13951  0.69262  1.0000
  C   C119      1.0  0.06230  0.33822  0.79537  1.0000
  H   H197      1.0  0.12757  0.45898  0.85947  1.0000
  N   N7        1.0  0.04164  0.41506  0.83956  1.0000
  H   H198      1.0  0.33136  0.31861  0.96372  1.0000
  H   H199      1.0  0.14623  0.42412  0.87315  1.0000
  H   H200      1.0  0.15888  0.04653  0.68052  1.0000
  H   H201      1.0  0.12131  0.38480  0.01067  1.0000
  H   H202      1.0  0.07012  0.45597  0.84576  1.0000
  C   C120      1.0  0.30148  0.23649  0.64010  1.0000
  H   H203      1.0  0.29740  0.35380  0.90787  1.0000
  C   C121      1.0  0.12907  0.43346  0.85619  1.0000
  H   H204      1.0  0.05292  0.30402  0.00648  1.0000
  H   H205      1.0  0.03193  0.44208  0.88119  1.0000
  H   H206      1.0  0.31537  0.39080  0.91527  1.0000
  C   C122      1.0  0.05824  0.37322  0.79926  1.0000
  H   H207      1.0  0.02719  0.11204  0.83839  1.0000
  H   H208      1.0  0.34410  0.27816  0.62693  1.0000
  Fe  Fe16      1.0  0.24725  0.37324  0.99919  1.0000
  S   S33       1.0  0.31813  0.48153  0.81109  1.0000
  H   H209      1.0  0.31776  0.38922  0.75065  1.0000
  H   H210      1.0  0.33192  0.37473  0.80473  1.0000
  H   H211      1.0  0.05592  0.38945  0.89990  1.0000
  H   H212      1.0  0.03157  0.47970  0.82267  1.0000
  H   H213      1.0  0.14067  0.43367  0.98600  1.0000
  H   H214      1.0  0.31008  0.29730  0.01327  1.0000
  H   H215      1.0  0.02019  0.37153  0.88868  1.0000
  H   H216      1.0  0.12038  0.45565  0.01564  1.0000
  H   H217      1.0  0.12651  0.01976  0.64270  1.0000
  H   H218      1.0  0.03366  0.43017  0.79172  1.0000
  C   C123      1.0  0.32591  0.41311  0.75588  1.0000
  C   C124      1.0  0.01663  0.40272  0.92729  1.0000
  H   H219      1.0  0.32749  0.41263  0.82035  1.0000
  H   H220      1.0  0.04263  0.38109  0.78021  1.0000
  C   C125      1.0  0.34478  0.39660  0.80984  1.0000
  H   H221      1.0  0.31608  0.48944  0.67550  1.0000
  H   H222      1.0  0.30763  0.17946  0.01658  1.0000
  C   C126      1.0  0.29139  0.48712  0.66865  1.0000
  H   H223      1.0  0.27420  0.47967  0.71496  1.0000
  H   H224      1.0  0.21242  0.45936  0.78834  1.0000
  H   H225      1.0  0.25362  0.46581  0.78685  1.0000
  C   C127      1.0  0.23075  0.47750  0.78763  1.0000
  C   C128      1.0  0.22640  0.49808  0.75876  1.0000
  H   H226      1.0  0.28682  0.50188  0.64781  1.0000
  H   H227      1.0  0.24610  0.49384  0.68687  1.0000
  H   H228      1.0  0.22796  0.48306  0.73798  1.0000
  C   C129      1.0  0.27014  0.49635  0.69552  1.0000
  C   C130      1.0  0.34707  0.48216  0.86888  1.0000
  H   H229      1.0  0.22935  0.49145  0.80938  1.0000
  H   H230      1.0  0.20255  0.50765  0.75955  1.0000
  S   S34       1.0  0.09240  0.52943  0.28934  1.0000
  S   S35       1.0  0.26995  0.59329  0.48137  1.0000
  S   S36       1.0  0.31461  0.65972  0.44099  1.0000
  Fe  Fe17      1.0  0.21962  0.60547  0.47916  1.0000
  S   S37       1.0  0.18115  0.58048  0.45264  1.0000
  S   S38       1.0  0.22880  0.65625  0.47187  1.0000
  Fe  Fe18      1.0  0.24028  0.86222  0.05612  1.0000
  S   S39       1.0  0.24867  0.91380  0.05876  1.0000
  S   S40       1.0  0.21117  0.83601  0.09198  1.0000
  Fe  Fe19      1.0  0.29922  0.90216  0.05773  1.0000
  C   C131      1.0  0.04086  0.94340  0.19882  1.0000
  S   S41       1.0  0.29100  0.85069  0.05869  1.0000
  Fe  Fe20      1.0  0.03690  0.78651  0.11664  1.0000
  S   S42       1.0  0.04056  0.78567  0.16885  1.0000
  S   S43       1.0  0.06549  0.81552  0.08287  1.0000
  Fe  Fe21      1.0  0.03272  0.73412  0.16487  1.0000
  S   S44       1.0  0.06522  0.70446  0.19398  1.0000
  S   S45       1.0  0.03276  0.73484  0.11238  1.0000
  H   H231      1.0  0.04960  0.92865  0.21816  1.0000
  C   C132      1.0  0.33242  0.52415  0.19762  1.0000
  S   S46       1.0  0.18316  0.54933  0.30739  1.0000
  Fe  Fe22      1.0  0.08967  0.52887  0.23676  1.0000
  S   S47       1.0  0.05648  0.55768  0.20725  1.0000
  H   H232      1.0  0.24326  0.55632  0.17825  1.0000
  C   C133      1.0  0.06130  0.66388  0.19872  1.0000
  C   C134      1.0  0.08333  0.64789  0.21674  1.0000
  C   C135      1.0  0.08175  0.61542  0.22014  1.0000
  C   C136      1.0  0.05814  0.59867  0.20538  1.0000
  C   C137      1.0  0.03594  0.61471  0.18754  1.0000
  C   C138      1.0  0.03746  0.64721  0.18423  1.0000
  H   H233      1.0  0.10180  0.66068  0.22804  1.0000
  H   H234      1.0  0.09894  0.60332  0.23392  1.0000
  H   H235      1.0  0.34406  0.54244  0.18345  1.0000
  C   C139      1.0  0.12919  0.69320  0.12885  1.0000
  C   C140      1.0  0.17065  0.83066  0.08905  1.0000
  C   C141      1.0  0.15495  0.81495  0.11321  1.0000
  C   C142      1.0  0.12272  0.81006  0.11165  1.0000
  C   C143      1.0  0.10599  0.82079  0.08582  1.0000
  C   C144      1.0  0.12162  0.83678  0.06184  1.0000
  C   C145      1.0  0.15385  0.84164  0.06337  1.0000
  H   H236      1.0  0.16781  0.80643  0.13316  1.0000
  H   H237      1.0  0.11086  0.79800  0.13038  1.0000
  H   H238      1.0  0.33355  0.61379  0.50718  1.0000
  H   H239      1.0  0.16569  0.85382  0.04469  1.0000
  C   C146      1.0  0.26269  0.58171  0.28788  1.0000
  H   H240      1.0  0.15000  0.61538  0.50586  1.0000
  H   H241      1.0  0.21732  0.52243  0.13720  1.0000
  H   H242      1.0  0.27505  0.58370  0.31058  1.0000
  C   C147      1.0  0.30387  0.95344  0.13124  1.0000
  C   C148      1.0  0.29993  0.96759  0.16059  1.0000
  H   H243      1.0  0.29725  0.75882  0.39269  1.0000
  H   H244      1.0  0.28478  0.95230  0.11487  1.0000
  H   H245      1.0  0.27765  0.97715  0.16679  1.0000
  C   C149      1.0  0.18175  0.55993  0.34731  1.0000
  C   C150      1.0  0.15431  0.55795  0.36451  1.0000
  C   C151      1.0  0.15447  0.56463  0.39672  1.0000
  C   C152      1.0  0.18186  0.57396  0.41185  1.0000
  C   C153      1.0  0.20910  0.57684  0.39445  1.0000
  C   C154      1.0  0.20904  0.56970  0.36235  1.0000
  C   C155      1.0  0.09893  0.59392  0.13019  1.0000
  H   H246      1.0  0.08487  0.53455  0.38950  1.0000
  H   H247      1.0  0.23034  0.58398  0.40586  1.0000
  H   H248      1.0  0.23037  0.57134  0.34927  1.0000
  N   N8        1.0  0.04909  0.89991  0.15778  1.0000
  C   C156      1.0  0.07572  0.91649  0.14208  1.0000
  H   H249      1.0  0.14070  0.65279  0.07871  1.0000
  C   C157      1.0  0.06189  0.87868  0.18278  1.0000
  N   N9        1.0  0.30154  0.86097  0.17736  1.0000
  H   H250      1.0  0.15543  0.66048  0.48461  1.0000
  C   C158      1.0  0.09790  0.89576  0.12272  1.0000
  C   C159      1.0  0.12615  0.60593  0.50502  1.0000
  C   C160      1.0  0.10980  0.62837  0.12888  1.0000
  H   H251      1.0  0.05989  0.61592  0.09185  1.0000
  H   H252      1.0  0.29874  0.72462  0.45577  1.0000
  C   C161      1.0  0.12496  0.91472  0.10962  1.0000
  H   H253      1.0  0.14043  0.89934  0.09598  1.0000
  H   H254      1.0  0.09025  0.92850  0.15985  1.0000
  H   H255      1.0  0.06711  0.93529  0.12643  1.0000
  H   H256      1.0  0.27285  0.75544  0.44413  1.0000
  C   C162      1.0  0.01803  0.89809  0.10581  1.0000
  H   H257      1.0  0.07939  0.89103  0.19732  1.0000
  H   H258      1.0  0.07468  0.85910  0.17193  1.0000
  H   H259      1.0  0.04528  0.86076  0.12629  1.0000
  H   H260      1.0  0.14939  0.68750  0.11408  1.0000
  H   H261      1.0  0.23851  0.58981  0.29118  1.0000
  H   H262      1.0  0.06012  0.95843  0.19049  1.0000
  H   H263      1.0  0.10782  0.87687  0.13721  1.0000
  H   H264      1.0  0.08566  0.88515  0.10258  1.0000
  H   H265      1.0  0.27107  0.82114  0.17500  1.0000
  C   C163      1.0  0.28692  0.73572  0.43556  1.0000
  C   C164      1.0  0.33418  0.84717  0.34073  1.0000
  H   H266      1.0  0.05189  0.68378  0.07035  1.0000
  C   C165      1.0  0.33548  0.76776  0.42660  1.0000
  C   C166      1.0  0.03767  0.86351  0.20493  1.0000
  H   H267      1.0  0.27446  0.59699  0.27058  1.0000
  H   H268      1.0  0.07866  0.62060  0.50055  1.0000
  H   H269      1.0  0.26274  0.88606  0.19720  1.0000
  C   C167      1.0  0.22552  0.90187  0.14840  1.0000
  H   H270      1.0  0.04956  0.64496  0.11866  1.0000
  H   H271      1.0  0.15598  0.62645  0.02710  1.0000
  H   H272      1.0  0.34423  0.52270  0.22067  1.0000
  H   H273      1.0  0.25079  0.56375  0.23087  1.0000
  C   C168      1.0  0.31461  0.85546  0.14498  1.0000
  H   H274      1.0  0.15111  0.73572  0.14511  1.0000
  H   H275      1.0  0.30090  0.83725  0.13263  1.0000
  H   H276      1.0  0.29739  0.55523  0.21345  1.0000
  Fe  Fe23      1.0  0.27932  0.64457  0.47771  1.0000
  H   H277      1.0  0.21388  0.90440  0.17137  1.0000
  H   H278      1.0  0.10878  0.84532  0.04188  1.0000
  C   C169      1.0  0.26300  0.54794  0.27698  1.0000
  H   H279      1.0  0.02030  0.65936  0.17047  1.0000
  H   H280      1.0  0.13309  0.55092  0.35303  1.0000
  C   C170      1.0  0.06883  0.69338  0.50399  1.0000
  C   C171      1.0  0.03975  0.71284  0.49897  1.0000
  N   N10       1.0  0.09692  0.64870  0.10304  1.0000
  C   C172      1.0  0.31207  0.80509  0.19765  1.0000
  H   H281      1.0  0.31960  0.82072  0.40098  1.0000
  H   H282      1.0  0.10319  0.63782  0.15215  1.0000
  S   S48       1.0  0.33847  0.92223  0.08707  1.0000
  H   H283      1.0  0.17131  0.74249  0.45703  1.0000
  C   C173      1.0  0.32455  0.96916  0.18203  1.0000
  Fe  Fe24      1.0  0.14370  0.52449  0.28253  1.0000
  H   H284      1.0  0.09857  0.58257  0.10712  1.0000
  H   H285      1.0  0.25981  0.87419  0.12600  1.0000
  H   H286      1.0  0.02048  0.94088  0.15334  1.0000
  C   C174      1.0  0.24987  0.87623  0.14979  1.0000
  H   H287      1.0  0.23636  0.92433  0.14160  1.0000
  H   H288      1.0  0.13258  0.68228  0.15217  1.0000
  H   H289      1.0  0.28436  0.90721  0.16903  1.0000
  H   H290      1.0  0.28788  0.78572  0.23809  1.0000
  H   H291      1.0  0.32162  0.79507  0.36910  1.0000
  H   H292      1.0  0.01964  0.69773  0.49327  1.0000
  H   H293      1.0  0.06751  0.85942  0.24589  1.0000
  H   H294      1.0  0.02224  0.84781  0.19163  1.0000
  H   H295      1.0  0.03546  0.83243  0.24483  1.0000
  H   H296      1.0  0.18089  0.52991  0.15686  1.0000
  H   H297      1.0  0.11015  0.55072  0.15389  1.0000
  H   H298      1.0  0.27112  0.71829  0.42489  1.0000
  H   H299      1.0  0.12745  0.74061  0.11075  1.0000
  C   C175      1.0  0.29825  0.53234  0.20178  1.0000
  H   H300      1.0  0.10956  0.73542  0.14865  1.0000
  H   H301      1.0  0.18783  0.71119  0.47934  1.0000
  H   H302      1.0  0.20772  0.89590  0.13060  1.0000
  C   C176      1.0  0.28862  0.83134  0.19107  1.0000
  H   H303      1.0  0.27575  0.83619  0.21301  1.0000
  H   H304      1.0  0.13219  0.68487  0.50733  1.0000
  S   S49       1.0  0.31830  0.98542  0.21928  1.0000
  H   H305      1.0  0.11642  0.93334  0.09382  1.0000
  C   C177      1.0  0.03110  0.88051  0.13469  1.0000
  H   H306      1.0  0.32163  0.72592  0.40129  1.0000
  N   N11       1.0  0.10613  0.65527  0.47606  1.0000
  C   C178      1.0  0.07696  0.67445  0.47425  1.0000
  C   C179      1.0  0.11090  0.63728  0.44611  1.0000
  H   H307      1.0  0.05674  0.64980  0.04684  1.0000
  C   C180      1.0  0.13421  0.67493  0.48354  1.0000
  C   C181      1.0  0.14180  0.70166  0.46050  1.0000
  H   H308      1.0  0.31221  0.87673  0.13030  1.0000
  H   H309      1.0  0.12091  0.58494  0.17534  1.0000
  C   C182      1.0  0.10106  0.65313  0.41500  1.0000
  C   C183      1.0  0.11242  0.63478  0.38675  1.0000
  H   H310      1.0  0.23770  0.85423  0.15556  1.0000
  H   H311      1.0  0.31290  0.85760  0.35069  1.0000
  H   H312      1.0  0.32766  0.82910  0.32345  1.0000
  H   H313      1.0  0.05680  0.65906  0.46899  1.0000
  H   H314      1.0  0.07777  0.69123  0.45459  1.0000
  H   H315      1.0  0.13561  0.63019  0.44402  1.0000
  H   H316      1.0  0.09735  0.61519  0.44665  1.0000
  H   H317      1.0  0.28811  0.53412  0.17803  1.0000
  H   H318      1.0  0.14341  0.57318  0.14179  1.0000
  C   C184      1.0  0.31049  0.74686  0.41126  1.0000
  C   C185      1.0  0.05341  0.84427  0.23043  1.0000
  C   C186      1.0  0.04769  0.65847  0.06947  1.0000
  H   H319      1.0  0.15164  0.69195  0.43868  1.0000
  H   H320      1.0  0.12423  0.58994  0.48486  1.0000
  C   C187      1.0  0.11729  0.61445  0.05772  1.0000
  H   H321      1.0  0.09321  0.69832  0.09437  1.0000
  H   H322      1.0  0.34225  0.91188  0.36577  1.0000
  H   H323      1.0  0.07538  0.65416  0.41357  1.0000
  H   H324      1.0  0.11006  0.67708  0.41282  1.0000
  H   H325      1.0  0.10266  0.61087  0.38704  1.0000
  H   H326      1.0  0.10489  0.64641  0.36482  1.0000
  H   H327      1.0  0.13813  0.63347  0.38671  1.0000
  H   H328      1.0  0.13181  0.59840  0.07179  1.0000
  C   C188      1.0  0.09821  0.68208  0.11398  1.0000
  H   H329      1.0  0.13329  0.56254  0.41003  1.0000
  H   H330      1.0  0.32095  0.79578  0.17525  1.0000
  C   C189      1.0  0.27514  0.88376  0.17455  1.0000
  H   H331      1.0  0.07499  0.59267  0.13956  1.0000
  H   H332      1.0  0.04337  0.72999  0.47985  1.0000
  H   H333      1.0  0.07990  0.68634  0.13174  1.0000
  C   C190      1.0  0.33628  0.80820  0.38573  1.0000
  H   H334      1.0  0.32630  0.94642  0.34821  1.0000
  H   H335      1.0  0.13876  0.92520  0.12884  1.0000
  H   H336      1.0  0.13559  0.62890  0.12836  1.0000
  C   C191      1.0  0.12923  0.72837  0.13359  1.0000
  H   H337      1.0  0.12123  0.71584  0.45484  1.0000
  C   C192      1.0  0.16605  0.72375  0.47412  1.0000
  H   H338      1.0  0.09386  0.60431  0.05469  1.0000
  C   C193      1.0  0.22151  0.54370  0.18332  1.0000
  C   C194      1.0  0.10174  0.63216  0.50243  1.0000
  C   C195      1.0  0.02764  0.92382  0.17149  1.0000
  H   H339      1.0  0.03691  0.90855  0.09168  1.0000
  C   C196      1.0  0.11621  0.64652  0.07376  1.0000
  C   C197      1.0  0.11971  0.57462  0.15163  1.0000
  H   H340      1.0  0.32371  0.78343  0.44349  1.0000
  H   H341      1.0  0.27706  0.76851  0.20102  1.0000
  H   H342      1.0  0.33980  0.74417  0.35633  1.0000
  S   S50       1.0  0.14134  0.52791  0.22992  1.0000
  H   H343      1.0  0.06850  0.82625  0.22003  1.0000
  H   H344      1.0  0.29777  0.90390  0.23018  1.0000
  C   C198      1.0  0.13213  0.61681  0.02537  1.0000
  H   H345      1.0  0.10841  0.66402  0.05624  1.0000
  C   C199      1.0  0.06329  0.64088  0.09702  1.0000
  H   H346      1.0  0.20674  0.55895  0.19792  1.0000
  C   C200      1.0  0.33244  0.94061  0.12330  1.0000
  H   H347      1.0  0.01759  0.60186  0.17612  1.0000
  H   H348      1.0  0.02576  0.97875  0.23153  1.0000
  H   H349      1.0  0.33169  0.81315  0.21228  1.0000
  H   H350      1.0  0.02305  0.88091  0.21683  1.0000
  H   H351      1.0  0.34252  0.95622  0.40259  1.0000
  H   H352      1.0  0.28753  0.54117  0.27410  1.0000
  H   H353      1.0  0.15741  0.73453  0.49598  1.0000
  H   H354      1.0  0.25258  0.53372  0.29598  1.0000
  H   H355      1.0  0.20257  0.56139  0.13982  1.0000
  H   H356      1.0  0.08785  0.70957  0.51037  1.0000
  C   C201      1.0  0.24435  0.54396  0.24617  1.0000
  C   C202      1.0  0.31532  0.88519  0.23139  1.0000
  H   H357      1.0  0.21947  0.54774  0.25183  1.0000
  C   C203      1.0  0.20458  0.53890  0.15239  1.0000
  C   C204      1.0  0.34255  0.89796  0.25040  1.0000
  H   H358      1.0  0.34203  0.56105  0.48540  1.0000
  C   C205      1.0  0.29662  0.77806  0.21496  1.0000
  H   H359      1.0  0.30554  0.86509  0.24436  1.0000
  H   H360      1.0  0.31374  0.75927  0.21883  1.0000
  C   C206      1.0  0.32586  0.87555  0.19816  1.0000
  H   H361      1.0  0.34396  0.59110  0.45598  1.0000
  H   H362      1.0  0.33442  0.90505  0.27393  1.0000
  H   H363      1.0  0.34451  0.81515  0.10341  1.0000
  H   H364      1.0  0.01463  0.85759  0.07547  1.0000
  H   H365      1.0  0.33517  0.89678  0.18660  1.0000
  H   H366      1.0  0.34614  0.86019  0.20121  1.0000
  H   H367      1.0  0.34609  0.68734  0.49510  1.0000
  H   H368      1.0  0.34743  0.86560  0.32831  1.0000
  H   H369      1.0  0.04758  0.51629  0.39475  1.0000
  C   C207      1.0  0.01583  0.96441  0.21243  1.0000
  N   N12       1.0  0.25345  0.54393  0.72852  1.0000
  C   C208      1.0  0.14856  0.98705  0.58655  1.0000
  S   S51       1.0  0.20302  0.70057  0.54697  1.0000
  Fe  Fe25      1.0  0.26670  0.60166  0.53326  1.0000
  S   S52       1.0  0.29127  0.56554  0.56329  1.0000
  H   H370      1.0  0.03007  0.95022  0.80532  1.0000
  Fe  Fe26      1.0  0.03653  0.73464  0.62172  1.0000
  S   S53       1.0  0.03673  0.73202  0.67432  1.0000
  S   S54       1.0  0.06297  0.69813  0.59396  1.0000
  Fe  Fe27      1.0  0.03787  0.78445  0.67234  1.0000
  S   S55       1.0  0.07137  0.81066  0.70410  1.0000
  S   S56       1.0  0.04107  0.78670  0.61990  1.0000
  C   C209      1.0  0.07679  0.83580  0.81653  1.0000
  S   S57       1.0  0.30256  0.90388  0.00529  1.0000
  S   S58       1.0  0.31376  0.81680  0.97617  1.0000
  H   H371      1.0  0.03073  0.86083  0.68290  1.0000
  S   S59       1.0  0.23091  0.95153  0.97750  1.0000
  S   S60       1.0  0.23890  0.86078  0.00345  1.0000
  Fe  Fe28      1.0  0.11213  0.98340  0.75252  1.0000
  S   S61       1.0  0.16361  0.97802  0.75666  1.0000
  S   S62       1.0  0.07861  0.95737  0.72074  1.0000
  Fe  Fe29      1.0  0.15648  0.98385  0.80857  1.0000
  S   S63       1.0  0.17944  0.94606  0.83790  1.0000
  S   S64       1.0  0.10459  0.98589  0.80424  1.0000
  C   C210      1.0  0.21568  0.94940  0.93905  1.0000
  C   C211      1.0  0.20626  0.97685  0.92397  1.0000
  C   C212      1.0  0.19455  0.97625  0.89320  1.0000
  C   C213      1.0  0.19240  0.94814  0.87715  1.0000
  C   C214      1.0  0.20160  0.92064  0.89230  1.0000
  C   C215      1.0  0.21298  0.92122  0.92317  1.0000
  S   S65       1.0  0.21515  0.60933  0.53160  1.0000
  C   C216      1.0  0.31245  0.95162  0.93651  1.0000
  H   H372      1.0  0.19988  0.89877  0.88011  1.0000
  H   H373      1.0  0.21953  0.89994  0.93479  1.0000
  H   H374      1.0  0.23123  0.59046  0.68542  1.0000
  C   C217      1.0  0.07333  0.85160  0.70729  1.0000
  C   C218      1.0  0.05022  0.87090  0.69520  1.0000
  C   C219      1.0  0.05213  0.90328  0.69952  1.0000
  C   C220      1.0  0.07719  0.91662  0.71570  1.0000
  C   C221      1.0  0.10065  0.89741  0.72704  1.0000
  C   C222      1.0  0.09856  0.86503  0.72312  1.0000
  H   H375      1.0  0.19472  0.86387  0.78719  1.0000
  Fe  Fe30      1.0  0.22738  0.65954  0.52437  1.0000
  H   H376      1.0  0.12032  0.90758  0.73890  1.0000
  H   H377      1.0  0.11658  0.85020  0.73226  1.0000
  C   C223      1.0  0.16499  0.69936  0.56272  1.0000
  C   C224      1.0  0.14928  0.67132  0.56773  1.0000
  C   C225      1.0  0.11851  0.67142  0.57872  1.0000
  C   C226      1.0  0.10303  0.69941  0.58468  1.0000
  C   C227      1.0  0.11902  0.72743  0.58053  1.0000
  C   C228      1.0  0.14986  0.72736  0.56964  1.0000
  H   H378      1.0  0.16074  0.64962  0.56286  1.0000
  H   H379      1.0  0.10641  0.64968  0.58232  1.0000
  H   H380      1.0  0.10740  0.74915  0.58499  1.0000
  H   H381      1.0  0.16187  0.74916  0.56605  1.0000
  C   C229      1.0  0.30611  0.57080  0.60150  1.0000
  H   H382      1.0  0.30257  0.96910  0.92028  1.0000
  H   H383      1.0  0.28109  0.54487  0.68629  1.0000
  H   H384      1.0  0.32618  0.69554  0.99384  1.0000
  C   C230      1.0  0.31458  0.60171  0.64820  1.0000
  C   C231      1.0  0.30142  0.59818  0.61826  1.0000
  C   C232      1.0  0.16067  0.97334  0.61786  1.0000
  H   H385      1.0  0.09664  0.87451  0.59599  1.0000
  H   H386      1.0  0.28777  0.61666  0.60810  1.0000
  H   H387      1.0  0.32785  0.87641  0.85730  1.0000
  H   H388      1.0  0.03398  0.91803  0.69042  1.0000
  C   C233      1.0  0.29676  0.92944  0.87401  1.0000
  C   C234      1.0  0.33238  0.96929  0.96011  1.0000
  C   C235      1.0  0.29334  0.88566  0.91226  1.0000
  C   C236      1.0  0.27350  0.86365  0.89185  1.0000
  H   H389      1.0  0.07384  0.93101  0.83968  1.0000
  C   C237      1.0  0.33681  0.55043  0.64506  1.0000
  C   C238      1.0  0.29042  0.91905  0.83982  1.0000
  C   C239      1.0  0.26867  0.94163  0.82323  1.0000
  C   C240      1.0  0.25719  0.83896  0.91167  1.0000
  H   H390      1.0  0.19841  0.93368  0.65332  1.0000
  C   C241      1.0  0.33140  0.68500  0.58935  1.0000
  H   H391      1.0  0.32758  0.52573  0.60222  1.0000
  C   C242      1.0  0.17956  0.92542  0.66887  1.0000
  H   H392      1.0  0.27417  0.93544  0.88507  1.0000
  H   H393      1.0  0.09921  0.91946  0.94396  1.0000
  H   H394      1.0  0.05326  0.84462  0.81128  1.0000
  H   H395      1.0  0.07383  0.85274  0.86332  1.0000
  H   H396      1.0  0.30641  0.87153  0.92964  1.0000
  H   H397      1.0  0.27661  0.89890  0.92662  1.0000
  H   H398      1.0  0.28760  0.85127  0.87433  1.0000
  H   H399      1.0  0.25521  0.87719  0.87980  1.0000
  H   H400      1.0  0.18108  0.95889  0.61190  1.0000
  C   C243      1.0  0.30295  0.61145  0.76531  1.0000
  H   H401      1.0  0.20297  0.94458  0.70967  1.0000
  H   H402      1.0  0.05062  0.89742  0.84502  1.0000
  H   H403      1.0  0.32293  0.61188  0.78170  1.0000
  H   H404      1.0  0.27998  0.89563  0.83851  1.0000
  H   H405      1.0  0.26433  0.93376  0.79892  1.0000
  H   H406      1.0  0.24615  0.94264  0.83558  1.0000
  H   H407      1.0  0.27892  0.96531  0.82239  1.0000
  H   H408      1.0  0.27439  0.82273  0.92185  1.0000
  H   H409      1.0  0.24380  0.84973  0.93088  1.0000
  H   H410      1.0  0.24099  0.82538  0.89684  1.0000
  C   C244      1.0  0.11088  0.00456  0.65638  1.0000
  H   H411      1.0  0.19010  0.58317  0.64653  1.0000
  C   C245      1.0  0.26477  0.57617  0.73699  1.0000
  H   H412      1.0  0.05787  0.88796  0.78456  1.0000
  C   C246      1.0  0.07054  0.90671  0.83131  1.0000
  S   S66       1.0  0.27904  0.65238  0.52966  1.0000
  C   C247      1.0  0.29208  0.57795  0.76067  1.0000
  H   H413      1.0  0.07691  0.92500  0.78392  1.0000
  C   C248      1.0  0.19310  0.92210  0.70171  1.0000
  H   H414      1.0  0.31098  0.62302  0.66097  1.0000
  H   H415      1.0  0.13625  0.88745  0.87223  1.0000
  N   N13       1.0  0.09938  0.88762  0.83748  1.0000
  H   H416      1.0  0.07345  0.91442  0.89271  1.0000
  H   H417      1.0  0.09644  0.79097  0.82940  1.0000
  H   H418      1.0  0.31242  0.91879  0.82636  1.0000
  H   H419      1.0  0.12810  0.91544  0.80689  1.0000
  N   N14       1.0  0.13768  0.95463  0.63680  1.0000
  C   C249      1.0  0.10782  0.97209  0.64119  1.0000
  C   C250      1.0  0.13057  0.92485  0.61967  1.0000
  C   C251      1.0  0.15181  0.94824  0.66848  1.0000
  H   H420      1.0  0.20810  0.99875  0.93615  1.0000
  H   H421      1.0  0.19342  0.98851  0.56301  1.0000
  H   H422      1.0  0.23651  0.55514  0.66361  1.0000
  H   H423      1.0  0.09126  0.85452  0.63269  1.0000
  C   C252      1.0  0.10946  0.90128  0.63730  1.0000
  C   C253      1.0  0.10671  0.87067  0.61958  1.0000
  C   C254      1.0  0.07340  0.80141  0.82476  1.0000
  H   H424      1.0  0.30002  0.52872  0.71851  1.0000
  C   C255      1.0  0.33230  0.57786  0.66171  1.0000
  H   H425      1.0  0.09177  0.95864  0.65637  1.0000
  H   H426      1.0  0.32713  0.67646  0.93959  1.0000
  H   H427      1.0  0.11861  0.92989  0.59720  1.0000
  H   H428      1.0  0.15234  0.91289  0.61291  1.0000
  H   H429      1.0  0.13405  0.93933  0.68505  1.0000
  H   H430      1.0  0.11166  0.84144  0.85297  1.0000
  C   C256      1.0  0.15230  0.87163  0.81313  1.0000
  H   H431      1.0  0.31194  0.56422  0.75242  1.0000
  C   C257      1.0  0.09563  0.90205  0.89643  1.0000
  H   H432      1.0  0.13994  0.96850  0.57087  1.0000
  Fe  Fe31      1.0  0.25106  0.91161  0.00595  1.0000
  H   H433      1.0  0.17505  0.91421  0.71844  1.0000
  Fe  Fe32      1.0  0.29058  0.85329  0.00637  1.0000
  C   C258      1.0  0.11520  0.90085  0.86606  1.0000
  H   H434      1.0  0.11848  0.89576  0.66090  1.0000
  H   H435      1.0  0.08570  0.91064  0.63984  1.0000
  C   C259      1.0  0.22226  0.56659  0.68178  1.0000
  C   C260      1.0  0.32376  0.54695  0.61508  1.0000
  H   H436      1.0  0.27261  0.58893  0.71568  1.0000
  H   H437      1.0  0.12974  0.85953  0.61731  1.0000
  C   C261      1.0  0.12186  0.89056  0.81057  1.0000
  H   H438      1.0  0.16022  0.97023  0.67923  1.0000
  H   H439      1.0  0.21197  0.90467  0.70157  1.0000
  H   H440      1.0  0.29295  0.94085  0.94936  1.0000
  H   H441      1.0  0.17236  0.90191  0.66119  1.0000
  H   H442      1.0  0.06265  0.78892  0.80477  1.0000
  C   C262      1.0  0.33187  0.92674  0.91906  1.0000
  H   H443      1.0  0.18758  0.99758  0.88181  1.0000
  H   H444      1.0  0.14728  0.84640  0.81468  1.0000
  H   H445      1.0  0.16621  0.87850  0.83374  1.0000
  C   C263      1.0  0.09107  0.85422  0.84409  1.0000
  H   H446      1.0  0.28406  0.62574  0.77524  1.0000
  H   H447      1.0  0.17422  0.58173  0.68544  1.0000
  H   H448      1.0  0.21194  0.52466  0.70691  1.0000
  H   H449      1.0  0.12315  0.92499  0.86105  1.0000
  H   H450      1.0  0.24556  0.59009  0.74712  1.0000
  C   C264      1.0  0.17276  0.87691  0.78443  1.0000
  H   H451      1.0  0.24265  0.54037  0.77791  1.0000
  H   H452      1.0  0.16095  0.86867  0.76293  1.0000
  H   H453      1.0  0.13553  0.90708  0.92756  1.0000
  H   H454      1.0  0.11806  0.63184  0.00972  1.0000
  H   H455      1.0  0.30956  0.95182  0.87127  1.0000
  H   H456      1.0  0.11104  0.88309  0.78846  1.0000
  H   H457      1.0  0.17957  0.54625  0.66343  1.0000
  H   H458      1.0  0.17852  0.90196  0.78176  1.0000
  C   C265      1.0  0.18947  0.56952  0.66863  1.0000
  H   H459      1.0  0.33441  0.70154  0.60898  1.0000
  N   N15       1.0  0.31477  0.90752  0.89498  1.0000
  H   H460      1.0  0.12954  0.00379  0.59053  1.0000
  H   H461      1.0  0.34201  0.91150  0.93750  1.0000
  H   H462      1.0  0.09116  0.83725  0.79513  1.0000
  C   C266      1.0  0.11334  0.91901  0.92230  1.0000
  H   H463      1.0  0.17029  0.99291  0.63190  1.0000
  C   C267      1.0  0.17431  0.00449  0.56926  1.0000
  H   H464      1.0  0.11847  0.94335  0.91521  1.0000
  H   H465      1.0  0.28541  0.56889  0.78403  1.0000
  H   H466      1.0  0.27333  0.51585  0.76556  1.0000
  H   H467      1.0  0.05839  0.79827  0.84561  1.0000
  H   H468      1.0  0.09048  0.87828  0.90509  1.0000
  H   H469      1.0  0.31059  0.62181  0.74276  1.0000
  C   C268      1.0  0.05990  0.91044  0.79680  1.0000
  H   H470      1.0  0.09525  0.97455  0.61859  1.0000
  H   H471      1.0  0.20574  0.55849  0.72910  1.0000
  H   H472      1.0  0.30894  0.67270  0.59251  1.0000
  H   H473      1.0  0.13348  0.59334  0.01479  1.0000
  H   H474      1.0  0.34332  0.95305  0.97700  1.0000
  C   C269      1.0  0.22238  0.54747  0.71266  1.0000
  C   C270      1.0  0.25028  0.52516  0.75838  1.0000
  C   C271      1.0  0.33809  0.70939  0.97546  1.0000
  H   H475      1.0  0.34560  0.84872  0.90570  1.0000
  H   H476      1.0  0.33084  0.69841  0.56711  1.0000
  H   H477      1.0  0.12002  0.00254  0.68055  1.0000
  C   C272      1.0  0.27706  0.52971  0.70697  1.0000
  C   C273      1.0  0.12136  0.58643  0.53455  1.0000
  H   H478      1.0  0.03442  0.72567  0.52081  1.0000
  C   C274      1.0  0.33872  0.89022  0.87620  1.0000
  H   H479      1.0  0.33398  0.62350  0.56739  1.0000
  C   C275      1.0  0.02870  0.92684  0.79450  1.0000
  H   H480      1.0  0.34533  0.72153  0.91234  1.0000
  H   H481      1.0  0.02236  0.92982  0.76947  1.0000
  H   H482      1.0  0.13871  0.56748  0.53520  1.0000
  H   H483      1.0  0.06307  0.00692  0.67257  1.0000
  H   H484      1.0  0.06414  0.67784  0.52418  1.0000
  H   H485      1.0  0.10177  0.64418  0.52526  1.0000
  H   H486      1.0  0.09782  0.57593  0.53479  1.0000
  H   H487      1.0  0.12455  0.60088  0.55576  1.0000
  H   H488      1.0  0.31761  0.98568  0.97337  1.0000
  H   H489      1.0  0.33413  0.61365  0.85278  1.0000
  H   H490      1.0  0.33861  0.66487  0.88276  1.0000
  H   H491      1.0  0.32179  0.72738  0.96676  1.0000
  H   H492      1.0  0.16498  0.01490  0.54741  1.0000
  Fe  Fe33      1.0  0.65563  0.48395  0.30012  1.0000
  S   S67       1.0  0.60379  0.47978  0.29621  1.0000
  S   S68       1.0  0.42419  0.03811  0.29772  1.0000
  Fe  Fe34      1.0  0.61075  0.48329  0.24424  1.0000
  S   S69       1.0  0.58751  0.45678  0.20445  1.0000
  H   H493      1.0  0.37046  0.03602  0.46868  1.0000
  Fe  Fe35      1.0  0.52833  0.28757  0.17019  1.0000
  S   S70       1.0  0.54099  0.29297  0.11943  1.0000
  S   S71       1.0  0.54878  0.31427  0.21116  1.0000
  Fe  Fe36      1.0  0.48177  0.23528  0.15747  1.0000
  S   S72       1.0  0.49101  0.23679  0.10594  1.0000
  S   S73       1.0  0.44204  0.20630  0.17691  1.0000
  Fe  Fe37      1.0  0.54154  0.24067  0.11896  1.0000
  S   S74       1.0  0.57371  0.20878  0.09177  1.0000
  Fe  Fe38      1.0  0.48951  0.28855  0.11067  1.0000
  S   S75       1.0  0.46521  0.31798  0.07384  1.0000
  S   S76       1.0  0.53219  0.23529  0.17053  1.0000
  S   S77       1.0  0.47694  0.28713  0.16146  1.0000
  Fe  Fe39      1.0  0.41781  0.04099  0.24592  1.0000
  H   H494      1.0  0.66302  0.37295  0.29357  1.0000
  S   S78       1.0  0.45475  0.06495  0.21689  1.0000
  Fe  Fe40      1.0  0.37349  0.04779  0.30165  1.0000
  C   C276      1.0  0.40377  0.24024  0.09832  1.0000
  C   C277      1.0  0.41929  0.05170  0.10607  1.0000
  H   H495      1.0  0.62944  0.12704  0.14810  1.0000
  H   H496      1.0  0.64255  0.36039  0.24193  1.0000
  H   H497      1.0  0.42020  0.25946  0.09299  1.0000
  C   C278      1.0  0.44612  0.16653  0.18584  1.0000
  C   C279      1.0  0.41950  0.14897  0.19268  1.0000
  C   C280      1.0  0.42187  0.11796  0.20269  1.0000
  C   C281      1.0  0.45093  0.10405  0.20516  1.0000
  C   C282      1.0  0.47751  0.12122  0.19720  1.0000
  C   C283      1.0  0.47517  0.15246  0.18778  1.0000
  H   H498      1.0  0.39694  0.15960  0.19068  1.0000
  H   H499      1.0  0.40122  0.10475  0.20813  1.0000
  H   H500      1.0  0.50005  0.11042  0.19866  1.0000
  H   H501      1.0  0.49582  0.16573  0.18232  1.0000
  C   C284      1.0  0.42698  0.33172  0.07833  1.0000
  C   C285      1.0  0.41317  0.34840  0.05374  1.0000
  C   C286      1.0  0.38262  0.35936  0.05629  1.0000
  C   C287      1.0  0.36540  0.26288  0.05939  1.0000
  C   C288      1.0  0.37966  0.33754  0.10837  1.0000
  C   C289      1.0  0.41016  0.32649  0.10577  1.0000
  H   H502      1.0  0.42482  0.17409  0.38974  1.0000
  N   N16       1.0  0.40066  0.13178  0.50475  1.0000
  C   C290      1.0  0.40130  0.15984  0.34689  1.0000
  H   H503      1.0  0.42054  0.31371  0.12487  1.0000
  C   C291      1.0  0.61411  0.21251  0.08526  1.0000
  C   C292      1.0  0.63263  0.23331  0.10212  1.0000
  C   C293      1.0  0.67890  0.21457  0.07508  1.0000
  H   H504      1.0  0.67916  0.25010  0.11044  1.0000
  C   C294      1.0  0.66029  0.19420  0.05793  1.0000
  C   C295      1.0  0.62814  0.19298  0.06323  1.0000
  H   H505      1.0  0.62212  0.24833  0.11925  1.0000
  H   H506      1.0  0.64790  0.41323  0.40029  1.0000
  H   H507      1.0  0.61400  0.17688  0.05002  1.0000
  H   H508      1.0  0.67424  0.49420  0.43422  1.0000
  H   H509      1.0  0.64316  0.15607  0.12173  1.0000
  C   C296      1.0  0.57664  0.41722  0.20696  1.0000
  C   C297      1.0  0.56857  0.40134  0.17946  1.0000
  C   C298      1.0  0.56048  0.36967  0.18039  1.0000
  C   C299      1.0  0.55968  0.35380  0.20893  1.0000
  C   C300      1.0  0.56796  0.36960  0.23638  1.0000
  C   C301      1.0  0.57652  0.40117  0.23543  1.0000
  H   H510      1.0  0.56911  0.41347  0.15727  1.0000
  H   H511      1.0  0.55526  0.35732  0.15907  1.0000
  H   H512      1.0  0.56766  0.35739  0.25853  1.0000
  H   H513      1.0  0.58285  0.41312  0.25672  1.0000
  H   H514      1.0  0.41952  0.13780  0.44202  1.0000
  H   H515      1.0  0.52382  0.35325  0.08166  1.0000
  H   H516      1.0  0.48128  0.24939  0.24911  1.0000
  S   S79       1.0  0.36798  0.05438  0.24966  1.0000
  C   C302      1.0  0.40171  0.10706  0.47989  1.0000
  C   C303      1.0  0.58614  0.34168  0.45912  1.0000
  C   C304      1.0  0.36194  0.16152  0.46963  1.0000
  H   H517      1.0  0.44771  0.11195  0.45848  1.0000
  C   C305      1.0  0.64068  0.41585  0.50971  1.0000
  C   C306      1.0  0.65655  0.37718  0.45192  1.0000
  H   H518      1.0  0.42094  0.06714  0.43323  1.0000
  H   H519      1.0  0.40797  0.13527  0.35052  1.0000
  H   H520      1.0  0.48662  0.21194  0.23157  1.0000
  C   C307      1.0  0.66073  0.11470  0.08173  1.0000
  H   H521      1.0  0.47051  0.13481  0.32729  1.0000
  C   C308      1.0  0.37033  0.25061  0.09325  1.0000
  H   H522      1.0  0.63171  0.41956  0.16549  1.0000
  H   H523      1.0  0.66449  0.09374  0.17626  1.0000
  H   H524      1.0  0.49384  0.12184  0.27344  1.0000
  H   H525      1.0  0.39287  0.09342  0.41640  1.0000
  C   C309      1.0  0.39063  0.16261  0.49134  1.0000
  H   H526      1.0  0.36688  0.14858  0.44788  1.0000
  H   H527      1.0  0.43293  0.09630  0.40523  1.0000
  H   H528      1.0  0.44661  0.17842  0.33583  1.0000
  H   H529      1.0  0.37791  0.10169  0.47120  1.0000
  H   H530      1.0  0.38106  0.06189  0.16947  1.0000
  H   H531      1.0  0.47815  0.08326  0.27839  1.0000
  H   H532      1.0  0.43544  0.07246  0.15020  1.0000
  N   N17       1.0  0.40337  0.02352  0.11981  1.0000
  H   H533      1.0  0.43719  0.05057  0.36505  1.0000
  H   H534      1.0  0.35992  0.04742  0.11227  1.0000
  H   H535      1.0  0.62489  0.44404  0.41661  1.0000
  H   H536      1.0  0.55867  0.32765  0.49972  1.0000
  H   H537      1.0  0.45316  0.09762  0.32764  1.0000
  H   H538      1.0  0.50657  0.09767  0.30544  1.0000
  H   H539      1.0  0.60327  0.37599  0.41335  1.0000
  H   H540      1.0  0.65263  0.46510  0.51273  1.0000
  H   H541      1.0  0.67067  0.17936  0.04054  1.0000
  N   N18       1.0  0.46715  0.40367  0.14532  1.0000
  C   C310      1.0  0.45538  0.38506  0.17286  1.0000
  C   C311      1.0  0.44021  0.41139  0.12416  1.0000
  C   C312      1.0  0.48871  0.38299  0.12708  1.0000
  C   C313      1.0  0.48473  0.43262  0.15486  1.0000
  C   C314      1.0  0.47434  0.44913  0.18533  1.0000
  C   C315      1.0  0.48077  0.37043  0.19395  1.0000
  C   C316      1.0  0.50037  0.39588  0.09523  1.0000
  C   C317      1.0  0.41485  0.43265  0.13781  1.0000
  C   C318      1.0  0.49193  0.47968  0.18979  1.0000
  C   C319      1.0  0.46741  0.35825  0.22468  1.0000
  C   C320      1.0  0.52895  0.37842  0.08386  1.0000
  H   H542      1.0  0.44039  0.36557  0.16456  1.0000
  H   H543      1.0  0.44017  0.39918  0.18797  1.0000
  H   H544      1.0  0.44827  0.42353  0.10266  1.0000
  H   H545      1.0  0.42891  0.38956  0.11596  1.0000
  H   H546      1.0  0.47761  0.36005  0.12260  1.0000
  H   H547      1.0  0.50963  0.37783  0.14112  1.0000
  H   H548      1.0  0.50977  0.42743  0.15834  1.0000
  H   H549      1.0  0.48417  0.45006  0.13558  1.0000
  H   H550      1.0  0.47926  0.43456  0.20615  1.0000
  H   H551      1.0  0.44930  0.45423  0.18542  1.0000
  H   H552      1.0  0.49153  0.35043  0.18193  1.0000
  H   H553      1.0  0.49943  0.38731  0.19938  1.0000
  H   H554      1.0  0.50659  0.42083  0.09680  1.0000
  H   H555      1.0  0.48200  0.39303  0.07719  1.0000
  H   H556      1.0  0.40617  0.42411  0.16062  1.0000
  H   H557      1.0  0.59261  0.30413  0.49295  1.0000
  H   H558      1.0  0.48460  0.49076  0.21198  1.0000
  H   H559      1.0  0.40712  0.23326  0.12310  1.0000
  H   H560      1.0  0.45756  0.37755  0.23858  1.0000
  H   H561      1.0  0.44918  0.34056  0.22011  1.0000
  H   H562      1.0  0.48615  0.34718  0.23858  1.0000
  H   H563      1.0  0.53593  0.38736  0.06052  1.0000
  H   H564      1.0  0.54861  0.38168  0.10031  1.0000
  C   C321      1.0  0.37039  0.03078  0.12921  1.0000
  H   H565      1.0  0.40984  0.17401  0.47825  1.0000
  H   H566      1.0  0.61893  0.44181  0.35994  1.0000
  C   C322      1.0  0.36564  0.35369  0.08353  1.0000
  C   C323      1.0  0.60684  0.42425  0.37466  1.0000
  H   H567      1.0  0.66727  0.36965  0.47429  1.0000
  C   C324      1.0  0.67511  0.44500  0.16310  1.0000
  H   H568      1.0  0.45119  0.22553  0.29244  1.0000
  H   H569      1.0  0.37215  0.37203  0.03714  1.0000
  N   N19       1.0  0.42681  0.16287  0.29182  1.0000
  H   H570      1.0  0.48708  0.49596  0.17021  1.0000
  H   H571      1.0  0.65349  0.35418  0.12775  1.0000
  H   H572      1.0  0.40173  0.09086  0.13313  1.0000
  H   H573      1.0  0.64770  0.35346  0.40689  1.0000
  H   H574      1.0  0.60227  0.31671  0.16089  1.0000
  H   H575      1.0  0.36331  0.14100  0.29462  1.0000
  H   H576      1.0  0.46859  0.09491  0.10896  1.0000
  H   H577      1.0  0.39405  0.19983  0.37718  1.0000
  H   H578      1.0  0.60102  0.16341  0.18267  1.0000
  H   H579      1.0  0.46041  0.03791  0.39762  1.0000
  C   C325      1.0  0.60758  0.39702  0.42756  1.0000
  H   H580      1.0  0.61217  0.31527  0.12000  1.0000
  C   C326      1.0  0.62718  0.41900  0.47614  1.0000
  C   C327      1.0  0.67951  0.47616  0.38751  1.0000
  H   H581      1.0  0.66449  0.49326  0.37689  1.0000
  H   H582      1.0  0.67191  0.39612  0.44332  1.0000
  C   C328      1.0  0.62401  0.42073  0.40573  1.0000
  H   H583      1.0  0.36562  0.26941  0.11030  1.0000
  C   C329      1.0  0.42423  0.07962  0.12811  1.0000
  N   N20       1.0  0.66670  0.38859  0.18325  1.0000
  H   H584      1.0  0.58415  0.40636  0.43292  1.0000
  H   H585      1.0  0.66475  0.18792  0.16175  1.0000
  C   C330      1.0  0.66376  0.39093  0.27492  1.0000
  C   C331      1.0  0.44502  0.10428  0.11304  1.0000
  H   H586      1.0  0.46908  0.02182  0.13483  1.0000
  H   H587      1.0  0.64250  0.43593  0.46389  1.0000
  N   N21       1.0  0.62430  0.38926  0.45764  1.0000
  C   C332      1.0  0.38700  0.43467  0.11579  1.0000
  C   C333      1.0  0.67258  0.10142  0.11329  1.0000
  H   H588      1.0  0.62105  0.35377  0.49361  1.0000
  N   N22       1.0  0.67861  0.12479  0.13897  1.0000
  H   H589      1.0  0.65535  0.08368  0.12114  1.0000
  H   H590      1.0  0.42612  0.35270  0.03250  1.0000
  H   H591      1.0  0.65759  0.40676  0.13650  1.0000
  H   H592      1.0  0.38505  0.17910  0.51055  1.0000
  H   H593      1.0  0.43381  0.21879  0.25475  1.0000
  H   H594      1.0  0.51728  0.47543  0.19114  1.0000
  H   H595      1.0  0.60415  0.43044  0.47807  1.0000
  C   C334      1.0  0.66492  0.23422  0.09711  1.0000
  H   H596      1.0  0.66504  0.40783  0.50893  1.0000
  C   C335      1.0  0.57339  0.31693  0.48144  1.0000
  C   C336      1.0  0.61718  0.18167  0.17411  1.0000
  H   H597      1.0  0.42412  0.45657  0.14047  1.0000
  C   C337      1.0  0.66108  0.09014  0.05601  1.0000
  C   C338      1.0  0.40141  0.17521  0.37904  1.0000
  H   H598      1.0  0.60654  0.40194  0.36174  1.0000
  H   H599      1.0  0.62472  0.36257  0.19277  1.0000
  C   C339      1.0  0.48311  0.22414  0.25412  1.0000
  S   S80       1.0  0.66262  0.48346  0.24788  1.0000
  C   C340      1.0  0.42367  0.17669  0.32411  1.0000
  C   C341      1.0  0.42302  0.11414  0.45152  1.0000
  C   C342      1.0  0.41704  0.09127  0.42501  1.0000
  C   C343      1.0  0.36491  0.04308  0.16286  1.0000
  H   H600      1.0  0.38899  0.19363  0.27871  1.0000
  H   H601      1.0  0.61817  0.20055  0.19170  1.0000
  C   C344      1.0  0.62145  0.31963  0.14382  1.0000
  C   C345      1.0  0.35177  0.19412  0.46005  1.0000
  C   C346      1.0  0.64646  0.36011  0.17907  1.0000
  H   H602      1.0  0.58273  0.43221  0.37856  1.0000
  H   H603      1.0  0.40600  0.06086  0.08583  1.0000
  H   H604      1.0  0.40929  0.22006  0.08327  1.0000
  H   H605      1.0  0.45908  0.16567  0.25328  1.0000
  C   C347      1.0  0.64921  0.14314  0.14346  1.0000
  C   C348      1.0  0.39874  0.17074  0.27194  1.0000
  H   H606      1.0  0.63705  0.47517  0.14917  1.0000
  H   H607      1.0  0.41155  0.11598  0.30283  1.0000
  H   H608      1.0  0.39417  0.44274  0.09216  1.0000
  H   H609      1.0  0.40551  0.17383  0.24708  1.0000
  H   H610      1.0  0.64548  0.07048  0.06210  1.0000
  H   H611      1.0  0.61650  0.36895  0.13857  1.0000
  H   H612      1.0  0.41002  0.08478  0.48989  1.0000
  S   S81       1.0  0.35848  0.08702  0.33364  1.0000
  H   H613      1.0  0.60794  0.19152  0.15198  1.0000
  H   H614      1.0  0.64016  0.41278  0.21865  1.0000
  C   C349      1.0  0.45356  0.21264  0.27018  1.0000
  C   C350      1.0  0.63501  0.35243  0.14548  1.0000
  C   C351      1.0  0.64957  0.16834  0.16914  1.0000
  H   H615      1.0  0.47617  0.17291  0.29031  1.0000
  C   C352      1.0  0.60564  0.36630  0.47694  1.0000
  H   H616      1.0  0.58851  0.37869  0.49183  1.0000
  C   C353      1.0  0.45492  0.17710  0.27625  1.0000
  H   H617      1.0  0.63958  0.30209  0.14882  1.0000
  H   H618      1.0  0.43327  0.11892  0.26861  1.0000
  C   C354      1.0  0.43191  0.12822  0.29284  1.0000
  C   C355      1.0  0.46056  0.11683  0.31184  1.0000
  H   H619      1.0  0.65753  0.15916  0.19196  1.0000
  H   H620      1.0  0.37077  0.20653  0.44771  1.0000
  H   H621      1.0  0.43505  0.11242  0.09053  1.0000
  H   H622      1.0  0.46212  0.01739  0.36078  1.0000
  H   H623      1.0  0.63644  0.12276  0.08386  1.0000
  H   H624      1.0  0.35497  0.23088  0.09912  1.0000
  C   C356      1.0  0.48630  0.10428  0.29092  1.0000
  H   H625      1.0  0.44924  0.14339  0.50037  1.0000
  H   H626      1.0  0.36981  0.45128  0.12520  1.0000
  H   H627      1.0  0.50362  0.22028  0.26933  1.0000
  H   H628      1.0  0.64343  0.40640  0.27778  1.0000
  H   H629      1.0  0.44716  0.12454  0.12889  1.0000
  H   H630      1.0  0.42159  0.02677  0.16726  1.0000
  H   H631      1.0  0.38486  0.16280  0.39458  1.0000
  C   C357      1.0  0.65953  0.34925  0.42948  1.0000
  H   H632      1.0  0.56605  0.35304  0.44760  1.0000
  H   H633      1.0  0.59965  0.32976  0.44086  1.0000
  H   H634      1.0  0.55907  0.29999  0.46823  1.0000
  H   H635      1.0  0.36811  0.02393  0.18002  1.0000
  H   H636      1.0  0.44220  0.04523  0.09621  1.0000
  H   H637      1.0  0.65822  0.33925  0.18889  1.0000
  H   H638      1.0  0.37930  0.28475  0.05860  1.0000
  C   C358      1.0  0.66257  0.40036  0.21630  1.0000
  C   C359      1.0  0.37170  0.14691  0.27101  1.0000
  C   C360      1.0  0.65655  0.41414  0.16125  1.0000
  H   H639      1.0  0.37921  0.12517  0.25948  1.0000
  H   H640      1.0  0.41565  0.20115  0.32249  1.0000
  H   H641      1.0  0.37554  0.41166  0.11369  1.0000
  H   H642      1.0  0.37726  0.16090  0.33806  1.0000
  H   H643      1.0  0.40415  0.02305  0.40173  1.0000
  H   H644      1.0  0.37696  0.24668  0.04289  1.0000
  H   H645      1.0  0.35116  0.16489  0.22799  1.0000
  C   C361      1.0  0.44667  0.02988  0.37721  1.0000
  H   H646      1.0  0.64993  0.32807  0.44070  1.0000
  H   H647      1.0  0.36669  0.33315  0.12956  1.0000
  C   C362      1.0  0.66339  0.37555  0.24281  1.0000
  H   H648      1.0  0.67538  0.13440  0.07409  1.0000
  H   H649      1.0  0.65300  0.10061  0.03367  1.0000
  C   C363      1.0  0.66107  0.46973  0.14170  1.0000
  H   H650      1.0  0.66082  0.46178  0.11704  1.0000
  H   H651      1.0  0.67509  0.49137  0.14310  1.0000
  H   H652      1.0  0.68070  0.41788  0.22209  1.0000
  H   H653      1.0  0.67507  0.45461  0.18703  1.0000
  H   H654      1.0  0.38876  0.02839  0.50571  1.0000
  H   H655      1.0  0.35523  0.11456  0.51783  1.0000
  H   H656      1.0  0.37996  0.02786  0.05807  1.0000
  C   C364      1.0  0.43258  0.13551  0.51858  1.0000
  C   C365      1.0  0.37815  0.01736  0.48487  1.0000
  H   H657      1.0  0.34882  0.03348  0.37458  1.0000
  C   C366      1.0  0.65901  0.14213  0.80980  1.0000
  H   H658      1.0  0.57094  0.44431  0.70248  1.0000
  C   C367      1.0  0.59782  0.39575  0.62119  1.0000
  C   C368      1.0  0.37735  0.12180  0.52918  1.0000
  S   S82       1.0  0.58694  0.05373  0.72858  1.0000
  C   C369      1.0  0.36500  0.36098  0.70452  1.0000
  Fe  Fe41      1.0  0.40716  0.48480  0.73392  1.0000
  H   H659      1.0  0.66586  0.30544  0.63070  1.0000
  S   S83       1.0  0.42215  0.44731  0.69960  1.0000
  H   H660      1.0  0.43483  0.33835  0.61422  1.0000
  H   H661      1.0  0.51847  0.39550  0.69641  1.0000
  S   S84       1.0  0.40877  0.48605  0.78648  1.0000
  Fe  Fe42      1.0  0.54756  0.22714  0.67857  1.0000
  S   S85       1.0  0.53285  0.22173  0.62840  1.0000
  S   S86       1.0  0.58612  0.19960  0.70198  1.0000
  Fe  Fe43      1.0  0.50571  0.28466  0.68798  1.0000
  S   S87       1.0  0.48812  0.28299  0.63873  1.0000
  S   S88       1.0  0.49124  0.31946  0.72512  1.0000
  Fe  Fe44      1.0  0.48455  0.23131  0.64606  1.0000
  S   S89       1.0  0.44251  0.19958  0.64017  1.0000
  Fe  Fe45      1.0  0.53807  0.27385  0.62566  1.0000
  S   S90       1.0  0.56056  0.30119  0.58583  1.0000
  S   S91       1.0  0.49935  0.23356  0.69657  1.0000
  S   S92       1.0  0.55553  0.27872  0.67463  1.0000
  H   H662      1.0  0.59719  0.33892  0.54438  1.0000
  C   C370      1.0  0.64366  0.34065  0.56320  1.0000
  C   C371      1.0  0.61225  0.33141  0.56306  1.0000
  C   C372      1.0  0.60020  0.31238  0.58696  1.0000
  C   C373      1.0  0.61980  0.30300  0.61123  1.0000
  C   C374      1.0  0.65096  0.31281  0.61174  1.0000
  H   H663      1.0  0.36978  0.25062  0.70537  1.0000
  Fe  Fe46      1.0  0.35907  0.50120  0.78398  1.0000
  H   H664      1.0  0.61105  0.28798  0.62954  1.0000
  H   H665      1.0  0.36738  0.34048  0.82818  1.0000
  H   H666      1.0  0.65249  0.44476  0.54945  1.0000
  C   C375      1.0  0.38291  0.22273  0.56983  1.0000
  C   C376      1.0  0.40916  0.22221  0.58943  1.0000
  C   C377      1.0  0.41103  0.20047  0.61371  1.0000
  C   C378      1.0  0.38684  0.17883  0.61765  1.0000
  C   C379      1.0  0.36081  0.17909  0.59780  1.0000
  H   H667      1.0  0.37810  0.32425  0.61776  1.0000
  H   H668      1.0  0.42778  0.23873  0.58593  1.0000
  H   H669      1.0  0.63563  0.40439  0.58900  1.0000
  C   C380      1.0  0.52604  0.45584  0.72065  1.0000
  C   C381      1.0  0.44105  0.41176  0.70746  1.0000
  C   C382      1.0  0.44642  0.39120  0.68260  1.0000
  C   C383      1.0  0.46152  0.36271  0.68763  1.0000
  C   C384      1.0  0.47157  0.35463  0.71764  1.0000
  C   C385      1.0  0.46622  0.37517  0.74250  1.0000
  C   C386      1.0  0.45087  0.40355  0.73751  1.0000
  H   H670      1.0  0.43882  0.39740  0.65929  1.0000
  H   H671      1.0  0.46554  0.34713  0.66832  1.0000
  H   H672      1.0  0.47422  0.36917  0.76572  1.0000
  H   H673      1.0  0.44705  0.41928  0.75677  1.0000
  C   C387      1.0  0.58719  0.09414  0.72031  1.0000
  C   C388      1.0  0.55952  0.10882  0.71132  1.0000
  C   C389      1.0  0.55881  0.14101  0.70513  1.0000
  C   C390      1.0  0.58584  0.15882  0.70793  1.0000
  C   C391      1.0  0.61350  0.14408  0.71670  1.0000
  C   C392      1.0  0.61426  0.11189  0.72261  1.0000
  H   H674      1.0  0.53849  0.09524  0.70925  1.0000
  H   H675      1.0  0.53735  0.15205  0.69839  1.0000
  H   H676      1.0  0.63453  0.15765  0.71849  1.0000
  H   H677      1.0  0.63582  0.10079  0.72893  1.0000
  C   C393      1.0  0.54164  0.36837  0.64707  1.0000
  C   C394      1.0  0.51947  0.38531  0.62401  1.0000
  C   C395      1.0  0.60179  0.34825  0.68159  1.0000
  C   C396      1.0  0.51037  0.36498  0.59632  1.0000
  H   H678      1.0  0.52715  0.35191  0.66103  1.0000
  H   H679      1.0  0.55707  0.35302  0.63342  1.0000
  H   H680      1.0  0.58086  0.39556  0.60167  1.0000
  H   H681      1.0  0.49784  0.39171  0.63639  1.0000
  H   H682      1.0  0.52998  0.40698  0.61473  1.0000
  H   H683      1.0  0.59338  0.33269  0.66293  1.0000
  H   H684      1.0  0.53077  0.36100  0.58111  1.0000
  H   H685      1.0  0.50108  0.34231  0.60449  1.0000
  H   H686      1.0  0.49227  0.37675  0.58222  1.0000
  N   N23       1.0  0.60141  0.13332  0.82679  1.0000
  C   C397      1.0  0.61072  0.14757  0.85761  1.0000
  C   C398      1.0  0.58232  0.15631  0.80830  1.0000
  C   C399      1.0  0.58073  0.10573  0.83398  1.0000
  C   C400      1.0  0.62883  0.12242  0.80798  1.0000
  H   H687      1.0  0.36556  0.24349  0.63204  1.0000
  C   C401      1.0  0.62586  0.12497  0.88148  1.0000
  C   C402      1.0  0.56530  0.08964  0.80550  1.0000
  C   C403      1.0  0.59800  0.18739  0.79916  1.0000
  C   C404      1.0  0.57427  0.21006  0.78566  1.0000
  H   H688      1.0  0.38574  0.28956  0.59603  1.0000
  H   H689      1.0  0.39565  0.07459  0.53769  1.0000
  C   C405      1.0  0.54775  0.06028  0.81531  1.0000
  H   H690      1.0  0.59008  0.15779  0.86928  1.0000
  C   C406      1.0  0.38747  0.09485  0.55111  1.0000
  H   H691      1.0  0.57513  0.14621  0.78548  1.0000
  H   H692      1.0  0.56056  0.16160  0.82121  1.0000
  H   H693      1.0  0.56184  0.11256  0.85028  1.0000
  H   H694      1.0  0.59413  0.08727  0.84619  1.0000
  H   H695      1.0  0.63576  0.09855  0.81509  1.0000
  H   H696      1.0  0.62210  0.12019  0.78307  1.0000
  H   H697      1.0  0.65477  0.16736  0.81042  1.0000
  H   H698      1.0  0.38096  0.28932  0.00590  1.0000
  H   H699      1.0  0.60790  0.10963  0.89200  1.0000
  H   H700      1.0  0.43126  0.18327  0.53637  1.0000
  H   H701      1.0  0.58306  0.08310  0.78815  1.0000
  H   H702      1.0  0.54810  0.10497  0.79400  1.0000
  H   H703      1.0  0.60912  0.19900  0.81932  1.0000
  H   H704      1.0  0.61551  0.18324  0.78064  1.0000
  H   H705      1.0  0.58632  0.23103  0.77650  1.0000
  H   H706      1.0  0.56126  0.19925  0.76606  1.0000
  H   H707      1.0  0.55762  0.21731  0.80397  1.0000
  H   H708      1.0  0.50479  0.44424  0.72959  1.0000
  C   C407      1.0  0.36075  0.08388  0.57177  1.0000
  H   H709      1.0  0.48566  0.16388  0.54224  1.0000
  H   H710      1.0  0.38136  0.23992  0.55140  1.0000
  H   H711      1.0  0.65295  0.35480  0.54453  1.0000
  H   H712      1.0  0.60193  0.41685  0.66724  1.0000
  H   H713      1.0  0.52822  0.06617  0.83103  1.0000
  C   C408      1.0  0.35417  0.26256  0.64505  1.0000
  H   H714      1.0  0.56328  0.04366  0.82745  1.0000
  H   H715      1.0  0.55833  0.35562  0.70601  1.0000
  H   H716      1.0  0.64998  0.12573  0.92599  1.0000
  C   C409      1.0  0.40447  0.28855  0.64378  1.0000
  C   C410      1.0  0.38902  0.25762  0.68959  1.0000
  S   S93       1.0  0.62751  0.03171  0.80778  1.0000
  C   C411      1.0  0.42386  0.32142  0.59804  1.0000
  C   C412      1.0  0.66314  0.33151  0.58768  1.0000
  N   N24       1.0  0.37069  0.39040  0.83292  1.0000
  H   H717      1.0  0.63182  0.31178  0.69893  1.0000
  C   C413      1.0  0.41503  0.26941  0.71154  1.0000
  C   C414      1.0  0.42574  0.24359  0.73360  1.0000
  H   H718      1.0  0.64426  0.41439  0.62879  1.0000
  H   H719      1.0  0.38817  0.16187  0.63633  1.0000
  H   H720      1.0  0.41732  0.26733  0.63675  1.0000
  H   H721      1.0  0.42188  0.30271  0.65645  1.0000
  H   H722      1.0  0.36621  0.49383  0.85744  1.0000
  H   H723      1.0  0.67190  0.13606  0.83144  1.0000
  C   C415      1.0  0.46762  0.15894  0.56008  1.0000
  H   H724      1.0  0.59534  0.31414  0.71908  1.0000
  C   C416      1.0  0.35705  0.39010  0.86551  1.0000
  H   H725      1.0  0.47217  0.13606  0.57117  1.0000
  H   H726      1.0  0.41660  0.33397  0.57655  1.0000
  C   C417      1.0  0.43533  0.15945  0.54541  1.0000
  H   H727      1.0  0.62528  0.34268  0.72647  1.0000
  H   H728      1.0  0.43193  0.46418  0.85424  1.0000
  H   H729      1.0  0.58726  0.38483  0.71084  1.0000
  H   H730      1.0  0.43563  0.27749  0.69835  1.0000
  H   H731      1.0  0.40632  0.28836  0.72652  1.0000
  H   H732      1.0  0.44507  0.25228  0.74839  1.0000
  H   H733      1.0  0.40652  0.23596  0.74909  1.0000
  H   H734      1.0  0.43415  0.22331  0.72010  1.0000
  H   H735      1.0  0.38029  0.38124  0.70922  1.0000
  H   H736      1.0  0.44107  0.30356  0.59134  1.0000
  N   N25       1.0  0.37769  0.27986  0.66473  1.0000
  N   N26       1.0  0.55986  0.38945  0.66852  1.0000
  H   H737      1.0  0.60563  0.37159  0.62448  1.0000
  H   H738      1.0  0.51971  0.47106  0.70063  1.0000
  H   H739      1.0  0.37301  0.40103  0.76633  1.0000
  C   C418      1.0  0.39423  0.41639  0.83160  1.0000
  H   H740      1.0  0.39732  0.23581  0.67840  1.0000
  C   C419      1.0  0.62589  0.41474  0.61058  1.0000
  C   C420      1.0  0.38524  0.35908  0.82741  1.0000
  C   C421      1.0  0.40246  0.35461  0.79607  1.0000
  C   C422      1.0  0.42120  0.41463  0.85552  1.0000
  H   H741      1.0  0.37441  0.38175  0.88284  1.0000
  H   H742      1.0  0.41835  0.15470  0.56417  1.0000
  C   C423      1.0  0.53681  0.40995  0.68517  1.0000
  C   C424      1.0  0.42026  0.32401  0.79570  1.0000
  H   H743      1.0  0.62168  0.36207  0.67269  1.0000
  H   H744      1.0  0.57199  0.43184  0.64354  1.0000
  H   H745      1.0  0.38236  0.43902  0.83519  1.0000
  H   H746      1.0  0.40496  0.41829  0.80815  1.0000
  S   S94       1.0  0.35645  0.49622  0.73176  1.0000
  C   C425      1.0  0.55002  0.43175  0.71079  1.0000
  H   H747      1.0  0.40377  0.33058  0.69968  1.0000
  C   C426      1.0  0.38283  0.33657  0.68614  1.0000
  H   H748      1.0  0.40149  0.35324  0.84675  1.0000
  H   H749      1.0  0.36942  0.48108  0.91402  1.0000
  H   H750      1.0  0.41940  0.37342  0.79164  1.0000
  H   H751      1.0  0.38553  0.35353  0.77663  1.0000
  H   H752      1.0  0.41246  0.41613  0.87985  1.0000
  H   H753      1.0  0.43438  0.39278  0.85279  1.0000
  H   H754      1.0  0.45418  0.44101  0.82714  1.0000
  H   H755      1.0  0.53571  0.47062  0.73955  1.0000
  H   H756      1.0  0.64339  0.11001  0.87016  1.0000
  Fe  Fe47      1.0  0.62556  0.02939  0.75539  1.0000
  H   H757      1.0  0.36049  0.43686  0.78240  1.0000
  C   C427      1.0  0.64143  0.14253  0.90824  1.0000
  C   C428      1.0  0.57580  0.36994  0.69311  1.0000
  H   H758      1.0  0.40437  0.30401  0.79958  1.0000
  H   H759      1.0  0.43165  0.32105  0.77262  1.0000
  H   H760      1.0  0.43856  0.32398  0.81398  1.0000
  C   C429      1.0  0.39566  0.30610  0.61327  1.0000
  H   H761      1.0  0.37176  0.31333  0.95467  1.0000
  H   H762      1.0  0.40646  0.10242  0.56687  1.0000
  C   C430      1.0  0.35862  0.20123  0.57396  1.0000
  H   H763      1.0  0.36904  0.06575  0.58827  1.0000
  H   H764      1.0  0.53828  0.04866  0.79417  1.0000
  H   H765      1.0  0.55605  0.41825  0.73209  1.0000
  H   H766      1.0  0.39067  0.34777  0.66411  1.0000
  H   H767      1.0  0.46287  0.43997  0.86835  1.0000
  H   H768      1.0  0.37073  0.14162  0.54433  1.0000
  H   H769      1.0  0.52463  0.42521  0.66815  1.0000
  C   C431      1.0  0.44386  0.44162  0.85092  1.0000
  C   C432      1.0  0.58291  0.40968  0.65115  1.0000
  C   C433      1.0  0.61422  0.32805  0.70824  1.0000
  H   H770      1.0  0.61920  0.43911  0.60552  1.0000
  H   H771      1.0  0.62474  0.15830  0.91980  1.0000
  C   C434      1.0  0.35351  0.41242  0.77828  1.0000
  H   H772      1.0  0.46925  0.17702  0.57847  1.0000
  H   H773      1.0  0.62685  0.16734  0.85430  1.0000
  H   H774      1.0  0.66150  0.15620  0.89945  1.0000
  H   H775      1.0  0.67026  0.14643  0.76037  1.0000
  H   H776      1.0  0.36090  0.33931  0.98560  1.0000
  H   H777      1.0  0.35196  0.26854  0.98407  1.0000
  H   H778      1.0  0.44163  0.11276  0.52689  1.0000
  C   C435      1.0  0.36214  0.30777  0.67914  1.0000
  S   S95       1.0  0.67682  0.03624  0.74917  1.0000
  Fe  Fe48      1.0  0.67888  0.03504  0.80193  1.0000
  H   H779      1.0  0.35706  0.35127  0.72721  1.0000
  H   H780      1.0  0.35035  0.30091  0.70127  1.0000
  H   H781      1.0  0.35111  0.41411  0.87287  1.0000
  C   C436      1.0  0.68014  0.13594  0.78187  1.0000
  C   C437      1.0  0.35498  0.31706  0.97393  1.0000
  H   H782      1.0  0.61622  0.45463  0.53092  1.0000
  H   H783      1.0  0.35139  0.10349  0.58562  1.0000
  H   H784      1.0  0.62705  0.39931  0.52412  1.0000
  C   C438      1.0  0.64038  0.44703  0.52665  1.0000
  C   C439      1.0  0.35675  0.29015  0.99720  1.0000
  C   C440      1.0  0.34881  0.47496  0.90097  1.0000
  H   H785      1.0  0.64251  0.59951  0.38421  1.0000
  H   H786      1.0  0.57238  0.72795  0.19202  1.0000
  C   C441      1.0  0.42003  0.00876  0.38759  1.0000
  Fe  Fe49      1.0  0.60462  0.53229  0.29577  1.0000
  S   S96       1.0  0.56999  0.55740  0.32662  1.0000
  S   S97       1.0  0.65611  0.53603  0.30288  1.0000
  Fe  Fe50      1.0  0.41056  0.98790  0.29343  1.0000
  H   H787      1.0  0.62552  0.70694  0.20056  1.0000
  S   S98       1.0  0.44044  0.95656  0.32351  1.0000
  H   H788      1.0  0.36384  0.86810  0.14763  1.0000
  H   H789      1.0  0.66826  0.66919  0.39808  1.0000
  S   S99       1.0  0.40849  0.98979  0.24091  1.0000
  Fe  Fe51      1.0  0.47708  0.73914  0.41690  1.0000
  S   S100      1.0  0.46880  0.73184  0.36557  1.0000
  S   S101      1.0  0.44920  0.71883  0.45745  1.0000
  Fe  Fe52      1.0  0.52914  0.78712  0.40553  1.0000
  S   S102      1.0  0.52404  0.78383  0.35334  1.0000
  S   S103      1.0  0.55862  0.82345  0.43061  1.0000
  Fe  Fe53      1.0  0.47273  0.78390  0.36161  1.0000
  S   S104      1.0  0.43617  0.80939  0.33328  1.0000
  Fe  Fe54      1.0  0.52079  0.73202  0.36131  1.0000
  S   S105      1.0  0.54923  0.70368  0.32683  1.0000
  S   S106      1.0  0.47771  0.79110  0.41308  1.0000
  S   S107      1.0  0.52920  0.73547  0.41332  1.0000
  H   H790      1.0  0.55578  0.64105  0.46248  1.0000
  C   C442      1.0  0.43919  0.91559  0.32477  1.0000
  C   C443      1.0  0.41663  0.89846  0.30880  1.0000
  C   C444      1.0  0.41599  0.86586  0.31150  1.0000
  C   C445      1.0  0.43782  0.85025  0.33016  1.0000
  C   C446      1.0  0.46022  0.86743  0.34623  1.0000
  C   C447      1.0  0.46091  0.89995  0.34346  1.0000
  H   H791      1.0  0.39986  0.91031  0.29431  1.0000
  H   H792      1.0  0.39874  0.85262  0.29887  1.0000
  H   H793      1.0  0.47720  0.85564  0.36057  1.0000
  H   H794      1.0  0.47858  0.91304  0.35566  1.0000
  C   C448      1.0  0.56436  0.59807  0.32629  1.0000
  C   C449      1.0  0.58142  0.61756  0.30656  1.0000
  C   C450      1.0  0.57628  0.64984  0.30679  1.0000
  C   C451      1.0  0.55417  0.66289  0.32690  1.0000
  C   C452      1.0  0.53707  0.64338  0.34661  1.0000
  C   C453      1.0  0.54223  0.61112  0.34635  1.0000
  H   H795      1.0  0.59860  0.60756  0.29134  1.0000
  H   H796      1.0  0.58956  0.66481  0.29148  1.0000
  H   H797      1.0  0.51978  0.65310  0.36197  1.0000
  H   H798      1.0  0.52888  0.59614  0.36163  1.0000
  H   H799      1.0  0.36487  0.93435  0.33808  1.0000
  C   C454      1.0  0.64994  0.79907  0.43236  1.0000
  C   C455      1.0  0.61801  0.79939  0.42539  1.0000
  C   C456      1.0  0.59887  0.82177  0.43882  1.0000
  C   C457      1.0  0.61207  0.84400  0.45889  1.0000
  C   C458      1.0  0.64395  0.84355  0.46603  1.0000
  H   H800      1.0  0.61171  0.65723  0.03771  1.0000
  H   H801      1.0  0.60817  0.78261  0.40948  1.0000
  H   H802      1.0  0.53636  0.67626  0.45036  1.0000
  C   C459      1.0  0.35714  0.94253  0.14459  1.0000
  H   H803      1.0  0.46949  0.00335  0.19010  1.0000
  C   C460      1.0  0.66942  0.55945  0.16466  1.0000
  C   C461      1.0  0.39146  0.70119  0.47833  1.0000
  C   C462      1.0  0.41166  0.70278  0.45259  1.0000
  C   C463      1.0  0.40178  0.69113  0.42381  1.0000
  C   C464      1.0  0.37198  0.67811  0.42077  1.0000
  H   H804      1.0  0.59784  0.69510  0.36979  1.0000
  C   C465      1.0  0.36160  0.68814  0.47529  1.0000
  H   H805      1.0  0.41722  0.69191  0.40393  1.0000
  H   H806      1.0  0.65684  0.68251  0.09885  1.0000
  H   H807      1.0  0.38318  0.91825  0.40795  1.0000
  H   H808      1.0  0.44958  0.98890  0.42337  1.0000
  H   H809      1.0  0.63930  0.66234  0.34998  1.0000
  C   C466      1.0  0.43240  0.98036  0.40596  1.0000
  C   C467      1.0  0.59876  0.68084  0.43339  1.0000
  Fe  Fe55      1.0  0.65875  0.53523  0.25015  1.0000
  H   H810      1.0  0.45672  0.96535  0.17750  1.0000
  H   H811      1.0  0.65984  0.63182  0.17108  1.0000
  H   H812      1.0  0.60799  0.64314  0.36904  1.0000
  C   C468      1.0  0.46020  0.64501  0.51637  1.0000
  H   H813      1.0  0.60758  0.66684  0.45335  1.0000
  C   C469      1.0  0.35185  0.67627  0.44649  1.0000
  H   H814      1.0  0.37922  0.57371  0.47008  1.0000
  H   H815      1.0  0.65201  0.89430  0.41316  1.0000
  H   H816      1.0  0.45677  0.98371  0.12227  1.0000
  H   H817      1.0  0.34945  0.75135  0.44091  1.0000
  H   H818      1.0  0.66364  0.60844  0.27471  1.0000
  C   C470      1.0  0.63678  0.72666  0.36498  1.0000
  H   H819      1.0  0.46536  0.92539  0.41141  1.0000
  H   H820      1.0  0.38290  0.77698  0.46766  1.0000
  H   H821      1.0  0.64355  0.64463  0.41994  1.0000
  H   H822      1.0  0.40859  0.98949  0.15649  1.0000
  C   C471      1.0  0.39706  0.78910  0.44974  1.0000
  C   C472      1.0  0.66897  0.56588  0.13233  1.0000
  H   H823      1.0  0.40596  0.93468  0.37773  1.0000
  H   H824      1.0  0.40799  0.00111  0.36607  1.0000
  C   C473      1.0  0.61918  0.88782  0.37626  1.0000
  H   H825      1.0  0.56230  0.67266  0.39827  1.0000
  C   C474      1.0  0.42095  0.01036  0.14736  1.0000
  S   S108      1.0  0.60724  0.53552  0.24337  1.0000
  C   C475      1.0  0.36302  0.75473  0.35379  1.0000
  H   H826      1.0  0.60257  0.75168  0.33719  1.0000
  H   H827      1.0  0.54251  0.55924  0.19287  1.0000
  H   H828      1.0  0.47759  0.87461  0.43548  1.0000
  C   C476      1.0  0.39076  0.94087  0.39770  1.0000
  H   H829      1.0  0.65261  0.54364  0.17475  1.0000
  H   H830      1.0  0.60511  0.61742  0.04955  1.0000
  C   C477      1.0  0.62336  0.73699  0.33359  1.0000
  C   C478      1.0  0.63320  0.64732  0.37020  1.0000
  C   C479      1.0  0.64343  0.66287  0.40140  1.0000
  C   C480      1.0  0.62282  0.63441  0.04148  1.0000
  H   H831      1.0  0.64499  0.74786  0.37722  1.0000
  H   H832      1.0  0.37518  0.82327  0.35573  1.0000
  H   H833      1.0  0.43359  0.89833  0.40906  1.0000
  H   H834      1.0  0.67378  0.74335  0.48028  1.0000
  C   C481      1.0  0.35423  0.83318  0.36663  1.0000
  H   H835      1.0  0.35640  0.82879  0.15926  1.0000
  H   H836      1.0  0.44642  0.96694  0.38900  1.0000
  N   N27       1.0  0.61650  0.64123  0.19399  1.0000
  C   C482      1.0  0.64319  0.65132  0.17344  1.0000
  C   C483      1.0  0.62840  0.62908  0.22507  1.0000
  C   C484      1.0  0.60005  0.61487  0.17758  1.0000
  C   C485      1.0  0.59340  0.66690  0.19899  1.0000
  C   C486      1.0  0.60595  0.69699  0.21407  1.0000
  C   C487      1.0  0.63491  0.66213  0.13979  1.0000
  C   C488      1.0  0.57278  0.59951  0.19569  1.0000
  H   H837      1.0  0.40718  0.74110  0.33367  1.0000
  H   H838      1.0  0.61337  0.69229  0.23845  1.0000
  H   H839      1.0  0.42206  0.61846  0.49901  1.0000
  H   H840      1.0  0.67477  0.61905  0.36528  1.0000
  C   C489      1.0  0.56179  0.56992  0.17937  1.0000
  C   C490      1.0  0.35755  0.60616  0.50228  1.0000
  H   H841      1.0  0.64193  0.60603  0.34270  1.0000
  H   H842      1.0  0.61011  0.63099  0.24323  1.0000
  H   H843      1.0  0.63358  0.60377  0.22357  1.0000
  H   H844      1.0  0.61700  0.59639  0.17161  1.0000
  H   H845      1.0  0.58993  0.62277  0.15502  1.0000
  H   H846      1.0  0.58163  0.67301  0.17666  1.0000
  H   H847      1.0  0.57448  0.65880  0.21472  1.0000
  C   C491      1.0  0.46958  0.98663  0.17040  1.0000
  H   H848      1.0  0.61683  0.71647  0.31933  1.0000
  H   H849      1.0  0.62649  0.64230  0.12556  1.0000
  H   H850      1.0  0.61701  0.68047  0.14002  1.0000
  H   H851      1.0  0.55274  0.61552  0.19674  1.0000
  H   H852      1.0  0.57926  0.59329  0.21997  1.0000
  H   H853      1.0  0.59748  0.86154  0.46921  1.0000
  H   H854      1.0  0.36080  0.88008  0.25334  1.0000
  C   C492      1.0  0.65856  0.64385  0.23835  1.0000
  H   H855      1.0  0.52842  0.64029  0.43061  1.0000
  H   H856      1.0  0.37055  0.62630  0.49281  1.0000
  H   H857      1.0  0.43283  0.82504  0.45091  1.0000
  C   C493      1.0  0.65164  0.88330  0.38977  1.0000
  H   H858      1.0  0.65834  0.66949  0.23747  1.0000
  H   H859      1.0  0.35267  0.91873  0.23866  1.0000
  H   H860      1.0  0.42086  0.01156  0.46023  1.0000
  H   H861      1.0  0.65665  0.67039  0.18431  1.0000
  H   H862      1.0  0.65179  0.55486  0.11761  1.0000
  C   C494      1.0  0.45504  0.00110  0.14120  1.0000
  H   H863      1.0  0.55340  0.57525  0.15539  1.0000
  H   H864      1.0  0.63338  0.73358  0.43717  1.0000
  H   H865      1.0  0.44662  0.87943  0.46326  1.0000
  H   H866      1.0  0.44134  0.94953  0.45900  1.0000
  C   C495      1.0  0.64592  0.71187  0.43100  1.0000
  H   H867      1.0  0.38404  0.95714  0.04907  1.0000
  C   C496      1.0  0.61226  0.70960  0.38539  1.0000
  H   H868      1.0  0.37386  0.72286  0.31622  1.0000
  H   H869      1.0  0.37222  0.95752  0.19030  1.0000
  C   C497      1.0  0.46363  0.89200  0.44840  1.0000
  C   C498      1.0  0.37660  0.80662  0.42565  1.0000
  H   H870      1.0  0.40939  0.92336  0.45688  1.0000
  H   H871      1.0  0.66468  0.78186  0.42179  1.0000
  H   H872      1.0  0.66932  0.92153  0.36263  1.0000
  C   C499      1.0  0.66330  0.67534  0.12296  1.0000
  H   H873      1.0  0.38696  0.71019  0.35416  1.0000
  H   H874      1.0  0.58202  0.63791  0.41156  1.0000
  C   C500      1.0  0.66298  0.82090  0.45295  1.0000
  S   S109      1.0  0.35988  0.99739  0.30092  1.0000
  H   H875      1.0  0.59608  0.72761  0.39425  1.0000
  C   C501      1.0  0.65914  0.69833  0.46188  1.0000
  C   C502      1.0  0.57283  0.66080  0.41862  1.0000
  H   H876      1.0  0.56090  0.71330  0.23012  1.0000
  H   H877      1.0  0.41128  0.98063  0.48713  1.0000
  C   C503      1.0  0.37638  0.76593  0.38554  1.0000
  H   H878      1.0  0.39694  0.97572  0.10497  1.0000
  C   C504      1.0  0.38411  0.73072  0.33867  1.0000
  H   H879      1.0  0.39303  0.82041  0.41104  1.0000
  H   H880      1.0  0.39873  0.77768  0.37990  1.0000
  H   H881      1.0  0.38318  0.74512  0.39925  1.0000
  H   H882      1.0  0.59021  0.74297  0.22700  1.0000
  N   N28       1.0  0.62505  0.69069  0.41221  1.0000
  H   H883      1.0  0.36111  0.77445  0.33715  1.0000
  H   H884      1.0  0.64042  0.63715  0.06020  1.0000
  H   H885      1.0  0.64088  0.75072  0.32048  1.0000
  C   C505      1.0  0.66395  0.63414  0.27236  1.0000
  H   H886      1.0  0.67877  0.63594  0.22448  1.0000
  H   H887      1.0  0.64057  0.69585  0.47965  1.0000
  C   C506      1.0  0.41823  0.81151  0.46741  1.0000
  C   C507      1.0  0.44716  0.91331  0.42514  1.0000
  H   H888      1.0  0.41179  0.77184  0.43775  1.0000
  H   H889      1.0  0.36434  0.97907  0.37531  1.0000
  H   H890      1.0  0.61714  0.87655  0.35302  1.0000
  H   H891      1.0  0.58763  0.70176  0.44374  1.0000
  H   H892      1.0  0.65372  0.86059  0.48178  1.0000
  C   C508      1.0  0.40187  0.99647  0.46895  1.0000
  H   H893      1.0  0.47954  0.90559  0.46358  1.0000
  H   H894      1.0  0.35579  0.00941  0.12800  1.0000
  H   H895      1.0  0.35762  0.00376  0.49265  1.0000
  H   H896      1.0  0.45217  0.66747  0.50646  1.0000
  H   H897      1.0  0.36240  0.82374  0.43878  1.0000
  H   H898      1.0  0.36460  0.66906  0.39839  1.0000
  C   C509      1.0  0.42605  0.93695  0.44229  1.0000
  C   C510      1.0  0.54686  0.65430  0.44206  1.0000
  Fe  Fe56      1.0  0.35871  0.00293  0.24832  1.0000
  N   N29       1.0  0.40874  0.95958  0.42160  1.0000
  C   C511      1.0  0.34954  0.84718  0.14259  1.0000
  H   H899      1.0  0.37924  0.93239  0.13869  1.0000
  H   H900      1.0  0.37271  0.99399  0.42812  1.0000
  C   C512      1.0  0.64920  0.61612  0.36545  1.0000
  C   C513      1.0  0.58073  0.72172  0.21580  1.0000
  H   H901      1.0  0.40435  0.82774  0.48177  1.0000
  H   H902      1.0  0.58089  0.55277  0.17795  1.0000
  H   H903      1.0  0.36172  0.85241  0.38221  1.0000
  H   H904      1.0  0.36964  0.96136  0.45293  1.0000
  H   H905      1.0  0.49397  0.98022  0.16550  1.0000
  C   C514      1.0  0.38462  0.98157  0.04068  1.0000
  H   H906      1.0  0.61373  0.91290  0.37400  1.0000
  C   C515      1.0  0.38680  0.97755  0.44210  1.0000
  H   H907      1.0  0.65716  0.71178  0.36046  1.0000
  H   H908      1.0  0.66631  0.71921  0.41687  1.0000
  H   H909      1.0  0.38304  0.83053  0.10883  1.0000
  H   H910      1.0  0.43375  0.79811  0.48316  1.0000
  H   H911      1.0  0.64587  0.64410  0.28771  1.0000
  H   H912      1.0  0.65489  0.85794  0.39263  1.0000
  H   H913      1.0  0.39891  0.71033  0.50064  1.0000
  C   C516      1.0  0.36066  0.95528  0.38421  1.0000
  H   H914      1.0  0.60183  0.87699  0.39214  1.0000
  C   C517      1.0  0.35800  0.83623  0.10977  1.0000
  H   H915      1.0  0.42562  0.99632  0.08364  1.0000
  H   H916      1.0  0.67533  0.88500  0.34519  1.0000
  H   H917      1.0  0.67256  0.69596  0.13544  1.0000
  C   C518      1.0  0.37881  0.00398  0.06765  1.0000
  H   H918      1.0  0.47636  0.63435  0.49936  1.0000
  C   C519      1.0  0.40245  0.99887  0.09466  1.0000
  H   H919      1.0  0.40743  0.98635  0.02967  1.0000
  H   H920      1.0  0.35344  0.85479  0.09230  1.0000
  C   C520      1.0  0.35567  0.58134  0.47696  1.0000
  N   N30       1.0  0.35607  0.78667  0.40516  1.0000
  H   H921      1.0  0.66988  0.67531  0.45797  1.0000
  H   H922      1.0  0.36627  0.98442  0.02270  1.0000
  C   C521      1.0  0.35326  0.95682  0.17381  1.0000
  H   H923      1.0  0.35481  0.99972  0.07602  1.0000
  C   C522      1.0  0.67677  0.89751  0.36792  1.0000
  H   H924      1.0  0.68046  0.95173  0.40156  1.0000
  C   C523      1.0  0.34780  0.93567  0.35744  1.0000
  Fe  Fe57      1.0  0.48918  0.73405  0.86832  1.0000
  S   S110      1.0  0.48405  0.73832  0.92055  1.0000
  S   S111      1.0  0.45841  0.70514  0.83632  1.0000
  Fe  Fe58      1.0  0.53707  0.78626  0.86495  1.0000
  S   S112      1.0  0.53614  0.79431  0.91667  1.0000
  S   S113      1.0  0.56806  0.81106  0.82996  1.0000
  Fe  Fe59      1.0  0.53620  0.74241  0.92098  1.0000
  S   S114      1.0  0.56217  0.71758  0.95995  1.0000
  Fe  Fe60      1.0  0.48426  0.78983  0.91255  1.0000
  S   S115      1.0  0.45601  0.82605  0.93844  1.0000
  S   S116      1.0  0.54120  0.73421  0.86933  1.0000
  S   S117      1.0  0.48536  0.78566  0.86024  1.0000
  H   H925      1.0  0.39819  0.86926  0.86165  1.0000
  S   S118      1.0  0.62802  0.97701  0.75475  1.0000
  H   H926      1.0  0.40108  0.63205  0.86911  1.0000
  Fe  Fe61      1.0  0.63411  0.97997  0.80676  1.0000
  S   S119      1.0  0.60863  0.95226  0.84421  1.0000
  H   H927      1.0  0.58108  0.82382  0.74166  1.0000
  Fe  Fe62      1.0  0.41971  0.53718  0.78064  1.0000
  S   S120      1.0  0.37009  0.55205  0.78158  1.0000
  S   S121      1.0  0.45569  0.55914  0.81263  1.0000
  H   H928      1.0  0.63040  0.88261  0.64098  1.0000
  H   H929      1.0  0.66060  0.58014  0.97345  1.0000
  C   C524      1.0  0.60700  0.82842  0.95226  1.0000
  C   C525      1.0  0.60293  0.71868  0.96350  1.0000
  C   C526      1.0  0.61661  0.70908  0.99168  1.0000
  C   C527      1.0  0.64900  0.70669  0.99450  1.0000
  H   H930      1.0  0.57656  0.96921  0.66100  1.0000
  C   C528      1.0  0.65435  0.72545  0.94142  1.0000
  C   C529      1.0  0.62189  0.72703  0.93840  1.0000
  H   H931      1.0  0.40007  0.54712  0.62136  1.0000
  H   H932      1.0  0.39765  0.83552  0.88644  1.0000
  C   C530      1.0  0.42096  0.56161  0.61695  1.0000
  H   H933      1.0  0.61140  0.73386  0.91649  1.0000
  C   C531      1.0  0.45886  0.66455  0.82981  1.0000
  C   C532      1.0  0.47900  0.64471  0.84583  1.0000
  C   C533      1.0  0.47776  0.61245  0.84043  1.0000
  C   C534      1.0  0.45636  0.59977  0.81910  1.0000
  C   C535      1.0  0.43608  0.61964  0.80334  1.0000
  C   C536      1.0  0.43741  0.65185  0.80864  1.0000
  H   H934      1.0  0.49552  0.65423  0.86225  1.0000
  H   H935      1.0  0.49352  0.59723  0.85271  1.0000
  H   H936      1.0  0.41958  0.61023  0.78681  1.0000
  H   H937      1.0  0.42175  0.66703  0.79616  1.0000
  C   C537      1.0  0.59607  0.91350  0.83911  1.0000
  C   C538      1.0  0.57682  0.89969  0.86174  1.0000
  C   C539      1.0  0.56731  0.86850  0.85890  1.0000
  C   C540      1.0  0.57754  0.85078  0.83367  1.0000
  C   C541      1.0  0.59686  0.86454  0.81117  1.0000
  C   C542      1.0  0.60588  0.89586  0.81368  1.0000
  H   H938      1.0  0.56911  0.91324  0.88149  1.0000
  H   H939      1.0  0.55231  0.85815  0.87633  1.0000
  H   H940      1.0  0.60496  0.85068  0.79191  1.0000
  H   H941      1.0  0.62072  0.90640  0.79634  1.0000
  C   C543      1.0  0.41685  0.82223  0.95001  1.0000
  C   C544      1.0  0.39908  0.79620  0.94213  1.0000
  C   C545      1.0  0.36752  0.79480  0.95039  1.0000
  H   H942      1.0  0.46893  0.67212  0.93685  1.0000
  C   C546      1.0  0.37158  0.84488  0.97543  1.0000
  C   C547      1.0  0.40298  0.84648  0.96675  1.0000
  H   H943      1.0  0.40972  0.77743  0.92947  1.0000
  H   H944      1.0  0.65438  0.90756  0.75188  1.0000
  H   H945      1.0  0.41663  0.86665  0.97298  1.0000
  C   C548      1.0  0.61493  0.62153  0.98405  1.0000
  H   H946      1.0  0.57816  0.95748  0.70144  1.0000
  H   H947      1.0  0.35570  0.57719  0.54349  1.0000
  H   H948      1.0  0.64972  0.90120  0.90205  1.0000
  C   C549      1.0  0.41964  0.66089  0.93329  1.0000
  H   H949      1.0  0.42572  0.70490  0.91104  1.0000
  C   C550      1.0  0.37990  0.70873  0.86745  1.0000
  H   H950      1.0  0.35419  0.90718  0.86405  1.0000
  H   H951      1.0  0.62376  0.82307  0.97120  1.0000
  H   H952      1.0  0.63713  0.85973  0.86554  1.0000
  H   H953      1.0  0.60484  0.64520  0.98256  1.0000
  H   H954      1.0  0.35869  0.59477  0.88152  1.0000
  H   H955      1.0  0.66576  0.90856  0.84638  1.0000
  C   C551      1.0  0.39224  0.74256  0.87080  1.0000
  C   C552      1.0  0.39105  0.75986  0.83956  1.0000
  C   C553      1.0  0.40880  0.63822  0.54449  1.0000
  C   C554      1.0  0.63345  0.76066  0.85184  1.0000
  C   C555      1.0  0.65693  0.85503  0.88156  1.0000
  H   H956      1.0  0.62209  0.83763  0.70410  1.0000
  Fe  Fe63      1.0  0.37138  0.54599  0.72920  1.0000
  H   H957      1.0  0.44181  0.60105  0.53128  1.0000
  C   C556      1.0  0.66548  0.84842  0.64994  1.0000
  C   C557      1.0  0.37690  0.63869  0.86352  1.0000
  H   H958      1.0  0.56574  0.64289  0.94796  1.0000
  C   C558      1.0  0.38285  0.85169  0.87284  1.0000
  H   H959      1.0  0.56882  0.83071  0.98513  1.0000
  H   H960      1.0  0.60781  0.75925  0.85317  1.0000
  C   C559      1.0  0.65801  0.63880  0.90690  1.0000
  H   H961      1.0  0.40069  0.78362  0.84256  1.0000
  C   C560      1.0  0.58126  0.64072  0.92738  1.0000
  C   C561      1.0  0.65232  0.63480  0.94260  1.0000
  C   C562      1.0  0.66413  0.53079  0.93387  1.0000
  H   H962      1.0  0.40519  0.74774  0.82174  1.0000
  H   H963      1.0  0.36070  0.64432  0.91059  1.0000
  H   H964      1.0  0.57505  0.64034  0.87672  1.0000
  H   H965      1.0  0.35076  0.98276  0.94791  1.0000
  C   C563      1.0  0.36288  0.65932  0.88961  1.0000
  H   H966      1.0  0.42388  0.57828  0.63652  1.0000
  H   H967      1.0  0.65926  0.69869  0.01615  1.0000
  H   H968      1.0  0.39244  0.57868  0.52578  1.0000
  H   H969      1.0  0.56230  0.85184  0.94935  1.0000
  H   H970      1.0  0.37811  0.75600  0.88754  1.0000
  H   H971      1.0  0.59715  0.87955  0.74260  1.0000
  H   H972      1.0  0.41491  0.56089  0.56737  1.0000
  H   H973      1.0  0.60389  0.85774  0.91092  1.0000
  C   C564      1.0  0.67111  0.84538  0.61480  1.0000
  H   H974      1.0  0.35176  0.93915  0.90798  1.0000
  H   H975      1.0  0.64665  0.65836  0.95114  1.0000
  N   N31       1.0  0.62762  0.61189  0.95258  1.0000
  H   H976      1.0  0.65784  0.63889  0.00603  1.0000
  H   H977      1.0  0.46022  0.63819  0.91356  1.0000
  H   H978      1.0  0.58438  0.59156  0.93699  1.0000
  H   H979      1.0  0.63256  0.86889  0.93862  1.0000
  C   C565      1.0  0.66576  0.87696  0.71236  1.0000
  C   C566      1.0  0.67305  0.82333  0.92812  1.0000
  C   C567      1.0  0.65473  0.56432  0.92705  1.0000
  H   H980      1.0  0.60678  0.80790  0.88798  1.0000
  N   N32       1.0  0.38253  0.61784  0.55604  1.0000
  C   C568      1.0  0.39090  0.60203  0.58646  1.0000
  H   H981      1.0  0.37320  0.87950  0.91292  1.0000
  H   H982      1.0  0.64892  0.84619  0.60167  1.0000
  C   C569      1.0  0.41804  0.57873  0.58568  1.0000
  C   C570      1.0  0.56698  0.84209  0.73009  1.0000
  H   H983      1.0  0.65748  0.61665  0.89403  1.0000
  H   H984      1.0  0.39770  0.61935  0.60443  1.0000
  N   N33       1.0  0.63856  0.88346  0.69106  1.0000
  H   H985      1.0  0.63798  0.56377  0.90742  1.0000
  H   H986      1.0  0.35590  0.71026  0.85796  1.0000
  C   C571      1.0  0.64986  0.87979  0.65782  1.0000
  C   C572      1.0  0.61250  0.86051  0.69682  1.0000
  H   H987      1.0  0.35757  0.64970  0.61229  1.0000
  H   H988      1.0  0.44015  0.59137  0.58181  1.0000
  C   C573      1.0  0.37274  0.59352  0.53265  1.0000
  C   C574      1.0  0.62867  0.91678  0.69513  1.0000
  H   H989      1.0  0.57190  0.88783  0.71074  1.0000
  H   H990      1.0  0.64333  0.86709  0.75698  1.0000
  H   H991      1.0  0.64363  0.74333  0.86810  1.0000
  H   H992      1.0  0.67514  0.84491  0.86658  1.0000
  H   H993      1.0  0.37022  0.58972  0.59601  1.0000
  C   C575      1.0  0.63839  0.62292  0.01160  1.0000
  H   H994      1.0  0.66891  0.73154  0.92177  1.0000
  H   H995      1.0  0.41424  0.67304  0.95544  1.0000
  C   C576      1.0  0.35472  0.63810  0.56229  1.0000
  H   H996      1.0  0.36344  0.67006  0.95884  1.0000
  C   C577      1.0  0.66104  0.88314  0.74757  1.0000
  C   C578      1.0  0.66800  0.71456  0.96922  1.0000
  H   H997      1.0  0.66678  0.89850  0.65198  1.0000
  H   H998      1.0  0.54898  0.84966  0.74693  1.0000
  C   C579      1.0  0.60627  0.92959  0.66985  1.0000
  H   H999      1.0  0.39968  0.65874  0.53155  1.0000
  C   C580      1.0  0.58000  0.84574  0.96720  1.0000
  H   H1000     1.0  0.61911  0.93398  0.64774  1.0000
  H   H1001     1.0  0.58731  0.91284  0.66494  1.0000
  H   H1002     1.0  0.59627  0.66163  0.92655  1.0000
  H   H1003     1.0  0.38011  0.67508  0.58734  1.0000
  C   C581      1.0  0.59204  0.96043  0.67977  1.0000
  H   H1004     1.0  0.34873  0.65176  0.54102  1.0000
  C   C582      1.0  0.60067  0.61052  0.93005  1.0000
  H   H1005     1.0  0.67474  0.62906  0.95410  1.0000
  H   H1006     1.0  0.47296  0.64944  0.53848  1.0000
  H   H1007     1.0  0.42169  0.64822  0.56469  1.0000
  H   H1008     1.0  0.60194  0.70321  0.01129  1.0000
  N   N34       1.0  0.38028  0.68897  0.89680  1.0000
  C   C583      1.0  0.63201  0.80407  0.89211  1.0000
  H   H1009     1.0  0.37064  0.83817  0.85449  1.0000
  C   C584      1.0  0.58727  0.86983  0.72092  1.0000
  C   C585      1.0  0.45370  0.65139  0.93482  1.0000
  H   H1010     1.0  0.41664  0.74295  0.87885  1.0000
  C   C586      1.0  0.62254  0.84847  0.92632  1.0000
  H   H1011     1.0  0.35848  0.72108  0.98619  1.0000
  H   H1012     1.0  0.61046  0.97807  0.68387  1.0000
  H   H1013     1.0  0.36123  0.86369  0.98834  1.0000
  H   H1014     1.0  0.63318  0.78412  0.90858  1.0000
  C   C587      1.0  0.56071  0.64077  0.89825  1.0000
  H   H1015     1.0  0.67282  0.85224  0.71073  1.0000
  H   H1016     1.0  0.60831  0.60426  0.90621  1.0000
  H   H1017     1.0  0.58830  0.86733  0.97866  1.0000
  C   C588      1.0  0.41363  0.68288  0.90528  1.0000
  H   H1018     1.0  0.62322  0.56381  0.96656  1.0000
  H   H1019     1.0  0.63981  0.65380  0.89654  1.0000
  H   H1020     1.0  0.55529  0.83219  0.70921  1.0000
  H   H1021     1.0  0.54477  0.62045  0.89840  1.0000
  H   H1022     1.0  0.66471  0.80645  0.94603  1.0000
  H   H1023     1.0  0.61793  0.92054  0.71827  1.0000
  H   H1024     1.0  0.64926  0.93229  0.69538  1.0000
  H   H1025     1.0  0.64791  0.59971  0.01724  1.0000
  H   H1026     1.0  0.65088  0.82856  0.65763  1.0000
  H   H1027     1.0  0.45762  0.63633  0.95556  1.0000
  H   H1028     1.0  0.64363  0.51665  0.94067  1.0000
  S   S122      1.0  0.42219  0.53479  0.72804  1.0000
  H   H1029     1.0  0.38079  0.72360  0.93339  1.0000
  H   H1030     1.0  0.64055  0.75478  0.82765  1.0000
  H   H1031     1.0  0.39394  0.69784  0.84873  1.0000
  H   H1032     1.0  0.42633  0.67376  0.88480  1.0000
  H   H1033     1.0  0.59557  0.60582  0.99116  1.0000
  H   H1034     1.0  0.54658  0.66227  0.89785  1.0000
  H   H1035     1.0  0.59795  0.80614  0.94305  1.0000
  C   C589      1.0  0.35810  0.66183  0.58932  1.0000
  S   S123      1.0  0.34805  0.58326  0.69948  1.0000
  C   C590      1.0  0.64478  0.79332  0.85994  1.0000
  C   C591      1.0  0.35964  0.86735  0.89461  1.0000
  H   H1036     1.0  0.40587  0.63923  0.93181  1.0000
  N   N35       1.0  0.64678  0.83250  0.90675  1.0000
  H   H1037     1.0  0.59964  0.85562  0.67476  1.0000
  H   H1038     1.0  0.35057  0.53202  0.65517  1.0000
  H   H1039     1.0  0.44143  0.54610  0.61648  1.0000
  H   H1040     1.0  0.63660  0.80934  0.84128  1.0000
  C   C592      1.0  0.64105  0.57978  0.95653  1.0000
  H   H1041     1.0  0.67675  0.98188  0.67404  1.0000
  H   H1042     1.0  0.37660  0.65082  0.84061  1.0000
  H   H1043     1.0  0.35370  0.77492  0.94380  1.0000
  H   H1044     1.0  0.67034  0.79318  0.85901  1.0000
  C   C593      1.0  0.66905  0.88712  0.89262  1.0000
  H   H1045     1.0  0.36916  0.59445  0.84083  1.0000
  C   C594      1.0  0.35844  0.60861  0.85955  1.0000
  H   H1046     1.0  0.36681  0.76173  0.83109  1.0000
  Fe  Fe64      1.0  0.67966  0.98412  0.75212  1.0000
  C   C595      1.0  0.35367  0.81908  0.96712  1.0000
  C   C596      1.0  0.36422  0.70697  0.92238  1.0000
  H   H1047     1.0  0.67398  0.97012  0.61729  1.0000
  H   H1048     1.0  0.67450  0.52043  0.91259  1.0000
  H   H1049     1.0  0.67609  0.57680  0.91974  1.0000
  C   C597      1.0  0.34823  0.68812  0.94885  1.0000
  C   C598      1.0  0.43274  0.62324  0.52211  1.0000
  C   C599      1.0  0.93736  0.13607  0.15812  1.0000
  C   C600      1.0  0.71206  0.08250  0.16552  1.0000
  S   S124      1.0  0.81717  0.08998  0.07867  1.0000
  C   C601      1.0  0.80372  0.11932  0.45715  1.0000
  S   S125      1.0  0.71969  0.21545  0.07027  1.0000
  H   H1050     1.0  0.90964  0.11225  0.10342  1.0000
  H   H1051     1.0  0.87168  0.11186  0.11831  1.0000
  S   S126      1.0  0.85682  0.03053  0.29810  1.0000
  S   S127      1.0  0.81785  0.06944  0.22575  1.0000
  H   H1052     1.0  0.70237  0.38469  0.12769  1.0000
  S   S128      1.0  0.94368  0.05636  0.31688  1.0000
  H   H1053     1.0  0.91243  0.34935  0.49771  1.0000
  Fe  Fe65      1.0  0.97221  0.22746  0.37545  1.0000
  S   S129      1.0  0.97305  0.22468  0.42796  1.0000
  S   S130      1.0  0.93802  0.20121  0.34448  1.0000
  Fe  Fe66      1.0  0.97447  0.27679  0.42670  1.0000
  S   S131      1.0  0.94920  0.30761  0.46152  1.0000
  S   S132      1.0  0.97012  0.27982  0.37435  1.0000
  Fe  Fe67      1.0  0.73749  0.41943  0.50259  1.0000
  S   S133      1.0  0.72860  0.36801  0.50114  1.0000
  S   S134      1.0  0.70869  0.45454  0.47539  1.0000
  Fe  Fe68      1.0  0.78073  0.36387  0.50196  1.0000
  S   S135      1.0  0.80341  0.32927  0.46916  1.0000
  S   S136      1.0  0.78930  0.41530  0.49991  1.0000
  C   C602      1.0  0.90858  0.31308  0.46333  1.0000
  C   C603      1.0  0.89670  0.33580  0.48349  1.0000
  C   C604      1.0  0.86457  0.34102  0.48557  1.0000
  C   C605      1.0  0.84400  0.32348  0.46747  1.0000
  C   C606      1.0  0.85591  0.30096  0.44708  1.0000
  C   C607      1.0  0.88804  0.29568  0.44507  1.0000
  H   H1054     1.0  0.69945  0.44142  0.15568  1.0000
  H   H1055     1.0  0.85572  0.35848  0.50127  1.0000
  H   H1056     1.0  0.84015  0.28731  0.43298  1.0000
  H   H1057     1.0  0.89686  0.27795  0.42967  1.0000
  C   C608      1.0  0.94160  0.16142  0.33499  1.0000
  C   C609      1.0  0.91982  0.14778  0.31474  1.0000
  C   C610      1.0  0.92077  0.11579  0.30814  1.0000
  C   C611      1.0  0.94335  0.09710  0.32205  1.0000
  C   C612      1.0  0.96564  0.11088  0.34161  1.0000
  C   C613      1.0  0.96488  0.14295  0.34794  1.0000
  H   H1058     1.0  0.90199  0.16204  0.30433  1.0000
  H   H1059     1.0  0.90384  0.10550  0.29264  1.0000
  H   H1060     1.0  0.98332  0.09659  0.35222  1.0000
  C   C614      1.0  0.74568  0.36712  0.14422  1.0000
  C   C615      1.0  0.81406  0.08345  0.11937  1.0000
  C   C616      1.0  0.79932  0.10443  0.13925  1.0000
  C   C617      1.0  0.80000  0.09959  0.17187  1.0000
  C   C618      1.0  0.81545  0.07385  0.18473  1.0000
  C   C619      1.0  0.82944  0.05254  0.16477  1.0000
  C   C620      1.0  0.82886  0.05742  0.13227  1.0000
  H   H1061     1.0  0.72291  0.41330  0.36899  1.0000
  C   C621      1.0  0.90047  0.12623  0.42437  1.0000
  H   H1062     1.0  0.97563  0.40859  0.36282  1.0000
  H   H1063     1.0  0.85973  0.14475  0.06989  1.0000
  C   C622      1.0  0.69295  0.45320  0.36898  1.0000
  H   H1064     1.0  0.82295  0.07537  0.44434  1.0000
  H   H1065     1.0  0.88270  0.16086  0.17110  1.0000
  H   H1066     1.0  0.89078  0.04210  0.36168  1.0000
  C   C623      1.0  0.70419  0.45430  0.43420  1.0000
  C   C624      1.0  0.71811  0.43172  0.41559  1.0000
  C   C625      1.0  0.83302  0.10879  0.40674  1.0000
  S   S137      1.0  0.90224  0.03700  0.23595  1.0000
  H   H1067     1.0  0.73299  0.41450  0.42623  1.0000
  N   N36       1.0  0.91841  0.37564  0.37862  1.0000
  C   C626      1.0  0.91148  0.35244  0.35309  1.0000
  H   H1068     1.0  0.74321  0.05530  0.19444  1.0000
  Fe  Fe69      1.0  0.90785  0.03057  0.28773  1.0000
  C   C627      1.0  0.89146  0.37883  0.40073  1.0000
  C   C628      1.0  0.86078  0.39002  0.38561  1.0000
  C   C629      1.0  0.89636  0.32137  0.36377  1.0000
  H   H1069     1.0  0.74004  0.14189  0.16654  1.0000
  H   H1070     1.0  0.87887  0.30806  0.31782  1.0000
  H   H1071     1.0  0.92585  0.16746  0.40874  1.0000
  C   C630      1.0  0.83371  0.38671  0.40835  1.0000
  C   C631      1.0  0.89377  0.29847  0.33667  1.0000
  C   C632      1.0  0.99009  0.37810  0.43420  1.0000
  Fe  Fe70      1.0  0.85125  0.03379  0.24569  1.0000
  H   H1072     1.0  0.89609  0.36263  0.33490  1.0000
  H   H1073     1.0  0.91701  0.29318  0.32700  1.0000
  C   C633      1.0  0.74669  0.18549  0.14347  1.0000
  H   H1074     1.0  0.80098  0.11209  0.48196  1.0000
  H   H1075     1.0  0.94127  0.34121  0.40712  1.0000
  H   H1076     1.0  0.88726  0.35669  0.41358  1.0000
  H   H1077     1.0  0.89690  0.39591  0.41942  1.0000
  H   H1078     1.0  0.85486  0.37669  0.36431  1.0000
  H   H1079     1.0  0.86279  0.41491  0.37901  1.0000
  H   H1080     1.0  0.95581  0.41021  0.41842  1.0000
  H   H1081     1.0  0.87261  0.32518  0.37282  1.0000
  C   C634      1.0  0.72522  0.16003  0.15587  1.0000
  C   C635      1.0  0.92066  0.03002  0.14909  1.0000
  C   C636      1.0  0.89668  0.04769  0.38625  1.0000
  H   H1082     1.0  0.95886  0.39070  0.32876  1.0000
  C   C637      1.0  0.96366  0.12643  0.13570  1.0000
  C   C638      1.0  0.88780  0.11876  0.39139  1.0000
  H   H1083     1.0  0.70647  0.33659  0.44357  1.0000
  H   H1084     1.0  0.81252  0.39708  0.39799  1.0000
  H   H1085     1.0  0.82896  0.36180  0.41309  1.0000
  H   H1086     1.0  0.83877  0.39863  0.43080  1.0000
  H   H1087     1.0  0.86901  0.14389  0.25524  1.0000
  H   H1088     1.0  0.98183  0.44206  0.31702  1.0000
  H   H1089     1.0  0.93315  0.34642  0.34042  1.0000
  H   H1090     1.0  0.88333  0.27639  0.34517  1.0000
  H   H1091     1.0  0.94058  0.44253  0.31043  1.0000
  H   H1092     1.0  0.84101  0.13673  0.22482  1.0000
  H   H1093     1.0  0.84899  0.04884  0.40147  1.0000
  H   H1094     1.0  0.76021  0.17714  0.12309  1.0000
  H   H1095     1.0  0.71119  0.17017  0.17480  1.0000
  C   C639      1.0  0.71237  0.43110  0.38316  1.0000
  C   C640      1.0  0.92994  0.14591  0.42250  1.0000
  C   C641      1.0  0.95611  0.40965  0.34602  1.0000
  H   H1096     1.0  0.80965  0.14445  0.45659  1.0000
  S   S138      1.0  0.68510  0.45026  0.32842  1.0000
  H   H1097     1.0  0.78814  0.12469  0.12952  1.0000
  H   H1098     1.0  0.75216  0.35792  0.12091  1.0000
  N   N37       1.0  0.86104  0.09617  0.38980  1.0000
  C   C642      1.0  0.69345  0.34255  0.42199  1.0000
  H   H1099     1.0  0.92393  0.42575  0.38121  1.0000
  C   C643      1.0  0.85247  0.09196  0.35578  1.0000
  H   H1100     1.0  0.93475  0.16173  0.15680  1.0000
  C   C644      1.0  0.83872  0.12074  0.33872  1.0000
  H   H1101     1.0  0.71526  0.40109  0.18547  1.0000
  C   C645      1.0  0.82792  0.11231  0.30574  1.0000
  C   C646      1.0  0.71043  0.36911  0.14665  1.0000
  H   H1102     1.0  0.97067  0.10219  0.14066  1.0000
  H   H1103     1.0  0.69118  0.12226  0.18816  1.0000
  H   H1104     1.0  0.83546  0.07254  0.35337  1.0000
  H   H1105     1.0  0.87310  0.08522  0.34189  1.0000
  H   H1106     1.0  0.90728  0.11074  0.37663  1.0000
  H   H1107     1.0  0.78131  0.11554  0.44492  1.0000
  H   H1108     1.0  0.91813  0.06195  0.38662  1.0000
  H   H1109     1.0  0.85634  0.13939  0.33643  1.0000
  H   H1110     1.0  0.81846  0.13034  0.35122  1.0000
  C   C647      1.0  0.88129  0.15829  0.07407  1.0000
  C   C648      1.0  0.82936  0.10030  0.44191  1.0000
  H   H1111     1.0  0.75636  0.39048  0.14692  1.0000
  H   H1112     1.0  0.84734  0.10289  0.29176  1.0000
  H   H1113     1.0  0.80905  0.09471  0.30663  1.0000
  H   H1114     1.0  0.81900  0.13331  0.29366  1.0000
  H   H1115     1.0  0.84023  0.04106  0.11703  1.0000
  N   N38       1.0  0.90648  0.12018  0.15357  1.0000
  H   H1116     1.0  0.94158  0.38098  0.44481  1.0000
  C   C649      1.0  0.90844  0.08611  0.16236  1.0000
  C   C650      1.0  0.88341  0.13536  0.17517  1.0000
  C   C651      1.0  0.89444  0.12390  0.12057  1.0000
  H   H1117     1.0  0.90624  0.10492  0.43767  1.0000
  S   S139      1.0  0.73790  0.12812  0.04956  1.0000
  C   C652      1.0  0.88918  0.13093  0.21082  1.0000
  C   C653      1.0  0.91581  0.06266  0.13592  1.0000
  H   H1118     1.0  0.00658  0.38633  0.41610  1.0000
  H   H1119     1.0  0.96608  0.35991  0.38093  1.0000
  H   H1120     1.0  0.90999  0.31013  0.38251  1.0000
  H   H1121     1.0  0.01109  0.13908  0.12452  1.0000
  C   C654      1.0  0.70508  0.14584  0.12930  1.0000
  H   H1122     1.0  0.92553  0.08260  0.18158  1.0000
  H   H1123     1.0  0.88599  0.07786  0.17213  1.0000
  H   H1124     1.0  0.85963  0.12657  0.17006  1.0000
  H   H1125     1.0  0.88249  0.50662  0.13392  1.0000
  H   H1126     1.0  0.87727  0.18260  0.06639  1.0000
  H   H1127     1.0  0.94634  0.13155  0.18208  1.0000
  H   H1128     1.0  0.70317  0.06118  0.15397  1.0000
  H   H1129     1.0  0.85087  0.10417  0.45543  1.0000
  H   H1130     1.0  0.83227  0.13458  0.40445  1.0000
  H   H1131     1.0  0.98187  0.15333  0.36333  1.0000
  H   H1132     1.0  0.91172  0.14110  0.21796  1.0000
  H   H1133     1.0  0.88894  0.10604  0.21756  1.0000
  H   H1134     1.0  0.89611  0.06133  0.11922  1.0000
  H   H1135     1.0  0.93674  0.06925  0.12257  1.0000
  H   H1136     1.0  0.99546  0.39023  0.45642  1.0000
  H   H1137     1.0  0.72166  0.13324  0.11412  1.0000
  H   H1138     1.0  0.90620  0.41264  0.34660  1.0000
  H   H1139     1.0  0.88119  0.14154  0.38111  1.0000
  C   C655      1.0  0.72487  0.07306  0.19748  1.0000
  C   C656      1.0  0.94615  0.36429  0.39676  1.0000
  C   C657      1.0  0.92484  0.40680  0.36363  1.0000
  C   C658      1.0  0.95885  0.44057  0.32864  1.0000
  H   H1140     1.0  0.95691  0.46029  0.34517  1.0000
  H   H1141     1.0  0.78921  0.11620  0.18724  1.0000
  H   H1142     1.0  0.75508  0.35127  0.16242  1.0000
  C   C659      1.0  0.86954  0.06458  0.40265  1.0000
  H   H1143     1.0  0.00351  0.11637  0.40386  1.0000
  H   H1144     1.0  0.73151  0.09152  0.15116  1.0000
  H   H1145     1.0  0.86365  0.17227  0.22474  1.0000
  H   H1146     1.0  0.88319  0.13999  0.43750  1.0000
  C   C660      1.0  0.86410  0.14700  0.22995  1.0000
  H   H1147     1.0  0.93750  0.15263  0.44638  1.0000
  H   H1148     1.0  0.94885  0.13251  0.41149  1.0000
  H   H1149     1.0  0.84116  0.03251  0.17440  1.0000
  H   H1150     1.0  0.89955  0.02184  0.16152  1.0000
  C   C661      1.0  0.95684  0.38520  0.42429  1.0000
  Fe  Fe71      1.0  0.78958  0.12454  0.04973  1.0000
  Fe  Fe72      1.0  0.74544  0.17915  0.04182  1.0000
  H   H1151     1.0  0.81125  0.10013  0.39567  1.0000
  H   H1152     1.0  0.00085  0.14507  0.16488  1.0000
  H   H1153     1.0  0.98702  0.17147  0.13491  1.0000
  H   H1154     1.0  0.76313  0.19273  0.16207  1.0000
  H   H1155     1.0  0.87574  0.06580  0.42776  1.0000
  H   H1156     1.0  0.73541  0.09337  0.20947  1.0000
  H   H1157     1.0  0.73297  0.20607  0.13631  1.0000
  H   H1158     1.0  0.69491  0.32254  0.40578  1.0000
  H   H1159     1.0  0.84195  0.49929  0.14076  1.0000
  H   H1160     1.0  0.70743  0.36234  0.19603  1.0000
  H   H1161     1.0  0.95676  0.12867  0.11084  1.0000
  H   H1162     1.0  0.70453  0.36294  0.41054  1.0000
  S   S140      1.0  0.79769  0.17607  0.04574  1.0000
  H   H1163     1.0  0.90021  0.14846  0.05965  1.0000
  H   H1164     1.0  0.70120  0.34533  0.14282  1.0000
  H   H1165     1.0  0.91135  0.17163  0.11155  1.0000
  C   C662      1.0  0.70048  0.38078  0.17924  1.0000
  H   H1166     1.0  0.68531  0.40478  0.27790  1.0000
  H   H1167     1.0  0.94057  0.02959  0.16556  1.0000
  C   C663      1.0  0.88991  0.15768  0.10876  1.0000
  H   H1168     1.0  0.99338  0.35280  0.43794  1.0000
  C   C664      1.0  0.99234  0.14682  0.14040  1.0000
  H   H1169     1.0  0.87079  0.16910  0.12159  1.0000
  H   H1170     1.0  0.69631  0.16518  0.11446  1.0000
  H   H1171     1.0  0.91122  0.02081  0.42705  1.0000
  H   H1172     1.0  0.70625  0.06306  0.21236  1.0000
  H   H1173     1.0  0.69415  0.08845  0.10779  1.0000
  C   C665      1.0  0.68555  0.10665  0.16842  1.0000
  H   H1174     1.0  0.68487  0.08121  0.05223  1.0000
  C   C666      1.0  0.68506  0.47662  0.41999  1.0000
  H   H1175     1.0  0.68415  0.36066  0.24119  1.0000
  C   C667      1.0  0.90392  0.01688  0.40247  1.0000
  H   H1176     1.0  0.85293  0.50781  0.59785  1.0000
  S   S141      1.0  0.90509  0.48936  0.75470  1.0000
  S   S142      1.0  0.81622  0.48157  0.72134  1.0000
  Fe  Fe73      1.0  0.89905  0.48762  0.80703  1.0000
  S   S143      1.0  0.92006  0.45509  0.84339  1.0000
  S   S144      1.0  0.84743  0.49458  0.80524  1.0000
  H   H1177     1.0  0.80594  0.03024  0.87556  1.0000
  C   C668      1.0  0.81705  0.27674  0.96929  1.0000
  S   S145      1.0  0.70711  0.09078  0.97424  1.0000
  H   H1178     1.0  0.86210  0.36674  0.58111  1.0000
  S   S146      1.0  0.82891  0.18678  0.95560  1.0000
  S   S147      1.0  0.79208  0.11679  0.99784  1.0000
  C   C669      1.0  0.93822  0.50690  0.66913  1.0000
  S   S148      1.0  0.99876  0.30888  0.91819  1.0000
  S   S149      1.0  0.97463  0.31906  0.82857  1.0000
  Fe  Fe74      1.0  0.99613  0.25774  0.92877  1.0000
  S   S150      1.0  0.96477  0.24279  0.96899  1.0000
  S   S151      1.0  0.99452  0.24317  0.87819  1.0000
  Fe  Fe75      1.0  0.78791  0.41326  0.55266  1.0000
  S   S152      1.0  0.78274  0.36135  0.55427  1.0000
  S   S153      1.0  0.82701  0.43574  0.58065  1.0000
  Fe  Fe76      1.0  0.73125  0.36986  0.55355  1.0000
  S   S154      1.0  0.70253  0.34328  0.58973  1.0000
  S   S155      1.0  0.73670  0.42181  0.55543  1.0000
  C   C670      1.0  0.86775  0.19922  0.96037  1.0000
  C   C671      1.0  0.87983  0.20711  0.98962  1.0000
  C   C672      1.0  0.90986  0.21984  0.99194  1.0000
  C   C673      1.0  0.92809  0.22465  0.96512  1.0000
  C   C674      1.0  0.91630  0.21598  0.93597  1.0000
  C   C675      1.0  0.88622  0.20343  0.93362  1.0000
  H   H1179     1.0  0.72490  0.12320  0.86531  1.0000
  C   C676      1.0  0.69203  0.05967  0.92032  1.0000
  H   H1180     1.0  0.93024  0.21934  0.91524  1.0000
  H   H1181     1.0  0.87701  0.19746  0.91089  1.0000
  C   C677      1.0  0.81995  0.46943  0.68214  1.0000
  C   C678      1.0  0.79309  0.46611  0.66386  1.0000
  C   C679      1.0  0.79485  0.45577  0.63274  1.0000
  C   C680      1.0  0.82357  0.44872  0.61964  1.0000
  C   C681      1.0  0.85050  0.45254  0.63776  1.0000
  C   C682      1.0  0.84873  0.46280  0.66893  1.0000
  H   H1182     1.0  0.77075  0.47142  0.67389  1.0000
  H   H1183     1.0  0.77402  0.45337  0.61885  1.0000
  H   H1184     1.0  0.87283  0.44727  0.62767  1.0000
  H   H1185     1.0  0.86954  0.46532  0.68281  1.0000
  C   C683      1.0  0.93297  0.41653  0.83850  1.0000
  C   C684      1.0  0.94266  0.39994  0.86507  1.0000
  C   C685      1.0  0.95544  0.37011  0.86232  1.0000
  C   C686      1.0  0.95785  0.35618  0.83300  1.0000
  C   C687      1.0  0.94714  0.37229  0.80648  1.0000
  C   C688      1.0  0.93487  0.40245  0.80915  1.0000
  H   H1186     1.0  0.94100  0.41059  0.88787  1.0000
  H   H1187     1.0  0.96332  0.35788  0.88292  1.0000
  H   H1188     1.0  0.94883  0.36160  0.78370  1.0000
  H   H1189     1.0  0.92725  0.41491  0.78854  1.0000
  H   H1190     1.0  0.85213  0.11424  0.86233  1.0000
  C   C689      1.0  0.71570  0.10544  0.88066  1.0000
  C   C690      1.0  0.71595  0.11001  0.91320  1.0000
  C   C691      1.0  0.70485  0.08680  0.93319  1.0000
  H   H1191     1.0  0.88377  0.33135  0.58581  1.0000
  H   H1192     1.0  0.76989  0.08269  0.93971  1.0000
  S   S156      1.0  0.74496  0.17584  0.98928  1.0000
  H   H1193     1.0  0.72501  0.13135  0.92293  1.0000
  C   C692      1.0  0.81572  0.07287  0.92043  1.0000
  H   H1194     1.0  0.85298  0.31779  0.63305  1.0000
  C   C693      1.0  0.80082  0.08022  0.86453  1.0000
  C   C694      1.0  0.80080  0.12411  0.90069  1.0000
  H   H1195     1.0  0.82874  0.16175  0.88019  1.0000
  N   N39       1.0  0.87918  0.30946  0.91118  1.0000
  C   C695      1.0  0.84918  0.30594  0.92887  1.0000
  C   C696      1.0  0.87909  0.34029  0.89434  1.0000
  C   C697      1.0  0.88196  0.28287  0.88852  1.0000
  C   C698      1.0  0.90677  0.30873  0.93294  1.0000
  C   C699      1.0  0.90498  0.33005  0.96204  1.0000
  C   C700      1.0  0.84607  0.27601  0.94893  1.0000
  C   C701      1.0  0.90916  0.28508  0.86497  1.0000
  C   C702      1.0  0.85382  0.34451  0.86886  1.0000
  C   C703      1.0  0.85908  0.37447  0.85032  1.0000
  C   C704      1.0  0.93476  0.32833  0.98130  1.0000
  H   H1196     1.0  0.95491  0.33631  0.96726  1.0000
  C   C705      1.0  0.91084  0.25604  0.84465  1.0000
  H   H1197     1.0  0.82926  0.30542  0.91237  1.0000
  H   H1198     1.0  0.84506  0.32652  0.94393  1.0000
  H   H1199     1.0  0.87582  0.35959  0.91116  1.0000
  H   H1200     1.0  0.90202  0.34485  0.88352  1.0000
  H   H1201     1.0  0.86009  0.27951  0.87515  1.0000
  H   H1202     1.0  0.88510  0.26075  0.90150  1.0000
  H   H1203     1.0  0.91135  0.28470  0.94134  1.0000
  H   H1204     1.0  0.92817  0.31553  0.92014  1.0000
  H   H1205     1.0  0.88570  0.32294  0.97765  1.0000
  H   H1206     1.0  0.90158  0.35463  0.95515  1.0000
  H   H1207     1.0  0.84400  0.25550  0.93346  1.0000
  H   H1208     1.0  0.86622  0.27260  0.96461  1.0000
  H   H1209     1.0  0.93165  0.28732  0.87733  1.0000
  H   H1210     1.0  0.90640  0.30528  0.84907  1.0000
  H   H1211     1.0  0.85369  0.32519  0.85185  1.0000
  H   H1212     1.0  0.83057  0.34595  0.87977  1.0000
  H   H1213     1.0  0.88084  0.37290  0.83666  1.0000
  H   H1214     1.0  0.83966  0.37814  0.83368  1.0000
  H   H1215     1.0  0.86049  0.39486  0.86613  1.0000
  H   H1216     1.0  0.80250  0.14407  0.85286  1.0000
  H   H1217     1.0  0.75509  0.35679  0.63236  1.0000
  H   H1218     1.0  0.85903  0.13720  0.91917  1.0000
  C   C706      1.0  0.78280  0.27375  0.67244  1.0000
  H   H1219     1.0  0.86573  0.20421  0.01032  1.0000
  H   H1220     1.0  0.77522  0.08049  0.86765  1.0000
  H   H1221     1.0  0.91472  0.23508  0.85933  1.0000
  H   H1222     1.0  0.88918  0.25310  0.83095  1.0000
  H   H1223     1.0  0.93053  0.25833  0.82809  1.0000
  N   N40       1.0  0.81280  0.35950  0.66596  1.0000
  C   C707      1.0  0.82359  0.35962  0.63238  1.0000
  C   C708      1.0  0.78381  0.37889  0.66935  1.0000
  C   C709      1.0  0.83813  0.37426  0.68543  1.0000
  C   C710      1.0  0.80745  0.32699  0.67807  1.0000
  C   C711      1.0  0.78342  0.30709  0.66009  1.0000
  C   C712      1.0  0.83015  0.38091  0.72023  1.0000
  C   C713      1.0  0.76115  0.38014  0.64112  1.0000
  H   H1224     1.0  0.76495  0.26019  0.65956  1.0000
  C   C714      1.0  0.78280  0.06248  0.93067  1.0000
  C   C715      1.0  0.85694  0.39760  0.73663  1.0000
  H   H1225     1.0  0.82666  0.38397  0.62421  1.0000
  H   H1226     1.0  0.80584  0.34956  0.61669  1.0000
  H   H1227     1.0  0.77047  0.37152  0.69040  1.0000
  H   H1228     1.0  0.79007  0.40360  0.67354  1.0000
  H   H1229     1.0  0.84545  0.39669  0.67460  1.0000
  H   H1230     1.0  0.85911  0.35937  0.68588  1.0000
  H   H1231     1.0  0.82963  0.31401  0.67914  1.0000
  H   H1232     1.0  0.79911  0.32766  0.70262  1.0000
  H   H1233     1.0  0.78862  0.30593  0.63477  1.0000
  H   H1234     1.0  0.98352  0.50007  0.79898  1.0000
  H   H1235     1.0  0.82572  0.35899  0.73317  1.0000
  H   H1236     1.0  0.80949  0.39595  0.72248  1.0000
  H   H1237     1.0  0.77183  0.39327  0.62147  1.0000
  H   H1238     1.0  0.82609  0.08438  0.94124  1.0000
  H   H1239     1.0  0.91487  0.10552  0.88850  1.0000
  C   C716      1.0  0.85045  0.10021  0.88419  1.0000
  S   S157      1.0  0.70699  0.07205  0.82712  1.0000
  H   H1240     1.0  0.83505  0.04552  0.84952  1.0000
  C   C717      1.0  0.70403  0.07781  0.86784  1.0000
  H   H1241     1.0  0.79705  0.04762  0.97736  1.0000
  H   H1242     1.0  0.86159  0.42040  0.72531  1.0000
  H   H1243     1.0  0.85080  0.40192  0.76145  1.0000
  H   H1244     1.0  0.87828  0.38332  0.73605  1.0000
  H   H1245     1.0  0.87410  0.35389  0.63706  1.0000
  C   C718      1.0  0.85423  0.34236  0.62535  1.0000
  H   H1246     1.0  0.92521  0.48461  0.66982  1.0000
  H   H1247     1.0  0.00427  0.47626  0.77157  1.0000
  C   C719      1.0  0.87030  0.11616  0.90991  1.0000
  H   H1248     1.0  0.86229  0.07802  0.87881  1.0000
  H   H1249     1.0  0.71813  0.38298  0.66753  1.0000
  H   H1250     1.0  0.80560  0.26246  0.66885  1.0000
  Fe  Fe77      1.0  0.85412  0.50025  0.75326  1.0000
  C   C720      1.0  0.73113  0.39668  0.64980  1.0000
  C   C721      1.0  0.78418  0.03836  0.95689  1.0000
  H   H1251     1.0  0.78673  0.19739  0.86783  1.0000
  C   C722      1.0  0.78160  0.17722  0.88322  1.0000
  Fe  Fe78      1.0  0.79664  0.16856  0.99372  1.0000
  H   H1252     1.0  0.77689  0.27326  0.69771  1.0000
  C   C723      1.0  0.90198  0.12595  0.89732  1.0000
  H   H1253     1.0  0.84300  0.32945  0.57729  1.0000
  H   H1254     1.0  0.00028  0.41975  0.86774  1.0000
  Fe  Fe79      1.0  0.74079  0.12440  0.99721  1.0000
  H   H1255     1.0  0.93889  0.30417  0.98943  1.0000
  H   H1256     1.0  0.80762  0.13228  0.92436  1.0000
  H   H1257     1.0  0.76630  0.03401  0.83398  1.0000
  H   H1258     1.0  0.75986  0.31665  0.66346  1.0000
  C   C724      1.0  0.80524  0.15154  0.87745  1.0000
  C   C725      1.0  0.86110  0.34256  0.59026  1.0000
  H   H1259     1.0  0.78241  0.18508  0.90788  1.0000
  H   H1260     1.0  0.75783  0.16880  0.87796  1.0000
  C   C726      1.0  0.79135  0.03483  0.82808  1.0000
  H   H1261     1.0  0.73609  0.42023  0.65906  1.0000
  H   H1262     1.0  0.77563  0.11987  0.90268  1.0000
  H   H1263     1.0  0.79596  0.27903  0.95458  1.0000
  H   H1264     1.0  0.71632  0.39915  0.62869  1.0000
  N   N41       1.0  0.81701  0.09430  0.89248  1.0000
  H   H1265     1.0  0.89938  0.14328  0.87820  1.0000
  C   C727      1.0  0.81021  0.04659  0.85594  1.0000
  C   C728      1.0  0.69161  0.05515  0.88772  1.0000
  H   H1266     1.0  0.80493  0.09454  0.84326  1.0000
  H   H1267     1.0  0.70332  0.14635  0.78612  1.0000
  H   H1268     1.0  0.76933  0.05219  0.91119  1.0000
  H   H1269     1.0  0.97013  0.46132  0.79110  1.0000
  Fe  Fe80      1.0  0.00037  0.29442  0.86803  1.0000
  H   H1270     1.0  0.87428  0.09996  0.92975  1.0000
  H   H1271     1.0  0.91884  0.22647  0.01458  1.0000
  H   H1272     1.0  0.79471  0.05013  0.80737  1.0000
  H   H1273     1.0  0.83022  0.05196  0.91654  1.0000
  H   H1274     1.0  0.91575  0.13683  0.91637  1.0000
  H   H1275     1.0  0.68299  0.11064  0.77801  1.0000
  H   H1276     1.0  0.76025  0.03254  0.96453  1.0000
  C   C729      1.0  0.99115  0.47602  0.79388  1.0000
  H   H1277     1.0  0.79551  0.01683  0.94860  1.0000
  H   H1278     1.0  0.80826  0.50818  0.56262  1.0000
  H   H1279     1.0  0.00010  0.41589  0.81124  1.0000
  H   H1280     1.0  0.81524  0.25470  0.98277  1.0000
  H   H1281     1.0  0.81824  0.29629  0.98610  1.0000
  H   H1282     1.0  0.99133  0.40646  0.92460  1.0000
  H   H1283     1.0  0.99741  0.46587  0.84241  1.0000
  H   H1284     1.0  0.95306  0.50762  0.64795  1.0000
  H   H1285     1.0  0.68302  0.04176  0.93565  1.0000
  H   H1286     1.0  0.68237  0.03385  0.87805  1.0000
  H   H1287     1.0  0.93280  0.34347  0.00215  1.0000
  H   H1288     1.0  0.88345  0.51054  0.63989  1.0000
  H   H1289     1.0  0.95342  0.50801  0.69009  1.0000
  C   C730      1.0  0.01130  0.46396  0.82070  1.0000
  Fe  Fe81      1.0  0.77694  0.90628  0.49036  1.0000
  S   S158      1.0  0.78164  0.85518  0.48227  1.0000
  S   S159      1.0  0.79748  0.94600  0.46176  1.0000
  Fe  Fe82      1.0  0.73058  0.85183  0.49261  1.0000
  S   S160      1.0  0.70319  0.81907  0.46106  1.0000
  H   H1290     1.0  0.90150  0.90911  0.37730  1.0000
  Fe  Fe83      1.0  0.77812  0.67144  0.05922  1.0000
  S   S161      1.0  0.77622  0.61935  0.05895  1.0000
  S   S162      1.0  0.80621  0.69571  0.09707  1.0000
  Fe  Fe84      1.0  0.72490  0.62481  0.05387  1.0000
  S   S163      1.0  0.84896  0.98211  0.23923  1.0000
  S   S164      1.0  0.72614  0.67685  0.05774  1.0000
  H   H1291     1.0  0.00572  0.91272  0.17941  1.0000
  S   S165      1.0  0.91076  0.97839  0.28455  1.0000
  S   S166      1.0  0.83611  0.93987  0.31860  1.0000
  Fe  Fe85      1.0  0.90064  0.98470  0.23348  1.0000
  S   S167      1.0  0.92431  0.95963  0.19335  1.0000
  H   H1292     1.0  0.83144  0.99168  0.36223  1.0000
  Fe  Fe86      1.0  0.98133  0.74217  0.11651  1.0000
  S   S168      1.0  0.98092  0.73730  0.16887  1.0000
  S   S169      1.0  0.95092  0.71756  0.08099  1.0000
  Fe  Fe87      1.0  0.98864  0.78920  0.16889  1.0000
  S   S170      1.0  0.96342  0.81792  0.20525  1.0000
  S   S171      1.0  0.98534  0.79416  0.11683  1.0000
  C   C731      1.0  0.93436  0.92004  0.19677  1.0000
  C   C732      1.0  0.94336  0.90359  0.16997  1.0000
  C   C733      1.0  0.95220  0.87221  0.17214  1.0000
  C   C734      1.0  0.95246  0.85721  0.20117  1.0000
  C   C735      1.0  0.94304  0.87354  0.22783  1.0000
  C   C736      1.0  0.93400  0.90481  0.22567  1.0000
  H   H1293     1.0  0.94337  0.91515  0.14747  1.0000
  H   H1294     1.0  0.95836  0.85950  0.15135  1.0000
  H   H1295     1.0  0.94286  0.86200  0.25034  1.0000
  H   H1296     1.0  0.92697  0.91718  0.24643  1.0000
  H   H1297     1.0  0.68690  0.64274  0.28032  1.0000
  H   H1298     1.0  0.73760  0.91260  0.41892  1.0000
  H   H1299     1.0  0.71306  0.84952  0.36320  1.0000
  H   H1300     1.0  0.82995  0.55456  0.13530  1.0000
  C   C737      1.0  0.75934  0.82183  0.39334  1.0000
  C   C738      1.0  0.71277  0.60051  0.13812  1.0000
  H   H1301     1.0  0.97486  0.63740  0.13283  1.0000
  H   H1302     1.0  0.82644  0.89183  0.21874  1.0000
  H   H1303     1.0  0.86211  0.91342  0.21533  1.0000
  H   H1304     1.0  0.88335  0.00131  0.40209  1.0000
  C   C739      1.0  0.84626  0.70246  0.09209  1.0000
  C   C740      1.0  0.86043  0.69933  0.06294  1.0000
  C   C741      1.0  0.89245  0.70458  0.05981  1.0000
  C   C742      1.0  0.91055  0.71298  0.08575  1.0000
  C   C743      1.0  0.89640  0.71611  0.11493  1.0000
  C   C744      1.0  0.86433  0.71090  0.11806  1.0000
  H   H1305     1.0  0.84673  0.69287  0.04278  1.0000
  H   H1306     1.0  0.91806  0.82344  0.50815  1.0000
  H   H1307     1.0  0.91035  0.72190  0.13511  1.0000
  H   H1308     1.0  0.85352  0.71284  0.14075  1.0000
  C   C745      1.0  0.80873  0.94382  0.42216  1.0000
  C   C746      1.0  0.81022  0.91548  0.40652  1.0000
  C   C747      1.0  0.81900  0.91466  0.37486  1.0000
  C   C748      1.0  0.82656  0.94211  0.35867  1.0000
  C   C749      1.0  0.82564  0.97043  0.37448  1.0000
  C   C750      1.0  0.81675  0.97124  0.40613  1.0000
  H   H1309     1.0  0.80483  0.89425  0.41892  1.0000
  H   H1310     1.0  0.82002  0.89267  0.36279  1.0000
  H   H1311     1.0  0.89569  0.88507  0.51713  1.0000
  H   H1312     1.0  0.72104  0.96157  0.39675  1.0000
  N   N42       1.0  0.89655  0.87154  0.46859  1.0000
  C   C751      1.0  0.92814  0.85680  0.46966  1.0000
  C   C752      1.0  0.89144  0.88535  0.43652  1.0000
  H   H1313     1.0  0.75329  0.91892  0.36770  1.0000
  C   C753      1.0  0.87124  0.84794  0.47461  1.0000
  C   C754      1.0  0.87332  0.81723  0.45586  1.0000
  C   C755      1.0  0.71804  0.86301  0.38485  1.0000
  H   H1314     1.0  0.78323  0.81784  0.40209  1.0000
  C   C756      1.0  0.91380  0.91202  0.42688  1.0000
  C   C757      1.0  0.90369  0.92683  0.39601  1.0000
  H   H1315     1.0  0.84824  0.85813  0.46919  1.0000
  C   C758      1.0  0.86599  0.91704  0.49296  1.0000
  H   H1316     1.0  0.76885  0.86845  0.37934  1.0000
  H   H1317     1.0  0.94650  0.87469  0.46630  1.0000
  H   H1318     1.0  0.93110  0.84045  0.44980  1.0000
  H   H1319     1.0  0.89377  0.86723  0.41826  1.0000
  H   H1320     1.0  0.86723  0.89384  0.43407  1.0000
  H   H1321     1.0  0.84868  0.54014  0.10078  1.0000
  H   H1322     1.0  0.73996  0.89195  0.33951  1.0000
  H   H1323     1.0  0.84830  0.77379  0.45007  1.0000
  H   H1324     1.0  0.98596  0.83733  0.49129  1.0000
  H   H1325     1.0  0.96402  0.80316  0.47987  1.0000
  H   H1326     1.0  0.87358  0.82178  0.43034  1.0000
  N   N43       1.0  0.70972  0.89672  0.37993  1.0000
  H   H1327     1.0  0.92104  0.94441  0.38847  1.0000
  H   H1328     1.0  0.75903  0.93438  0.30227  1.0000
  Fe  Fe88      1.0  0.85907  0.97892  0.29091  1.0000
  H   H1329     1.0  0.91458  0.93073  0.44458  1.0000
  H   H1330     1.0  0.93759  0.90300  0.42357  1.0000
  H   H1331     1.0  0.88111  0.93864  0.39897  1.0000
  C   C759      1.0  0.89506  0.89607  0.49361  1.0000
  H   H1332     1.0  0.90327  0.70195  0.03719  1.0000
  H   H1333     1.0  0.94485  0.64159  0.16153  1.0000
  C   C760      1.0  0.71311  0.91330  0.41079  1.0000
  H   H1334     1.0  0.91780  0.79962  0.07315  1.0000
  H   H1335     1.0  0.89449  0.80413  0.46215  1.0000
  H   H1336     1.0  0.89649  0.83533  0.07695  1.0000
  C   C761      1.0  0.96647  0.82167  0.49772  1.0000
  C   C762      1.0  0.69068  0.58638  0.11891  1.0000
  H   H1337     1.0  0.92311  0.00522  0.38991  1.0000
  H   H1338     1.0  0.76283  0.96333  0.33252  1.0000
  N   N44       1.0  0.87346  0.60089  0.11035  1.0000
  C   C763      1.0  0.88003  0.59363  0.07650  1.0000
  C   C764      1.0  0.87791  0.57150  0.12922  1.0000
  C   C765      1.0  0.84075  0.61264  0.11302  1.0000
  C   C766      1.0  0.89516  0.62550  0.12267  1.0000
  C   C767      1.0  0.93021  0.61917  0.11816  1.0000
  C   C768      1.0  0.87933  0.62153  0.05349  1.0000
  C   C769      1.0  0.82977  0.62035  0.14665  1.0000
  C   C770      1.0  0.85229  0.54633  0.12566  1.0000
  H   H1339     1.0  0.74308  0.80829  0.40818  1.0000
  C   C771      1.0  0.93640  0.83994  0.50070  1.0000
  H   H1340     1.0  0.69224  0.71034  0.49827  1.0000
  C   C772      1.0  0.79454  0.62277  0.14825  1.0000
  H   H1341     1.0  0.86281  0.57662  0.06740  1.0000
  H   H1342     1.0  0.90291  0.58208  0.07411  1.0000
  H   H1343     1.0  0.90014  0.56022  0.12282  1.0000
  H   H1344     1.0  0.88032  0.57672  0.15459  1.0000
  H   H1345     1.0  0.82425  0.59603  0.10203  1.0000
  H   H1346     1.0  0.83788  0.63450  0.09947  1.0000
  H   H1347     1.0  0.88988  0.64851  0.11209  1.0000
  H   H1348     1.0  0.89135  0.62878  0.14818  1.0000
  H   H1349     1.0  0.93657  0.62084  0.09306  1.0000
  H   H1350     1.0  0.93663  0.59581  0.12683  1.0000
  H   H1351     1.0  0.85563  0.63123  0.05170  1.0000
  H   H1352     1.0  0.89549  0.64011  0.06088  1.0000
  H   H1353     1.0  0.83972  0.64303  0.15399  1.0000
  H   H1354     1.0  0.83691  0.60259  0.16395  1.0000
  S   S172      1.0  0.72548  0.90332  0.49675  1.0000
  H   H1355     1.0  0.86392  0.52159  0.16869  1.0000
  H   H1356     1.0  0.00236  0.66428  0.09078  1.0000
  H   H1357     1.0  0.75780  0.81332  0.36891  1.0000
  C   C773      1.0  0.71316  0.59420  0.17046  1.0000
  H   H1358     1.0  0.81182  0.76710  0.09886  1.0000
  H   H1359     1.0  0.86997  0.84176  0.49985  1.0000
  H   H1360     1.0  0.75581  0.86424  0.41908  1.0000
  H   H1361     1.0  0.94555  0.66659  0.12747  1.0000
  S   S173      1.0  0.68901  0.59433  0.07829  1.0000
  H   H1362     1.0  0.78368  0.60000  0.14277  1.0000
  H   H1363     1.0  0.78740  0.62965  0.17215  1.0000
  H   H1364     1.0  0.78591  0.64046  0.13148  1.0000
  H   H1365     1.0  0.91594  0.91129  0.49297  1.0000
  H   H1366     1.0  0.73019  0.60543  0.18519  1.0000
  H   H1367     1.0  0.70776  0.95505  0.34756  1.0000
  H   H1368     1.0  0.86536  0.93134  0.47135  1.0000
  H   H1369     1.0  0.00196  0.91672  0.11299  1.0000
  C   C774      1.0  0.74630  0.95187  0.31624  1.0000
  S   S174      1.0  0.69202  0.56772  0.22482  1.0000
  H   H1370     1.0  0.78379  0.76317  0.13002  1.0000
  C   C775      1.0  0.99964  0.87635  0.08451  1.0000
  C   C776      1.0  0.73190  0.91025  0.35595  1.0000
  H   H1371     1.0  0.99652  0.95028  0.22225  1.0000
  C   C777      1.0  0.75200  0.85647  0.39470  1.0000
  C   C778      1.0  0.84570  0.79602  0.46284  1.0000
  H   H1372     1.0  0.84432  0.79078  0.48827  1.0000
  H   H1373     1.0  0.70356  0.85244  0.40351  1.0000
  H   H1374     1.0  0.83840  0.90765  0.18123  1.0000
  H   H1375     1.0  0.72929  0.61659  0.12805  1.0000
  C   C779      1.0  0.94995  0.64269  0.13610  1.0000
  C   C780      1.0  0.71976  0.93663  0.33441  1.0000
  H   H1376     1.0  0.77720  0.79019  0.09840  1.0000
  N   N45       1.0  0.85996  0.81429  0.16705  1.0000
  C   C781      1.0  0.83559  0.79186  0.15554  1.0000
  C   C782      1.0  0.87764  0.79935  0.19362  1.0000
  C   C783      1.0  0.84342  0.84218  0.18036  1.0000
  C   C784      1.0  0.88155  0.82527  0.14140  1.0000
  C   C785      1.0  0.88927  0.80207  0.11480  1.0000
  C   C786      1.0  0.81184  0.80550  0.13197  1.0000
  C   C787      1.0  0.86432  0.86688  0.19645  1.0000
  C   C788      1.0  0.89544  0.76915  0.18627  1.0000
  C   C789      1.0  0.90667  0.75338  0.21629  1.0000
  C   C790      1.0  0.90974  0.81742  0.08999  1.0000
  C   C791      1.0  0.79518  0.77988  0.11380  1.0000
  C   C792      1.0  0.84655  0.89667  0.20328  1.0000
  H   H1377     1.0  0.82211  0.78224  0.17560  1.0000
  H   H1378     1.0  0.84625  0.77129  0.14453  1.0000
  H   H1379     1.0  0.89554  0.81548  0.20291  1.0000
  H   H1380     1.0  0.86160  0.79447  0.21347  1.0000
  H   H1381     1.0  0.82565  0.83468  0.19776  1.0000
  H   H1382     1.0  0.83056  0.85465  0.16161  1.0000
  H   H1383     1.0  0.87204  0.84630  0.12961  1.0000
  H   H1384     1.0  0.90400  0.83293  0.15166  1.0000
  H   H1385     1.0  0.86820  0.79384  0.10248  1.0000
  H   H1386     1.0  0.90160  0.78152  0.12385  1.0000
  H   H1387     1.0  0.79402  0.81897  0.14475  1.0000
  H   H1388     1.0  0.82316  0.82131  0.11488  1.0000
  H   H1389     1.0  0.88429  0.87313  0.18145  1.0000
  H   H1390     1.0  0.87316  0.85806  0.21919  1.0000
  H   H1391     1.0  0.88100  0.75195  0.17386  1.0000
  H   H1392     1.0  0.91625  0.77467  0.17211  1.0000
  H   H1393     1.0  0.92168  0.76931  0.23001  1.0000
  H   H1394     1.0  0.88671  0.74601  0.23093  1.0000
  H   H1395     1.0  0.92037  0.73247  0.21032  1.0000
  H   H1396     1.0  0.82377  0.80705  0.45514  1.0000
  H   H1397     1.0  0.93027  0.82859  0.10085  1.0000
  H   H1398     1.0  0.81583  0.99323  0.41822  1.0000
  C   C793      1.0  0.69148  0.57371  0.18388  1.0000
  H   H1399     1.0  0.00637  0.98017  0.19418  1.0000
  H   H1400     1.0  0.99044  0.88960  0.06424  1.0000
  H   H1401     1.0  0.00221  0.66519  0.04884  1.0000
  H   H1402     1.0  0.84449  0.90294  0.49415  1.0000
  H   H1403     1.0  0.70313  0.92693  0.31712  1.0000
  H   H1404     1.0  0.73700  0.96978  0.30006  1.0000
  C   C794      1.0  0.86082  0.51670  0.14338  1.0000
  C   C795      1.0  0.68370  0.72000  0.47576  1.0000
  H   H1405     1.0  0.70370  0.72255  0.45963  1.0000
  H   H1406     1.0  0.97982  0.86586  0.09730  1.0000
  C   C796      1.0  0.70487  0.96156  0.44376  1.0000
  H   H1407     1.0  0.00665  0.62854  0.06894  1.0000
  C   C797      1.0  0.70412  0.94805  0.41082  1.0000
  H   H1408     1.0  0.91333  0.60374  0.02047  1.0000
  C   C798      1.0  0.88890  0.61168  0.02063  1.0000
  C   C799      1.0  0.01261  0.65363  0.06959  1.0000
  H   H1409     1.0  0.01108  0.86931  0.14636  1.0000
  H   H1410     1.0  0.69875  0.98656  0.44288  1.0000
  H   H1411     1.0  0.69990  0.90100  0.42945  1.0000
  H   H1412     1.0  0.92546  0.01360  0.12977  1.0000
  H   H1413     1.0  0.72843  0.95954  0.45401  1.0000
  H   H1414     1.0  0.68787  0.94947  0.45907  1.0000
  H   H1415     1.0  0.68174  0.65755  0.12126  1.0000
  Fe  Fe89      1.0  0.73617  0.89689  0.54795  1.0000
  S   S175      1.0  0.73752  0.84473  0.54423  1.0000
  S   S176      1.0  0.70441  0.92553  0.57881  1.0000
  Fe  Fe90      1.0  0.78848  0.85142  0.53423  1.0000
  S   S177      1.0  0.82165  0.81430  0.55197  1.0000
  H   H1416     1.0  0.68645  0.86441  0.60638  1.0000
  Fe  Fe91      1.0  0.98874  0.78733  0.62101  1.0000
  S   S178      1.0  0.98610  0.78824  0.67351  1.0000
  S   S179      1.0  0.96260  0.82497  0.59414  1.0000
  Fe  Fe92      1.0  0.98497  0.73591  0.67087  1.0000
  S   S180      1.0  0.94780  0.71036  0.69931  1.0000
  S   S181      1.0  0.98418  0.73541  0.61823  1.0000
  H   H1417     1.0  0.86560  0.60863  0.64220  1.0000
  S   S182      1.0  0.72674  0.62489  0.00112  1.0000
  S   S183      1.0  0.70862  0.70978  0.97090  1.0000
  Fe  Fe93      1.0  0.77848  0.62373  0.00647  1.0000
  S   S184      1.0  0.81129  0.59042  0.98218  1.0000
  C   C800      1.0  0.68303  0.90557  0.86542  1.0000
  H   H1418     1.0  0.01033  0.91293  0.80619  1.0000
  H   H1419     1.0  0.78737  0.53783  0.68702  1.0000
  S   S185      1.0  0.82903  0.58110  0.83455  1.0000
  Fe  Fe94      1.0  0.91132  0.54111  0.76130  1.0000
  S   S186      1.0  0.95009  0.56659  0.73564  1.0000
  S   S187      1.0  0.86091  0.55191  0.75639  1.0000
  C   C801      1.0  0.82378  0.58266  0.87561  1.0000
  C   C802      1.0  0.83860  0.56197  0.89589  1.0000
  C   C803      1.0  0.83436  0.56454  0.92846  1.0000
  C   C804      1.0  0.81529  0.58773  0.94103  1.0000
  C   C805      1.0  0.80049  0.60844  0.92072  1.0000
  C   C806      1.0  0.80483  0.60595  0.88817  1.0000
  C   C807      1.0  0.93510  0.62930  0.83547  1.0000
  H   H1420     1.0  0.84591  0.54844  0.94400  1.0000
  H   H1421     1.0  0.78585  0.62645  0.93011  1.0000
  H   H1422     1.0  0.79335  0.62211  0.87265  1.0000
  C   C808      1.0  0.94859  0.66998  0.70765  1.0000
  C   C809      1.0  0.97568  0.65254  0.70486  1.0000
  C   C810      1.0  0.97567  0.62082  0.71313  1.0000
  C   C811      1.0  0.94861  0.60616  0.72407  1.0000
  C   C812      1.0  0.92130  0.62335  0.72596  1.0000
  C   C813      1.0  0.92138  0.65517  0.71810  1.0000
  H   H1423     1.0  0.86512  0.92617  0.54311  1.0000
  H   H1424     1.0  0.99689  0.60767  0.71136  1.0000
  H   H1425     1.0  0.90023  0.61215  0.73377  1.0000
  H   H1426     1.0  0.90029  0.66843  0.72007  1.0000
  C   C814      1.0  0.70961  0.93524  0.61865  1.0000
  H   H1427     1.0  0.81746  0.86659  0.60576  1.0000
  C   C815      1.0  0.71227  0.94822  0.68342  1.0000
  C   C816      1.0  0.73194  0.92596  0.67004  1.0000
  C   C817      1.0  0.73069  0.91954  0.63777  1.0000
  H   H1428     1.0  0.74780  0.91323  0.68483  1.0000
  H   H1429     1.0  0.74542  0.90196  0.62781  1.0000
  C   C818      1.0  0.86119  0.81803  0.56205  1.0000
  C   C819      1.0  0.87871  0.79099  0.56662  1.0000
  C   C820      1.0  0.90981  0.79273  0.57640  1.0000
  C   C821      1.0  0.92372  0.82161  0.58147  1.0000
  C   C822      1.0  0.90641  0.84871  0.57615  1.0000
  C   C823      1.0  0.87523  0.84696  0.56654  1.0000
  H   H1430     1.0  0.86802  0.76851  0.56303  1.0000
  H   H1431     1.0  0.92301  0.77173  0.58005  1.0000
  H   H1432     1.0  0.91709  0.87116  0.57993  1.0000
  H   H1433     1.0  0.86189  0.86790  0.56322  1.0000
  N   N46       1.0  0.90527  0.64763  0.83314  1.0000
  C   C824      1.0  0.88613  0.63664  0.80572  1.0000
  H   H1434     1.0  0.82245  0.59719  0.66762  1.0000
  C   C825      1.0  0.88673  0.64119  0.86244  1.0000
  H   H1435     1.0  0.94029  0.73729  0.77845  1.0000
  S   S188      1.0  0.90934  0.53860  0.81380  1.0000
  C   C826      1.0  0.85474  0.65330  0.80031  1.0000
  C   C827      1.0  0.90292  0.64916  0.89388  1.0000
  H   H1436     1.0  0.90922  0.53463  0.61906  1.0000
  C   C828      1.0  0.92783  0.69400  0.80128  1.0000
  H   H1437     1.0  0.91565  0.68630  0.77986  1.0000
  C   C829      1.0  0.83888  0.64160  0.77059  1.0000
  C   C830      1.0  0.88352  0.63808  0.92167  1.0000
  H   H1438     1.0  0.88144  0.61129  0.80802  1.0000
  H   H1439     1.0  0.89907  0.63904  0.78362  1.0000
  S   S189      1.0  0.71231  0.95292  0.72458  1.0000
  H   H1440     1.0  0.73508  0.82300  0.94726  1.0000
  H   H1441     1.0  0.87995  0.61620  0.86331  1.0000
  H   H1442     1.0  0.86471  0.65442  0.86244  1.0000
  H   H1443     1.0  0.89019  0.69539  0.83508  1.0000
  H   H1444     1.0  0.90592  0.67465  0.89620  1.0000
  H   H1445     1.0  0.94239  0.63841  0.61422  1.0000
  H   H1446     1.0  0.89250  0.59271  0.66882  1.0000
  H   H1447     1.0  0.83849  0.64889  0.81988  1.0000
  H   H1448     1.0  0.85808  0.67870  0.79763  1.0000
  C   C831      1.0  0.95014  0.61840  0.80448  1.0000
  H   H1449     1.0  0.80413  0.56977  0.64173  1.0000
  C   C832      1.0  0.82046  0.53037  0.56777  1.0000
  H   H1450     1.0  0.92595  0.63805  0.89586  1.0000
  C   C833      1.0  0.92467  0.63109  0.63158  1.0000
  C   C834      1.0  0.80593  0.86283  0.62867  1.0000
  H   H1451     1.0  0.93542  0.60024  0.79359  1.0000
  H   H1452     1.0  0.83963  0.52757  0.66478  1.0000
  H   H1453     1.0  0.95288  0.64260  0.84879  1.0000
  H   H1454     1.0  0.83747  0.53482  0.54880  1.0000
  H   H1455     1.0  0.81633  0.65352  0.76753  1.0000
  H   H1456     1.0  0.85343  0.64640  0.74974  1.0000
  H   H1457     1.0  0.83435  0.61625  0.77232  1.0000
  H   H1458     1.0  0.95218  0.68601  0.80058  1.0000
  H   H1459     1.0  0.85998  0.64838  0.92093  1.0000
  H   H1460     1.0  0.94185  0.73874  0.82059  1.0000
  Fe  Fe95      1.0  0.85807  0.54544  0.80863  1.0000
  N   N47       1.0  0.87611  0.82248  0.67078  1.0000
  C   C835      1.0  0.87232  0.79153  0.65445  1.0000
  H   H1461     1.0  0.85742  0.55609  0.68800  1.0000
  H   H1462     1.0  0.88356  0.78661  0.77564  1.0000
  C   C836      1.0  0.89996  0.76857  0.65570  1.0000
  C   C837      1.0  0.89090  0.73699  0.64220  1.0000
  C   C838      1.0  0.72656  0.80101  0.93676  1.0000
  H   H1463     1.0  0.91722  0.83373  0.64453  1.0000
  H   H1464     1.0  0.85128  0.77919  0.66314  1.0000
  H   H1465     1.0  0.86825  0.79521  0.62904  1.0000
  C   C839      1.0  0.79464  0.56240  0.69015  1.0000
  H   H1466     1.0  0.90978  0.86649  0.70833  1.0000
  H   H1467     1.0  0.69415  0.78461  0.90308  1.0000
  H   H1468     1.0  0.91952  0.77769  0.64149  1.0000
  H   H1469     1.0  0.90866  0.76486  0.67972  1.0000
  H   H1470     1.0  0.87328  0.72551  0.65723  1.0000
  H   H1471     1.0  0.88162  0.73959  0.61810  1.0000
  H   H1472     1.0  0.91161  0.72184  0.64117  1.0000
  C   C840      1.0  0.82238  0.83741  0.64731  1.0000
  H   H1473     1.0  0.95292  0.63747  0.78735  1.0000
  C   C841      1.0  0.86440  0.82068  0.70392  1.0000
  H   H1474     1.0  0.87883  0.77452  0.71973  1.0000
  C   C842      1.0  0.91188  0.68201  0.83146  1.0000
  H   H1475     1.0  0.84554  0.79638  0.76133  1.0000
  C   C843      1.0  0.87054  0.80248  0.75997  1.0000
  H   H1476     1.0  0.82026  0.81570  0.63357  1.0000
  H   H1477     1.0  0.92875  0.58288  0.62077  1.0000
  H   H1478     1.0  0.85640  0.86863  0.66635  1.0000
  H   H1479     1.0  0.80962  0.83427  0.66957  1.0000
  H   H1480     1.0  0.77363  0.57715  0.68955  1.0000
  H   H1481     1.0  0.95646  0.89579  0.69123  1.0000
  S   S190      1.0  0.78407  0.67562  0.00721  1.0000
  H   H1482     1.0  0.84006  0.81220  0.70427  1.0000
  C   C844      1.0  0.81684  0.57230  0.66411  1.0000
  H   H1483     1.0  0.69069  0.67726  0.91165  1.0000
  H   H1484     1.0  0.89484  0.64511  0.94389  1.0000
  C   C845      1.0  0.91689  0.86537  0.68347  1.0000
  H   H1485     1.0  0.98011  0.58381  0.82610  1.0000
  H   H1486     1.0  0.80575  0.88499  0.64187  1.0000
  H   H1487     1.0  0.90509  0.88407  0.67019  1.0000
  C   C846      1.0  0.95167  0.87218  0.68202  1.0000
  H   H1488     1.0  0.86345  0.84425  0.71442  1.0000
  C   C847      1.0  0.92869  0.72945  0.80032  1.0000
  H   H1489     1.0  0.93022  0.55586  0.66976  1.0000
  C   C848      1.0  0.85683  0.84625  0.65346  1.0000
  H   H1490     1.0  0.86752  0.85153  0.63038  1.0000
  H   H1491     1.0  0.96476  0.85517  0.69640  1.0000
  C   C849      1.0  0.91598  0.53438  0.66936  1.0000
  C   C850      1.0  0.90945  0.83311  0.66930  1.0000
  H   H1492     1.0  0.92503  0.81635  0.68097  1.0000
  C   C851      1.0  0.98199  0.60416  0.81017  1.0000
  H   H1493     1.0  0.87401  0.82662  0.76837  1.0000
  H   H1494     1.0  0.96010  0.87112  0.65749  1.0000
  C   C852      1.0  0.88238  0.79912  0.72649  1.0000
  H   H1495     1.0  0.90749  0.80448  0.72685  1.0000
  H   H1496     1.0  0.78160  0.85569  0.62408  1.0000
  H   H1497     1.0  0.92731  0.68913  0.85103  1.0000
  H   H1498     1.0  0.80576  0.56494  0.71343  1.0000
  H   H1499     1.0  0.90698  0.64965  0.63331  1.0000
  H   H1500     1.0  0.68716  0.88468  0.91083  1.0000
  N   N48       1.0  0.86993  0.55874  0.63913  1.0000
  H   H1501     1.0  0.74631  0.78926  0.92524  1.0000
  H   H1502     1.0  0.71776  0.78543  0.95559  1.0000
  C   C853      1.0  0.89443  0.53389  0.64034  1.0000
  H   H1503     1.0  0.85330  0.54400  0.88653  1.0000
  H   H1504     1.0  0.93128  0.60743  0.84906  1.0000
  H   H1505     1.0  0.90483  0.73891  0.80052  1.0000
  H   H1506     1.0  0.93633  0.62833  0.65454  1.0000
  H   H1507     1.0  0.69006  0.92902  0.87359  1.0000
  H   H1508     1.0  0.88137  0.61239  0.92157  1.0000
  C   C854      1.0  0.91000  0.60033  0.62161  1.0000
  H   H1509     1.0  0.90068  0.60354  0.59763  1.0000
  H   H1510     1.0  0.99808  0.62159  0.82033  1.0000
  H   H1511     1.0  0.70851  0.63947  0.90939  1.0000
  C   C855      1.0  0.85489  0.55797  0.60728  1.0000
  H   H1512     1.0  0.83921  0.57818  0.60407  1.0000
  H   H1513     1.0  0.81891  0.52225  0.61707  1.0000
  H   H1514     1.0  0.68146  0.84367  0.94166  1.0000
  S   S191      1.0  0.78765  0.90313  0.54196  1.0000
  H   H1515     1.0  0.87269  0.56063  0.58868  1.0000
  C   C856      1.0  0.88373  0.59053  0.64440  1.0000
  H   H1516     1.0  0.99676  0.66360  0.69678  1.0000
  C   C857      1.0  0.84669  0.55237  0.66471  1.0000
  Fe  Fe96      1.0  0.73173  0.67674  0.00546  1.0000
  H   H1517     1.0  0.71135  0.82210  0.89397  1.0000
  H   H1518     1.0  0.90248  0.53300  0.69134  1.0000
  C   C858      1.0  0.83682  0.52774  0.59934  1.0000
  C   C859      1.0  0.70115  0.80746  0.91270  1.0000
  H   H1519     1.0  0.80309  0.54929  0.56815  1.0000
  H   H1520     1.0  0.99175  0.59615  0.78758  1.0000
  S   S192      1.0  0.68601  0.98351  0.80460  1.0000
  H   H1521     1.0  0.88670  0.63174  0.00439  1.0000
  H   H1522     1.0  0.70969  0.89260  0.75791  1.0000
  C   C860      1.0  0.86578  0.93928  0.52070  1.0000
  C   C861      1.0  0.69039  0.95789  0.63192  1.0000
  H   H1523     1.0  0.87367  0.59271  0.01198  1.0000
  C   C862      1.0  0.69190  0.96459  0.66409  1.0000
  H   H1524     1.0  0.70374  0.89366  0.85600  1.0000
  C   C863      1.0  0.68933  0.65415  0.90040  1.0000
  H   H1525     1.0  0.88654  0.95457  0.52026  1.0000
  H   H1526     1.0  0.69799  0.85257  0.76375  1.0000
  H   H1527     1.0  0.69246  0.65731  0.87482  1.0000
  H   H1528     1.0  0.97202  0.81054  0.52054  1.0000
  H   H1529     1.0  0.93986  0.85718  0.51963  1.0000
  H   H1530     1.0  0.68846  0.84680  0.66152  1.0000
  C   C864      1.0  0.69071  0.87713  0.76613  1.0000
  H   H1531     1.0  0.79881  0.01101  0.82187  1.0000
  H   H1532     1.0  0.68653  0.88200  0.79126  1.0000
  H   H1533     1.0  0.68619  0.89094  0.70476  1.0000
  H   H1534     1.0  0.68163  0.52993  0.95294  1.0000
  H   H1535     1.0  0.68259  0.82293  0.60981  1.0000
  H   H1536     1.0  0.84481  0.95410  0.51941  1.0000
