data_image0
_chemical_formula_structural       FeS2FeCSFeSFeHS2FeS2FeNFeCFeHS2CH4SHCSH2C6H4C2HCH2C3HCH3CHCH2CHNH2C4H2SH4CH11CH2CHC3H6CH4CH2C3H4CHCH3CH2C2HSH2C3HCHCH2CHCH5CHCH3NHC3H5S2C2H7CH3CHSH3C2SH3FeHCH3C5H4CFeCHCH3CH4CH3NCH5CH3C3H3CH2NC4HC3H2C2H8CH2CH3SH3CH5C3H2CSH2CHCNHC2H3CSCHCSC2H2C3H2FeSHC3H2CHCFeS2FeCHFeHFeHS2FeS2FeHFeCFeS3CSCSH3CH3C6H6CH2C5HC5HCHC2HCNC5SC4HCH4CH15SH2NC11SH27C2H2CH4CH2SH3CH5CH4S2CSCHC2H5CH4NHC3H2CH3SH2C4HCHCH4FeH2C2H4C2H2C2H9NHCHCH2C2H3NC7H2CHCH15C4SHFeH3CHC2HC2HC4H3SH2CH3FeHCH2SHC2H3CS2FeHCHSHFeNSH5SHCHCH3C2HSH2C3SHCH2CH4CH5CH7C4HC3H2CHSH2C3H5C2H5SFeS2HFeHCSCFeS2HCHSH2CH2CHC3SCFeHCHCH3CH16C2NHCHCH2CHFeH2C2H2CHCHCH4C2HNHCHCH5C2SH4C2H2CFeCHCH5CHCH2SHFeHCH3FeSHCH3CHCHCH5CH3SCH2CH2C2H2CFeHNC3H5CSH6CHC2SC2HC3H3NHC2HCH6C2H2SH2CH2CH3SH4C2H5SCFeHCSHFeSCHCHSCHC2HNHNHCFe2H3C2HCH3C2FeCHCH2C2H2CHC3H3SCHSHCHCSH5C2HCH6CSCHCH4SH4CH3CH6CSHCH2CHCH2CH3FeHSFeHSCH2FeHSH2C4SHCHCH2CHCHC2H2C2H2CHCH3CH3CH2C2HC2H5FeCH2CHSCH2CH3CH2CHCSC2HCHCH2CH2FeHCH9SH4CH2C2HC2NSNHCHC2HCHCH4CH3CH5C2SH2C4HCH3SH2CNH2CH3CH3CHCFeSFeS2FeSFeHS2FeSHFeSHFeHFeSHSH4C2SH3CH4C6H4CH3CHNH3C2H4C4H3CHC3HC3SCH3C3H10CHCSHCHC2HCHC4H5CH2CHCH8SH5CH3CH3C2NCH4C4HC2H2FeCHFeHSHFeHFeNSC3HSC2NH2CH3CHCH2CHCHC2H4C2HCH4C2H2NC2H3CH7C2H5CSH2CH5CH4SC2HCH4NC8H2C2H14CHFeCH3C2H2CH3CHCH2CH2C2HSCHCHC2H2CHCSCHCH4SHCHSHNHCHCH3FeSFeS2FeHFeHS2FeS2FeS2FeHFeSCSHSH2CHSHCH2CH2C7H4CH2C2H2CH2CH3C4H2C3H9CH2CH5CH2NH5CH2C2H4CH3CH2CH2C3H5C4H5C4NC2H3CH6CHCHC3HCH4CH7CHCH3CHSHC2HSHNH2C3H3CH6NHCHS
_chemical_formula_sum              "Fe64 S128 C576 H1024 N32"
_cell_length_a       43.1568
_cell_length_b       43.3655
_cell_length_c       36.8525
_cell_angle_alpha    89.9268
_cell_angle_beta     90.0635
_cell_angle_gamma    111.088

_space_group_name_H-M_alt    "P 1"
_space_group_IT_number       1

loop_
  _space_group_symop_operation_xyz
  'x, y, z'

loop_
  _atom_site_type_symbol
  _atom_site_label
  _atom_site_symmetry_multiplicity
  _atom_site_fract_x
  _atom_site_fract_y
  _atom_site_fract_z
  _atom_site_occupancy
  Fe  Fe1       1.0  0.17195  0.31502  0.39779  1.0000
  S   S1        1.0  0.13306  0.33323  0.42046  1.0000
  S   S2        1.0  0.19330  0.31565  0.34044  1.0000
  Fe  Fe2       1.0  0.19093  0.29777  0.47401  1.0000
  C   C1        1.0  0.26961  0.28193  0.38956  1.0000
  S   S3        1.0  0.17869  0.41004  0.48827  1.0000
  Fe  Fe3       1.0  0.11766  0.28754  0.45630  1.0000
  S   S4        1.0  0.06260  0.25201  0.45612  1.0000
  Fe  Fe4       1.0  0.17042  0.35832  0.46451  1.0000
  H   H1        1.0  0.20058  0.17130  0.32971  1.0000
  S   S5        1.0  0.15535  0.26844  0.43135  1.0000
  S   S6        1.0  0.21000  0.34344  0.43923  1.0000
  Fe  Fe5       1.0  0.15207  0.30181  0.12383  1.0000
  S   S7        1.0  0.13504  0.33096  0.08259  1.0000
  S   S8        1.0  0.12931  0.29600  0.18091  1.0000
  Fe  Fe6       1.0  0.19639  0.28552  0.06728  1.0000
  N   N1        1.0  0.22604  0.22266  0.38093  1.0000
  Fe  Fe7       1.0  0.18870  0.35320  0.06475  1.0000
  C   C2        1.0  0.28887  0.38228  0.07786  1.0000
  Fe  Fe8       1.0  0.12980  0.28902  0.04402  1.0000
  H   H2        1.0  0.20950  0.20166  0.27105  1.0000
  S   S9        1.0  0.20554  0.32626  0.10843  1.0000
  S   S10       1.0  0.14372  0.25858  0.08607  1.0000
  C   C3        1.0  0.99791  0.21058  0.47040  1.0000
  H   H3        1.0  0.13110  0.35996  0.15781  1.0000
  H   H4        1.0  0.22488  0.25866  0.42118  1.0000
  H   H5        1.0  0.12473  0.19702  0.40554  1.0000
  H   H6        1.0  0.21130  0.39168  0.14611  1.0000
  S   S11       1.0  0.23661  0.26295  0.06396  1.0000
  H   H7        1.0  0.22450  0.38174  0.22661  1.0000
  C   C4        1.0  0.23378  0.22282  0.34101  1.0000
  S   S12       1.0  0.21673  0.40972  0.06359  1.0000
  H   H8        1.0  0.30564  0.41850  0.01065  1.0000
  H   H9        1.0  0.22332  0.16710  0.26941  1.0000
  C   C5        1.0  0.17483  0.31023  0.29640  1.0000
  C   C6        1.0  0.19503  0.31250  0.26574  1.0000
  C   C7        1.0  0.18163  0.30819  0.23029  1.0000
  C   C8        1.0  0.14773  0.30157  0.22498  1.0000
  C   C9        1.0  0.12753  0.29927  0.25563  1.0000
  C   C10       1.0  0.14093  0.30360  0.29109  1.0000
  H   H10       1.0  0.22126  0.31754  0.26944  1.0000
  H   H11       1.0  0.19746  0.30972  0.20711  1.0000
  H   H12       1.0  0.10123  0.29389  0.25199  1.0000
  H   H13       1.0  0.12500  0.30164  0.31430  1.0000
  C   C11       1.0  0.03344  0.22012  0.03355  1.0000
  C   C12       1.0  0.23651  0.17205  0.41039  1.0000
  H   H14       1.0  0.29830  0.37299  0.45116  1.0000
  C   C13       1.0  0.24595  0.43499  0.99664  1.0000
  H   H15       1.0  0.12207  0.43773  0.17864  1.0000
  H   H16       1.0  0.24825  0.43058  0.46508  1.0000
  C   C14       1.0  0.24844  0.20982  0.40313  1.0000
  C   C15       1.0  0.24004  0.44147  0.03266  1.0000
  C   C16       1.0  0.23290  0.25797  0.39248  1.0000
  H   H17       1.0  0.27805  0.28502  0.36093  1.0000
  C   C17       1.0  0.16422  0.21155  0.36487  1.0000
  H   H18       1.0  0.09130  0.38717  0.20986  1.0000
  H   H19       1.0  0.17607  0.48037  0.15363  1.0000
  H   H20       1.0  0.12508  0.20209  0.02968  1.0000
  C   C18       1.0  0.23205  0.38704  0.19776  1.0000
  H   H21       1.0  0.12320  0.16478  0.37364  1.0000
  C   C19       1.0  0.27361  0.31621  0.40363  1.0000
  H   H22       1.0  0.29983  0.40932  0.07311  1.0000
  H   H23       1.0  0.22609  0.15711  0.38601  1.0000
  C   C20       1.0  0.17098  0.47459  0.18284  1.0000
  H   H24       1.0  0.26213  0.37393  0.07108  1.0000
  N   N2        1.0  0.15627  0.41180  0.17099  1.0000
  H   H25       1.0  0.18373  0.17636  0.38565  1.0000
  H   H26       1.0  0.26636  0.31485  0.43266  1.0000
  C   C21       1.0  0.18884  0.41341  0.18764  1.0000
  C   C22       1.0  0.16132  0.41680  0.13061  1.0000
  C   C23       1.0  0.13195  0.41978  0.10867  1.0000
  C   C24       1.0  0.14662  0.43852  0.18847  1.0000
  H   H27       1.0  0.11094  0.19863  0.35972  1.0000
  H   H28       1.0  0.16771  0.22703  0.02106  1.0000
  S   S13       1.0  0.08810  0.26917  0.00159  1.0000
  H   H29       1.0  0.08539  0.38699  0.16162  1.0000
  H   H30       1.0  0.14283  0.15818  0.05642  1.0000
  H   H31       1.0  0.22099  0.23695  0.32559  1.0000
  H   H32       1.0  0.12425  0.43986  0.11915  1.0000
  C   C25       1.0  0.20091  0.00744  0.13666  1.0000
  H   H33       1.0  0.19484  0.47892  0.19708  1.0000
  H   H34       1.0  0.18573  0.18220  0.04544  1.0000
  H   H35       1.0  0.28645  0.27304  0.40570  1.0000
  H   H36       1.0  0.18398  0.43872  0.12459  1.0000
  H   H37       1.0  0.16648  0.39572  0.11846  1.0000
  H   H38       1.0  0.28050  0.34981  0.12505  1.0000
  H   H39       1.0  0.24895  0.47987  0.07278  1.0000
  H   H40       1.0  0.25803  0.32683  0.38758  1.0000
  H   H41       1.0  0.14685  0.40679  0.05603  1.0000
  H   H42       1.0  0.20042  0.99981  0.10781  1.0000
  H   H43       1.0  0.04862  0.22290  0.05759  1.0000
  C   C26       1.0  0.24642  0.24135  0.02748  1.0000
  H   H44       1.0  0.18354  0.36155  0.17599  1.0000
  H   H45       1.0  0.16647  0.20528  0.33605  1.0000
  C   C27       1.0  0.12867  0.19170  0.37678  1.0000
  H   H46       1.0  0.21820  0.26929  0.37605  1.0000
  C   C28       1.0  0.30140  0.39182  0.47252  1.0000
  C   C29       1.0  0.20255  0.38675  0.17460  1.0000
  C   C30       1.0  0.27570  0.20581  0.00579  1.0000
  H   H47       1.0  0.16330  0.45056  0.06600  1.0000
  H   H48       1.0  0.27606  0.22204  0.06122  1.0000
  H   H49       1.0  0.14356  0.43403  0.21830  1.0000
  H   H50       1.0  0.16757  0.23804  0.36603  1.0000
  H   H51       1.0  0.25257  0.22117  0.43075  1.0000
  H   H52       1.0  0.29995  0.33288  0.40110  1.0000
  C   C31       1.0  0.26695  0.22304  0.03405  1.0000
  H   H53       1.0  0.16384  0.19744  0.07810  1.0000
  H   H54       1.0  0.22180  0.03138  0.14019  1.0000
  H   H55       1.0  0.20888  0.43743  0.18158  1.0000
  H   H56       1.0  0.24113  0.36758  0.18804  1.0000
  C   C32       1.0  0.22586  0.18864  0.32300  1.0000
  H   H57       1.0  0.25516  0.13577  0.43306  1.0000
  H   H58       1.0  0.21683  0.16524  0.43154  1.0000
  C   C33       1.0  0.16117  0.18354  0.05228  1.0000
  C   C34       1.0  0.09399  0.37512  0.18406  1.0000
  C   C35       1.0  0.18986  0.20328  0.38891  1.0000
  H   H59       1.0  0.25265  0.41137  0.19580  1.0000
  H   H60       1.0  0.07751  0.32628  0.20915  1.0000
  H   H61       1.0  0.27837  0.38992  0.13385  1.0000
  H   H62       1.0  0.26066  0.23635  0.33600  1.0000
  C   C36       1.0  0.25334  0.47439  0.04506  1.0000
  H   H63       1.0  0.11060  0.39602  0.10937  1.0000
  C   C37       1.0  0.24592  0.44979  0.48226  1.0000
  H   H64       1.0  0.27356  0.21761  0.39055  1.0000
  H   H65       1.0  0.04471  0.33766  0.18994  1.0000
  H   H66       1.0  0.25342  0.20848  0.27332  1.0000
  C   C38       1.0  0.13065  0.37791  0.17919  1.0000
  H   H67       1.0  0.07190  0.32585  0.16051  1.0000
  H   H68       1.0  0.24432  0.17778  0.33190  1.0000
  C   C39       1.0  0.14965  0.20125  0.02218  1.0000
  C   C40       1.0  0.07066  0.33901  0.18602  1.0000
  H   H69       1.0  0.13684  0.36770  0.20488  1.0000
  S   S14       1.0  0.18248  0.31358  0.02284  1.0000
  H   H70       1.0  0.18443  0.20652  0.41796  1.0000
  H   H71       1.0  0.28350  0.16478  0.40232  1.0000
  C   C41       1.0  0.22822  0.19179  0.28168  1.0000
  C   C42       1.0  0.00079  0.19637  0.03275  1.0000
  C   C43       1.0  0.27393  0.47841  0.48996  1.0000
  H   H72       1.0  0.12019  0.43047  0.05384  1.0000
  C   C44       1.0  0.14126  0.42741  0.06876  1.0000
  H   H73       1.0  0.18650  0.41170  0.21781  1.0000
  C   C45       1.0  0.04644  0.23991  0.00314  1.0000
  H   H74       1.0  0.01299  0.31201  0.49064  1.0000
  H   H75       1.0  0.27760  0.17747  0.44765  1.0000
  C   C46       1.0  0.02755  0.23307  0.48534  1.0000
  H   H76       1.0  0.25863  0.37078  0.01157  1.0000
  C   C47       1.0  0.26498  0.16202  0.42416  1.0000
  H   H77       1.0  0.29134  0.19166  0.01129  1.0000
  H   H78       1.0  0.17736  0.01115  0.14316  1.0000
  H   H79       1.0  0.29173  0.33622  0.06080  1.0000
  H   H80       1.0  0.31213  0.30509  0.03047  1.0000
  H   H81       1.0  0.08276  0.15425  0.01243  1.0000
  C   C48       1.0  0.30598  0.36280  0.05509  1.0000
  H   H82       1.0  0.29783  0.48074  0.47880  1.0000
  C   C49       1.0  0.29174  0.37657  0.11844  1.0000
  H   H83       1.0  0.99703  0.20500  0.44173  1.0000
  H   H84       1.0  0.29188  0.41061  0.46175  1.0000
  H   H85       1.0  0.31818  0.38607  0.12705  1.0000
  N   N3        1.0  0.30823  0.36949  0.01470  1.0000
  H   H86       1.0  0.25998  0.33083  0.00802  1.0000
  C   C50       1.0  0.27340  0.35695  0.99960  1.0000
  C   C51       1.0  0.31514  0.31333  0.00177  1.0000
  C   C52       1.0  0.32456  0.40652  0.00913  1.0000
  H   H87       1.0  0.02653  0.11707  0.99713  1.0000
  H   H88       1.0  0.19010  0.21796  0.49388  1.0000
  H   H89       1.0  0.14064  0.24331  0.97761  1.0000
  H   H90       1.0  0.12877  0.14182  0.85767  1.0000
  H   H91       1.0  0.30215  0.42016  0.60731  1.0000
  S   S15       1.0  0.30027  0.10029  0.57483  1.0000
  S   S16       1.0  0.28614  0.10274  0.91068  1.0000
  C   C53       1.0  0.27181  0.25032  0.51684  1.0000
  C   C54       1.0  0.23438  0.07417  0.63682  1.0000
  H   H92       1.0  0.29159  0.27386  0.52119  1.0000
  H   H93       1.0  0.26984  0.45554  0.94600  1.0000
  H   H94       1.0  0.29057  0.32404  0.63933  1.0000
  H   H95       1.0  0.22576  0.33139  0.61385  1.0000
  H   H96       1.0  0.12300  0.18722  0.89708  1.0000
  H   H97       1.0  0.21888  0.35355  0.54961  1.0000
  H   H98       1.0  0.03589  0.25069  0.94836  1.0000
  C   C55       1.0  0.21473  0.21896  0.50125  1.0000
  H   H99       1.0  0.25573  0.36307  0.49933  1.0000
  H   H100      1.0  0.22651  0.31485  0.95243  1.0000
  H   H101      1.0  0.22611  0.39458  0.53683  1.0000
  C   C56       1.0  0.22887  0.37939  0.56010  1.0000
  H   H102      1.0  0.22018  0.25752  0.98662  1.0000
  S   S17       1.0  0.27397  0.18548  0.93384  1.0000
  H   H103      1.0  0.31370  0.18711  0.66313  1.0000
  H   H104      1.0  0.29868  0.46254  0.56762  1.0000
  H   H105      1.0  0.23334  0.34367  0.91532  1.0000
  C   C57       1.0  0.07602  0.15098  0.98324  1.0000
  C   C58       1.0  0.14829  0.18410  0.98501  1.0000
  S   S18       1.0  0.31030  0.04391  0.98596  1.0000
  H   H106      1.0  0.23523  0.22691  0.93660  1.0000
  H   H107      1.0  0.20795  0.40945  0.59308  1.0000
  H   H108      1.0  0.20964  0.37423  0.61688  1.0000
  Fe  Fe9       1.0  0.30580  0.14054  0.53369  1.0000
  H   H109      1.0  0.21765  0.35247  0.95773  1.0000
  C   C59       1.0  0.22097  0.18949  0.50651  1.0000
  H   H110      1.0  0.28151  0.42182  0.52471  1.0000
  H   H111      1.0  0.20509  0.24166  0.62314  1.0000
  H   H112      1.0  0.29079  0.30289  0.98789  1.0000
  C   C60       1.0  0.26418  0.20693  0.97052  1.0000
  C   C61       1.0  0.24005  0.24957  0.50683  1.0000
  C   C62       1.0  0.26377  0.31440  0.63213  1.0000
  C   C63       1.0  0.27162  0.35898  0.58481  1.0000
  C   C64       1.0  0.24430  0.00049  0.97667  1.0000
  H   H113      1.0  0.26127  0.17688  0.77202  1.0000
  H   H114      1.0  0.31332  0.41059  0.54492  1.0000
  H   H115      1.0  0.23810  0.13335  0.76396  1.0000
  H   H116      1.0  0.28628  0.34883  0.94319  1.0000
  C   C65       1.0  0.02815  0.23983  0.52255  1.0000
  Fe  Fe10      1.0  0.30807  0.15520  0.93154  1.0000
  C   C66       1.0  0.27761  0.47357  0.61621  1.0000
  H   H117      1.0  0.30176  0.18544  0.59526  1.0000
  C   C67       1.0  0.13018  0.24725  0.92147  1.0000
  H   H118      1.0  0.29233  0.35608  0.51477  1.0000
  H   H119      1.0  0.18810  0.46950  0.52916  1.0000
  H   H120      1.0  0.26136  0.40966  0.62334  1.0000
  C   C68       1.0  0.14597  0.28495  0.92211  1.0000
  H   H121      1.0  0.25726  0.36038  0.64222  1.0000
  H   H122      1.0  0.05056  0.25700  0.53462  1.0000
  H   H123      1.0  0.29874  0.36551  0.58969  1.0000
  H   H124      1.0  0.16336  0.19134  0.91296  1.0000
  C   C69       1.0  0.13634  0.18036  0.91964  1.0000
  H   H125      1.0  0.25806  0.07145  0.64502  1.0000
  H   H126      1.0  0.07943  0.18298  0.93661  1.0000
  H   H127      1.0  0.08785  0.20311  0.97903  1.0000
  N   N4        1.0  0.12989  0.19428  0.95521  1.0000
  C   C70       1.0  0.27032  0.35965  0.95799  1.0000
  H   H128      1.0  0.25440  0.23088  0.64498  1.0000
  H   H129      1.0  0.16204  0.37224  0.55432  1.0000
  H   H130      1.0  0.10293  0.24036  0.92469  1.0000
  H   H131      1.0  0.13533  0.23948  0.89421  1.0000
  H   H132      1.0  0.21349  0.05197  0.64613  1.0000
  C   C71       1.0  0.03821  0.13974  0.98063  1.0000
  H   H133      1.0  0.27702  0.38597  0.95014  1.0000
  H   H134      1.0  0.17445  0.18905  0.97665  1.0000
  H   H135      1.0  0.16374  0.33700  0.57961  1.0000
  C   C72       1.0  0.16862  0.36393  0.58074  1.0000
  C   C73       1.0  0.20496  0.38306  0.59004  1.0000
  C   C74       1.0  0.27636  0.41622  0.59821  1.0000
  H   H136      1.0  0.13428  0.29551  0.90101  1.0000
  H   H137      1.0  0.14223  0.29487  0.94884  1.0000
  H   H138      1.0  0.17295  0.29300  0.91638  1.0000
  C   C75       1.0  0.99963  0.22445  0.54423  1.0000
  H   H139      1.0  0.00055  0.23007  0.57289  1.0000
  H   H140      1.0  0.28044  0.14674  0.77944  1.0000
  N   N5        1.0  0.26023  0.16898  0.65735  1.0000
  C   C76       1.0  0.23391  0.17651  0.63603  1.0000
  C   C77       1.0  0.26161  0.13664  0.64372  1.0000
  C   C78       1.0  0.25155  0.16702  0.69713  1.0000
  C   C79       1.0  0.29399  0.19558  0.65228  1.0000
  H   H141      1.0  0.29633  0.21791  0.66856  1.0000
  C   C80       1.0  0.23020  0.21009  0.64444  1.0000
  C   C81       1.0  0.27520  0.15724  0.72266  1.0000
  C   C82       1.0  0.23143  0.10512  0.65375  1.0000
  H   H142      1.0  0.25421  0.44750  0.56810  1.0000
  H   H143      1.0  0.20780  0.10684  0.64405  1.0000
  C   C83       1.0  0.20852  0.21824  0.61592  1.0000
  C   C84       1.0  0.26284  0.15339  0.76184  1.0000
  H   H144      1.0  0.20904  0.15735  0.64100  1.0000
  H   H145      1.0  0.23801  0.17501  0.60627  1.0000
  H   H146      1.0  0.26370  0.13718  0.61358  1.0000
  H   H147      1.0  0.28449  0.13294  0.65344  1.0000
  H   H148      1.0  0.22562  0.14973  0.70167  1.0000
  H   H149      1.0  0.25187  0.19138  0.70697  1.0000
  H   H150      1.0  0.08337  0.13069  0.97300  1.0000
  H   H151      1.0  0.30283  0.22178  0.52861  1.0000
  C   C85       1.0  0.26534  0.46095  0.97371  1.0000
  H   H152      1.0  0.15238  0.36832  0.60190  1.0000
  H   H153      1.0  0.21817  0.20893  0.67130  1.0000
  C   C86       1.0  0.28228  0.37527  0.50650  1.0000
  H   H154      1.0  0.30047  0.17651  0.72238  1.0000
  H   H155      1.0  0.27731  0.13351  0.71450  1.0000
  H   H156      1.0  0.22967  0.10115  0.68352  1.0000
  S   S19       1.0  0.25869  0.15215  0.52365  1.0000
  H   H157      1.0  0.23543  0.41008  0.98633  1.0000
  H   H158      1.0  0.99953  0.29198  0.53364  1.0000
  H   H159      1.0  0.28740  0.21907  0.60109  1.0000
  C   C87       1.0  0.21205  0.47185  0.51809  1.0000
  H   H160      1.0  0.25932  0.29549  0.61042  1.0000
  H   H161      1.0  0.30237  0.99746  0.92054  1.0000
  H   H162      1.0  0.25492  0.46341  0.63317  1.0000
  H   H163      1.0  0.22050  0.22139  0.58877  1.0000
  H   H164      1.0  0.18368  0.19826  0.61440  1.0000
  C   C88       1.0  0.25279  0.34253  0.61956  1.0000
  C   C89       1.0  0.02617  0.23566  0.97212  1.0000
  C   C90       1.0  0.23471  0.34149  0.94526  1.0000
  H   H165      1.0  0.24929  0.30233  0.65647  1.0000
  H   H166      1.0  0.26432  0.33878  0.56433  1.0000
  C   C91       1.0  0.09307  0.18400  0.96253  1.0000
  S   S20       1.0  0.23291  0.28738  0.50370  1.0000
  H   H167      1.0  0.30188  0.06813  0.74219  1.0000
  H   H168      1.0  0.02990  0.13420  0.95204  1.0000
  C   C92       1.0  0.24397  0.22563  0.96387  1.0000
  H   H169      1.0  0.16595  0.14235  0.88105  1.0000
  C   C93       1.0  0.99340  0.21215  0.97145  1.0000
  N   N6        1.0  0.26505  0.38871  0.57054  1.0000
  H   H170      1.0  0.23313  0.07535  0.60676  1.0000
  C   C94       1.0  0.14456  0.23156  0.95205  1.0000
  C   C95       1.0  0.28652  0.40079  0.53726  1.0000
  H   H171      1.0  0.17196  0.23997  0.94813  1.0000
  H   H172      1.0  0.13556  0.13167  0.93939  1.0000
  H   H173      1.0  0.24130  0.01865  0.95822  1.0000
  C   C96       1.0  0.27825  0.22084  0.52123  1.0000
  S   S21       1.0  0.31805  0.09662  0.81325  1.0000
  C   C97       1.0  0.27644  0.45027  0.58476  1.0000
  H   H174      1.0  0.09816  0.13085  0.91629  1.0000
  C   C98       1.0  0.30377  0.20687  0.61267  1.0000
  S   S22       1.0  0.15252  0.31375  0.50169  1.0000
  C   C99       1.0  0.12566  0.14231  0.91684  1.0000
  C   C100      1.0  0.99251  0.30494  0.51085  1.0000
  H   H175      1.0  0.12973  0.10506  0.87978  1.0000
  H   H176      1.0  0.24789  0.01821  0.51067  1.0000
  C   C101      1.0  0.13834  0.13243  0.88162  1.0000
  C   C102      1.0  0.31873  0.09333  0.73840  1.0000
  C   C103      1.0  0.25270  0.19020  0.51656  1.0000
  H   H177      1.0  0.29996  0.47756  0.63325  1.0000
  H   H178      1.0  0.31898  0.08937  0.67974  1.0000
  Fe  Fe11      1.0  0.31972  0.09086  0.95068  1.0000
  S   S23       1.0  0.31817  0.02626  0.52118  1.0000
  H   H179      1.0  0.20101  0.16592  0.50289  1.0000
  C   C104      1.0  0.27876  0.49390  0.98613  1.0000
  C   C105      1.0  0.23518  0.24278  0.99216  1.0000
  C   C106      1.0  0.21477  0.44612  0.49649  1.0000
  H   H180      1.0  0.13773  0.15711  0.98985  1.0000
  H   H181      1.0  0.02957  0.15925  0.99104  1.0000
  C   C107      1.0  0.25121  0.99582  0.50181  1.0000
  H   H182      1.0  0.27279  0.99737  0.59617  1.0000
  C   C108      1.0  0.27502  0.00675  0.99365  1.0000
  Fe  Fe12      1.0  0.14961  0.80313  0.38319  1.0000
  S   S24       1.0  0.12547  0.82510  0.42532  1.0000
  S   S25       1.0  0.13073  0.79614  0.32417  1.0000
  Fe  Fe13      1.0  0.19298  0.78684  0.44045  1.0000
  C   C109      1.0  0.00086  0.71582  0.03183  1.0000
  H   H183      1.0  0.28643  0.73944  0.45194  1.0000
  Fe  Fe14      1.0  0.12168  0.78133  0.46045  1.0000
  H   H184      1.0  0.26281  0.54073  0.40214  1.0000
  Fe  Fe15      1.0  0.17732  0.85029  0.44796  1.0000
  H   H185      1.0  0.32255  0.56166  0.38539  1.0000
  S   S26       1.0  0.14264  0.75762  0.41719  1.0000
  S   S27       1.0  0.20137  0.83095  0.40353  1.0000
  Fe  Fe16      1.0  0.17654  0.81583  0.10736  1.0000
  S   S28       1.0  0.13885  0.83521  0.08401  1.0000
  S   S29       1.0  0.19676  0.82438  0.16585  1.0000
  Fe  Fe17      1.0  0.19235  0.79417  0.03198  1.0000
  H   H186      1.0  0.15382  0.95213  0.16523  1.0000
  Fe  Fe18      1.0  0.17609  0.85764  0.03934  1.0000
  C   C110      1.0  0.28236  0.54733  0.42341  1.0000
  Fe  Fe19      1.0  0.12065  0.78815  0.05072  1.0000
  S   S30       1.0  0.06439  0.75675  0.05124  1.0000
  S   S31       1.0  0.21476  0.84101  0.06437  1.0000
  S   S32       1.0  0.15697  0.76758  0.07659  1.0000
  C   C111      1.0  0.03198  0.73734  0.01910  1.0000
  S   S33       1.0  0.15500  0.81194  0.00438  1.0000
  C   C112      1.0  0.27813  0.98256  0.01757  1.0000
  S   S34       1.0  0.23545  0.76706  0.44425  1.0000
  H   H187      1.0  0.22453  0.68665  0.41564  1.0000
  H   H188      1.0  0.28863  0.83336  0.33527  1.0000
  H   H189      1.0  0.03123  0.74408  0.44272  1.0000
  C   C113      1.0  0.23628  0.72688  0.03191  1.0000
  H   H190      1.0  0.25389  0.93487  0.04336  1.0000
  H   H191      1.0  0.15502  0.93278  0.22461  1.0000
  H   H192      1.0  0.21737  0.72791  0.05063  1.0000
  C   C114      1.0  0.14947  0.80580  0.28041  1.0000
  C   C115      1.0  0.18359  0.82253  0.27575  1.0000
  C   C116      1.0  0.19758  0.82755  0.24059  1.0000
  C   C117      1.0  0.17761  0.81659  0.20951  1.0000
  C   C118      1.0  0.14336  0.80055  0.21409  1.0000
  C   C119      1.0  0.12945  0.79525  0.24929  1.0000
  H   H193      1.0  0.19918  0.83148  0.29927  1.0000
  H   H194      1.0  0.22406  0.84026  0.23744  1.0000
  H   H195      1.0  0.12763  0.79191  0.19056  1.0000
  H   H196      1.0  0.10299  0.78238  0.25246  1.0000
  H   H197      1.0  0.30822  0.59419  0.39864  1.0000
  H   H198      1.0  0.14534  0.90800  0.28663  1.0000
  C   C120      1.0  0.01826  0.73245  0.46708  1.0000
  H   H199      1.0  0.24377  0.68599  0.05925  1.0000
  H   H200      1.0  0.29084  0.88389  0.05239  1.0000
  C   C121      1.0  0.99274  0.80597  0.02215  1.0000
  C   C122      1.0  0.27005  0.73121  0.47501  1.0000
  C   C123      1.0  0.30244  0.87016  0.03496  1.0000
  C   C124      1.0  0.25107  0.95284  0.02459  1.0000
  C   C125      1.0  0.25889  0.93717  0.47903  1.0000
  H   H201      1.0  0.18869  0.69343  0.43414  1.0000
  C   C126      1.0  0.25129  0.70310  0.03673  1.0000
  C   C127      1.0  0.22035  0.94663  0.00765  1.0000
  C   C128      1.0  0.20583  0.98145  0.16172  1.0000
  C   C129      1.0  0.22354  0.96838  0.49024  1.0000
  C   C130      1.0  0.27559  0.70098  0.01243  1.0000
  H   H202      1.0  0.18949  0.92928  0.29406  1.0000
  C   C131      1.0  0.19711  0.67923  0.41379  1.0000
  H   H203      1.0  0.18567  0.65257  0.42060  1.0000
  C   C132      1.0  0.22705  0.93875  0.47902  1.0000
  C   C133      1.0  0.24263  0.74133  0.47844  1.0000
  H   H204      1.0  0.28238  0.91238  0.99763  1.0000
  C   C134      1.0  0.27240  0.50042  0.02201  1.0000
  N   N7        1.0  0.17977  0.91942  0.17943  1.0000
  C   C135      1.0  0.17682  0.94773  0.15763  1.0000
  C   C136      1.0  0.15221  0.88811  0.16790  1.0000
  C   C137      1.0  0.17735  0.92634  0.21923  1.0000
  C   C138      1.0  0.21257  0.91538  0.17272  1.0000
  C   C139      1.0  0.22122  0.91200  0.13239  1.0000
  S   S35       1.0  0.19065  0.90432  0.46691  1.0000
  C   C140      1.0  0.17707  0.89827  0.24560  1.0000
  C   C141      1.0  0.11653  0.88484  0.17921  1.0000
  C   C142      1.0  0.09089  0.85274  0.16478  1.0000
  C   C143      1.0  0.25540  0.90920  0.12912  1.0000
  H   H205      1.0  0.24811  0.83625  0.33379  1.0000
  C   C144      1.0  0.28626  0.86402  0.99743  1.0000
  H   H206      1.0  0.17380  0.94140  0.12820  1.0000
  H   H207      1.0  0.15197  0.88575  0.13789  1.0000
  H   H208      1.0  0.15670  0.86593  0.17805  1.0000
  H   H209      1.0  0.27322  0.55719  0.44731  1.0000
  C   C145      1.0  0.17019  0.90594  0.28457  1.0000
  H   H210      1.0  0.23333  0.93605  0.18516  1.0000
  H   H211      1.0  0.21316  0.89283  0.18668  1.0000
  H   H212      1.0  0.22169  0.93360  0.11596  1.0000
  H   H213      1.0  0.20281  0.88947  0.12020  1.0000
  H   H214      1.0  0.25984  0.84857  0.00131  1.0000
  H   H215      1.0  0.20158  0.89536  0.24544  1.0000
  H   H216      1.0  0.15781  0.87424  0.23825  1.0000
  H   H217      1.0  0.11387  0.88440  0.20916  1.0000
  H   H218      1.0  0.11008  0.90561  0.16833  1.0000
  H   H219      1.0  0.06570  0.85044  0.17412  1.0000
  H   H220      1.0  0.09094  0.85255  0.13464  1.0000
  H   H221      1.0  0.09624  0.83103  0.17494  1.0000
  H   H222      1.0  0.26105  0.90678  0.10013  1.0000
  H   H223      1.0  0.27495  0.93157  0.14029  1.0000
  H   H224      1.0  0.25587  0.88696  0.14380  1.0000
  S   S36       1.0  0.18503  0.90958  0.01550  1.0000
  H   H225      1.0  0.01284  0.67239  0.42990  1.0000
  H   H226      1.0  0.28663  0.52453  0.43154  1.0000
  N   N8        1.0  0.19905  0.73114  0.32595  1.0000
  C   C146      1.0  0.21229  0.76835  0.32297  1.0000
  C   C147      1.0  0.16250  0.71839  0.31662  1.0000
  C   C148      1.0  0.20226  0.72254  0.36522  1.0000
  C   C149      1.0  0.21776  0.71511  0.30250  1.0000
  C   C150      1.0  0.23231  0.73265  0.26614  1.0000
  C   C151      1.0  0.24797  0.78609  0.33792  1.0000
  C   C152      1.0  0.18662  0.68542  0.37564  1.0000
  C   C153      1.0  0.15330  0.72318  0.27696  1.0000
  C   C154      1.0  0.11571  0.71291  0.27242  1.0000
  C   C155      1.0  0.24461  0.71065  0.24224  1.0000
  C   C156      1.0  0.26308  0.82169  0.32430  1.0000
  S   S37       1.0  0.29290  0.66979  0.01902  1.0000
  H   H227      1.0  0.19580  0.77875  0.33791  1.0000
  H   H228      1.0  0.21169  0.77636  0.29453  1.0000
  H   H229      1.0  0.15118  0.69133  0.32117  1.0000
  H   H230      1.0  0.14910  0.72990  0.33494  1.0000
  H   H231      1.0  0.19115  0.73629  0.38330  1.0000
  H   H232      1.0  0.22890  0.73069  0.37317  1.0000
  H   H233      1.0  0.23931  0.71297  0.31757  1.0000
  H   H234      1.0  0.20161  0.68916  0.29624  1.0000
  H   H235      1.0  0.25379  0.75572  0.27139  1.0000
  H   H236      1.0  0.21409  0.73956  0.25018  1.0000
  H   H237      1.0  0.24729  0.78708  0.36800  1.0000
  H   H238      1.0  0.26473  0.77287  0.33032  1.0000
  H   H239      1.0  0.19418  0.66979  0.35638  1.0000
  H   H240      1.0  0.15911  0.67722  0.37591  1.0000
  H   H241      1.0  0.16471  0.74918  0.26805  1.0000
  H   H242      1.0  0.16139  0.70729  0.25855  1.0000
  H   H243      1.0  0.10986  0.71697  0.24384  1.0000
  H   H244      1.0  0.10302  0.68635  0.27914  1.0000
  H   H245      1.0  0.10594  0.72797  0.29022  1.0000
  H   H246      1.0  0.25558  0.72410  0.21693  1.0000
  H   H247      1.0  0.26397  0.70396  0.25657  1.0000
  H   H248      1.0  0.22368  0.68777  0.23463  1.0000
  H   H249      1.0  0.26437  0.82240  0.29418  1.0000
  H   H250      1.0  0.21347  0.62840  0.00259  1.0000
  H   H251      1.0  0.01530  0.60322  0.44278  1.0000
  H   H252      1.0  0.26225  0.91488  0.47000  1.0000
  H   H253      1.0  0.19878  0.94852  0.22766  1.0000
  C   C157      1.0  0.15661  0.49932  0.19823  1.0000
  C   C158      1.0  0.31438  0.57298  0.40869  1.0000
  H   H254      1.0  0.17471  0.52487  0.19442  1.0000
  H   H255      1.0  0.29884  0.84607  0.04819  1.0000
  C   C159      1.0  0.24537  0.74885  0.00261  1.0000
  H   H256      1.0  0.23005  0.97962  0.15459  1.0000
  H   H257      1.0  0.17049  0.88555  0.30275  1.0000
  H   H258      1.0  0.04546  0.66436  0.45448  1.0000
  H   H259      1.0  0.24489  0.84906  0.47995  1.0000
  C   C160      1.0  0.02610  0.65486  0.43316  1.0000
  H   H260      1.0  0.00947  0.83158  0.01572  1.0000
  H   H261      1.0  0.20730  0.99072  0.18995  1.0000
  S   S38       1.0  0.17211  0.80779  0.48586  1.0000
  H   H262      1.0  0.99752  0.71073  0.06059  1.0000
  H   H263      1.0  0.03851  0.65376  0.40708  1.0000
  H   H264      1.0  0.00382  0.78864  0.01065  1.0000
  C   C161      1.0  0.28647  0.96439  0.49124  1.0000
  H   H265      1.0  0.30162  0.98700  0.03102  1.0000
  H   H266      1.0  0.28251  0.52549  0.03212  1.0000
  H   H267      1.0  0.15152  0.49500  0.22773  1.0000
  H   H268      1.0  0.31081  0.96255  0.49180  1.0000
  H   H269      1.0  0.13325  0.49723  0.18393  1.0000
  C   C162      1.0  0.00153  0.62051  0.44304  1.0000
  H   H270      1.0  0.19914  0.97008  0.49020  1.0000
  H   H271      1.0  0.16605  0.86252  0.94644  1.0000
  H   H272      1.0  0.17112  0.86227  0.53010  1.0000
  H   H273      1.0  0.21078  0.59724  0.96924  1.0000
  S   S39       1.0  0.29299  0.60286  0.59786  1.0000
  S   S40       1.0  0.29381  0.61161  0.93674  1.0000
  C   C163      1.0  0.16298  0.86013  0.55868  1.0000
  S   S41       1.0  0.30780  0.53967  0.52021  1.0000
  C   C164      1.0  0.24880  0.97609  0.59622  1.0000
  H   H274      1.0  0.21187  0.70168  0.55784  1.0000
  C   C165      1.0  0.24836  0.84698  0.53906  1.0000
  C   C166      1.0  0.24029  0.87843  0.54619  1.0000
  H   H275      1.0  0.22632  0.61909  0.77556  1.0000
  H   H276      1.0  0.23735  0.52005  0.54226  1.0000
  H   H277      1.0  0.00581  0.80742  0.70046  1.0000
  H   H278      1.0  0.31742  0.90957  0.97452  1.0000
  H   H279      1.0  0.27427  0.79684  0.88561  1.0000
  C   C167      1.0  0.12980  0.83121  0.56134  1.0000
  H   H280      1.0  0.27005  0.94075  0.61256  1.0000
  H   H281      1.0  0.22490  0.88144  0.52333  1.0000
  H   H282      1.0  0.23281  0.98028  0.57460  1.0000
  H   H283      1.0  0.25839  0.81314  0.66340  1.0000
  N   N9        1.0  0.22418  0.88039  0.58201  1.0000
  H   H284      1.0  0.22597  0.82426  0.54134  1.0000
  C   C168      1.0  0.18933  0.85506  0.58435  1.0000
  C   C169      1.0  0.31799  0.98506  0.90754  1.0000
  C   C170      1.0  0.27810  0.92959  0.93012  1.0000
  H   H285      1.0  0.01213  0.73427  0.92907  1.0000
  H   H286      1.0  0.20549  0.91494  0.60790  1.0000
  C   C171      1.0  0.23744  0.84029  0.62753  1.0000
  H   H287      1.0  0.22233  0.87483  0.89065  1.0000
  H   H288      1.0  0.05934  0.76013  0.97141  1.0000
  H   H289      1.0  0.02144  0.77754  0.72018  1.0000
  S   S42       1.0  0.26266  0.67391  0.56556  1.0000
  H   H290      1.0  0.18467  0.74195  0.90936  1.0000
  H   H291      1.0  0.25316  0.65183  0.95356  1.0000
  C   C172      1.0  0.29021  0.89694  0.97823  1.0000
  C   C173      1.0  0.03628  0.73345  0.49893  1.0000
  C   C174      1.0  0.27654  0.71053  0.50125  1.0000
  C   C175      1.0  0.28527  0.72350  0.98367  1.0000
  H   H292      1.0  0.29118  0.83475  0.86001  1.0000
  C   C176      1.0  0.28779  0.82396  0.88773  1.0000
  H   H293      1.0  0.17610  0.83036  0.92330  1.0000
  C   C177      1.0  0.23522  0.87794  0.94898  1.0000
  H   H294      1.0  0.26779  0.85566  0.67635  1.0000
  H   H295      1.0  0.26724  0.92942  0.90267  1.0000
  H   H296      1.0  0.18916  0.82980  0.57922  1.0000
  H   H297      1.0  0.27054  0.94781  0.56463  1.0000
  Fe  Fe20      1.0  0.32122  0.64943  0.97871  1.0000
  H   H298      1.0  0.22844  0.85153  0.95639  1.0000
  H   H299      1.0  0.21012  0.91988  0.55980  1.0000
  C   C178      1.0  0.22186  0.91432  0.58473  1.0000
  C   C179      1.0  0.17704  0.85627  0.92154  1.0000
  H   H300      1.0  0.28346  0.88707  0.88663  1.0000
  H   H301      1.0  0.26509  0.94153  0.94832  1.0000
  H   H302      1.0  0.29877  0.85014  0.98160  1.0000
  H   H303      1.0  0.16188  0.85834  0.89795  1.0000
  C   C180      1.0  0.26274  0.84764  0.50102  1.0000
  C   C181      1.0  0.01568  0.78761  0.69434  1.0000
  H   H304      1.0  0.19166  0.58217  0.78692  1.0000
  H   H305      1.0  0.29246  0.70409  0.83810  1.0000
  C   C182      1.0  0.01872  0.71822  0.53035  1.0000
  C   C183      1.0  0.28523  0.87732  0.91424  1.0000
  H   H306      1.0  0.03232  0.71893  0.55520  1.0000
  H   H307      1.0  0.27751  0.76412  0.95605  1.0000
  H   H308      1.0  0.24293  0.83271  0.89883  1.0000
  H   H309      1.0  0.17925  0.61585  0.97100  1.0000
  H   H310      1.0  0.20044  0.73795  0.51143  1.0000
  H   H311      1.0  0.31627  0.67761  0.77125  1.0000
  H   H312      1.0  0.21380  0.83174  0.64309  1.0000
  H   H313      1.0  0.99205  0.64168  0.69181  1.0000
  H   H314      1.0  0.26429  0.82671  0.93799  1.0000
  N   N10       1.0  0.27209  0.89463  0.94265  1.0000
  H   H315      1.0  0.27880  0.49788  0.60524  1.0000
  C   C184      1.0  0.31485  0.95329  0.92785  1.0000
  H   H316      1.0  0.13278  0.80752  0.55436  1.0000
  C   C185      1.0  0.25565  0.69977  0.53137  1.0000
  H   H317      1.0  0.21189  0.90548  0.91546  1.0000
  H   H318      1.0  0.20309  0.74354  0.86521  1.0000
  C   C186      1.0  0.22822  0.70990  0.53473  1.0000
  C   C187      1.0  0.26788  0.83911  0.91131  1.0000
  H   H319      1.0  0.15815  0.88284  0.56593  1.0000
  H   H320      1.0  0.22761  0.88897  0.97299  1.0000
  H   H321      1.0  0.23205  0.58876  0.80591  1.0000
  N   N11       1.0  0.23378  0.66333  0.87917  1.0000
  C   C188      1.0  0.26797  0.68603  0.89069  1.0000
  C   C189      1.0  0.21844  0.63731  0.90798  1.0000
  C   C190      1.0  0.23805  0.64578  0.84518  1.0000
  C   C191      1.0  0.21128  0.68211  0.87044  1.0000
  C   C192      1.0  0.20647  0.70465  0.90084  1.0000
  C   C193      1.0  0.28681  0.71415  0.86385  1.0000
  C   C194      1.0  0.20626  0.61876  0.83005  1.0000
  H   H322      1.0  0.30462  0.72271  0.96551  1.0000
  H   H323      1.0  0.23658  0.97515  0.62291  1.0000
  C   C195      1.0  0.18830  0.72667  0.88670  1.0000
  H   H324      1.0  0.23480  0.82230  0.60543  1.0000
  C   C196      1.0  0.21467  0.60120  0.79764  1.0000
  H   H325      1.0  0.28400  0.67130  0.89616  1.0000
  H   H326      1.0  0.26701  0.69824  0.91667  1.0000
  H   H327      1.0  0.19090  0.62700  0.90511  1.0000
  H   H328      1.0  0.22668  0.61588  0.90430  1.0000
  H   H329      1.0  0.25668  0.63386  0.85009  1.0000
  H   H330      1.0  0.24809  0.66355  0.82257  1.0000
  H   H331      1.0  0.21997  0.69722  0.84547  1.0000
  H   H332      1.0  0.18593  0.66468  0.86364  1.0000
  H   H333      1.0  0.23035  0.72125  0.91229  1.0000
  H   H334      1.0  0.19097  0.68928  0.92288  1.0000
  H   H335      1.0  0.26752  0.84561  0.55844  1.0000
  H   H336      1.0  0.27221  0.72998  0.85771  1.0000
  H   H337      1.0  0.18818  0.62984  0.82056  1.0000
  H   H338      1.0  0.19405  0.59967  0.85076  1.0000
  H   H339      1.0  0.31247  0.82821  0.90012  1.0000
  C   C197      1.0  0.28287  0.99386  0.50298  1.0000
  C   C198      1.0  0.24488  0.87611  0.61346  1.0000
  C   C199      1.0  0.21274  0.88017  0.91689  1.0000
  C   C200      1.0  0.20614  0.62048  0.97419  1.0000
  S   S43       1.0  0.30421  0.52538  0.95612  1.0000
  H   H340      1.0  0.16352  0.71143  0.87574  1.0000
  Fe  Fe21      1.0  0.30344  0.65171  0.56866  1.0000
  H   H341      1.0  0.31598  0.74924  0.90446  1.0000
  H   H342      1.0  0.17960  0.85468  0.61241  1.0000
  H   H343      1.0  0.26437  0.89929  0.54345  1.0000
  C   C201      1.0  0.27126  0.50413  0.51162  1.0000
  H   H344      1.0  0.00197  0.74167  0.66567  1.0000
  C   C202      1.0  0.27004  0.74706  0.97859  1.0000
  C   C203      1.0  0.25515  0.94409  0.58941  1.0000
  H   H345      1.0  0.31228  0.88300  0.91855  1.0000
  C   C204      1.0  0.21725  0.97078  0.98374  1.0000
  C   C205      1.0  0.03577  0.74359  0.98176  1.0000
  H   H346      1.0  0.22241  0.67051  0.95519  1.0000
  C   C206      1.0  0.00884  0.72884  0.95777  1.0000
  C   C207      1.0  0.24001  0.50063  0.52560  1.0000
  C   C208      1.0  0.22168  0.73051  0.50845  1.0000
  C   C209      1.0  0.22667  0.64759  0.94821  1.0000
  H   H347      1.0  0.11180  0.83501  0.54187  1.0000
  H   H348      1.0  0.11939  0.82940  0.58914  1.0000
  H   H349      1.0  0.27181  0.88731  0.60660  1.0000
  S   S44       1.0  0.08050  0.75301  0.50119  1.0000
  H   H350      1.0  0.24137  0.88987  0.63771  1.0000
  H   H351      1.0  0.31025  0.97968  0.87877  1.0000
  C   C210      1.0  0.26486  0.83873  0.65293  1.0000
  H   H352      1.0  0.28883  0.84559  0.63813  1.0000
  H   H353      1.0  0.03912  0.79863  0.67874  1.0000
  H   H354      1.0  0.19367  0.96651  0.97052  1.0000
  Fe  Fe22      1.0  0.31882  0.58909  0.55088  1.0000
  H   H355      1.0  0.29775  0.70303  0.49831  1.0000
  C   C211      1.0  0.32000  0.73643  0.87984  1.0000
  H   H356      1.0  0.00762  0.62388  0.50010  1.0000
  H   H357      1.0  0.26803  0.82469  0.49648  1.0000
  S   S45       1.0  0.22612  0.77823  0.99407  1.0000
  H   H358      1.0  0.28628  0.86917  0.49791  1.0000
  C   C212      1.0  0.65426  0.30336  0.26775  1.0000
  C   C213      1.0  0.52062  0.23729  0.45911  1.0000
  H   H359      1.0  0.65094  0.43230  0.19409  1.0000
  H   H360      1.0  0.32830  0.40381  0.47861  1.0000
  H   H361      1.0  0.65797  0.17311  0.11849  1.0000
  C   C214      1.0  0.52306  0.24599  0.00999  1.0000
  S   S46       1.0  0.62988  0.31872  0.41436  1.0000
  S   S47       1.0  0.55598  0.26890  0.04021  1.0000
  Fe  Fe23      1.0  0.62566  0.27375  0.44752  1.0000
  H   H362      1.0  0.64370  0.39729  0.24834  1.0000
  C   C215      1.0  0.64774  0.17455  0.04694  1.0000
  H   H363      1.0  0.64203  0.14889  0.05680  1.0000
  S   S48       1.0  0.64050  0.34095  0.06926  1.0000
  H   H364      1.0  0.62539  0.18141  0.04968  1.0000
  Fe  Fe24      1.0  0.61339  0.29351  0.03834  1.0000
  N   N12       1.0  0.44836  0.10349  0.99711  1.0000
  S   S49       1.0  0.64388  0.26672  0.06444  1.0000
  H   H365      1.0  0.38624  0.11408  0.07726  1.0000
  H   H366      1.0  0.61282  0.11537  0.47992  1.0000
  H   H367      1.0  0.50640  0.12747  0.04314  1.0000
  H   H368      1.0  0.43549  0.01992  0.06466  1.0000
  H   H369      1.0  0.49270  0.16193  0.03564  1.0000
  S   S50       1.0  0.64888  0.25307  0.40365  1.0000
  H   H370      1.0  0.36303  0.30718  0.99711  1.0000
  C   C216      1.0  0.63796  0.21945  0.21552  1.0000
  H   H371      1.0  0.63442  0.18743  0.17023  1.0000
  C   C217      1.0  0.37627  0.11704  0.05022  1.0000
  H   H372      1.0  0.47207  0.23676  0.44364  1.0000
  H   H373      1.0  0.52789  0.11529  0.46413  1.0000
  H   H374      1.0  0.61966  0.19969  0.23186  1.0000
  C   C218      1.0  0.48548  0.22527  0.46040  1.0000
  C   C219      1.0  0.65247  0.18115  0.46189  1.0000
  H   H375      1.0  0.64765  0.20847  0.10970  1.0000
  S   S51       1.0  0.42324  0.18596  0.48511  1.0000
  H   H376      1.0  0.64956  0.36570  0.29307  1.0000
  H   H377      1.0  0.63794  0.13513  0.42946  1.0000
  C   C220      1.0  0.32929  0.35161  0.99865  1.0000
  C   C221      1.0  0.57940  0.14187  0.47841  1.0000
  C   C222      1.0  0.45357  0.04356  0.07519  1.0000
  S   S52       1.0  0.33106  0.11932  0.49222  1.0000
  H   H378      1.0  0.55260  0.18203  0.03484  1.0000
  C   C223      1.0  0.46757  0.19871  0.48318  1.0000
  H   H379      1.0  0.62832  0.30715  0.18016  1.0000
  H   H380      1.0  0.63448  0.19200  0.45129  1.0000
  C   C224      1.0  0.54903  0.10995  0.47625  1.0000
  H   H381      1.0  0.55428  0.09147  0.45891  1.0000
  H   H382      1.0  0.34245  0.41781  0.03153  1.0000
  H   H383      1.0  0.37927  0.10400  0.99456  1.0000
  H   H384      1.0  0.35436  0.36072  0.01152  1.0000
  C   C225      1.0  0.44667  0.07294  0.05905  1.0000
  H   H385      1.0  0.62468  0.23385  0.20168  1.0000
  H   H386      1.0  0.58518  0.15165  0.45040  1.0000
  H   H387      1.0  0.38547  0.07577  0.02643  1.0000
  H   H388      1.0  0.55335  0.15052  0.00325  1.0000
  H   H389      1.0  0.48532  0.23848  0.05082  1.0000
  C   C226      1.0  0.49013  0.23350  0.02306  1.0000
  H   H390      1.0  0.45114  0.04366  0.10520  1.0000
  H   H391      1.0  0.59818  0.33653  0.34857  1.0000
  H   H392      1.0  0.53385  0.25773  0.44145  1.0000
  H   H393      1.0  0.60738  0.29926  0.24367  1.0000
  H   H394      1.0  0.61788  0.40477  0.31246  1.0000
  H   H395      1.0  0.42710  0.05075  0.00820  1.0000
  H   H396      1.0  0.57162  0.35955  0.33968  1.0000
  C   C227      1.0  0.46330  0.21470  0.00063  1.0000
  C   C228      1.0  0.53939  0.16642  0.01167  1.0000
  C   C229      1.0  0.53848  0.22310  0.48096  1.0000
  C   C230      1.0  0.39153  0.10239  0.02060  1.0000
  H   H397      1.0  0.65681  0.23605  0.23425  1.0000
  C   C231      1.0  0.44856  0.07291  0.01688  1.0000
  C   C232      1.0  0.65570  0.38151  0.31774  1.0000
  C   C233      1.0  0.65437  0.20410  0.18769  1.0000
  H   H398      1.0  0.47090  0.06732  0.00905  1.0000
  H   H399      1.0  0.43263  0.14512  0.00319  1.0000
  C   C234      1.0  0.64497  0.30754  0.20228  1.0000
  H   H400      1.0  0.62738  0.39672  0.35861  1.0000
  S   S53       1.0  0.63769  0.29788  0.31279  1.0000
  H   H401      1.0  0.58915  0.34441  0.30238  1.0000
  H   H402      1.0  0.43989  0.12893  0.04470  1.0000
  C   C235      1.0  0.59398  0.35496  0.33019  1.0000
  C   C236      1.0  0.62404  0.38726  0.33035  1.0000
  C   C237      1.0  0.42951  0.12143  0.01718  1.0000
  H   H403      1.0  0.65429  0.17559  0.01769  1.0000
  H   H404      1.0  0.46437  0.09566  0.07133  1.0000
  H   H405      1.0  0.47919  0.04513  0.06850  1.0000
  H   H406      1.0  0.63977  0.45151  0.23272  1.0000
  H   H407      1.0  0.42152  0.07090  0.06810  1.0000
  C   C238      1.0  0.50398  0.14527  0.02293  1.0000
  C   C239      1.0  0.63316  0.30308  0.23843  1.0000
  H   H408      1.0  0.34889  0.10397  0.05044  1.0000
  H   H409      1.0  0.33129  0.36814  0.06660  1.0000
  H   H410      1.0  0.38164  0.14371  0.04495  1.0000
  H   H411      1.0  0.64163  0.18019  0.38642  1.0000
  H   H412      1.0  0.43829  0.20553  0.01128  1.0000
  S   S54       1.0  0.58294  0.23799  0.48197  1.0000
  Fe  Fe25      1.0  0.65626  0.29956  0.37183  1.0000
  S   S55       1.0  0.33927  0.14280  0.97446  1.0000
  S   S56       1.0  0.37848  0.11123  0.55924  1.0000
  H   H413      1.0  0.44144  0.27676  0.63680  1.0000
  Fe  Fe26      1.0  0.37969  0.15056  0.51868  1.0000
  H   H414      1.0  0.36218  0.16186  0.78690  1.0000
  C   C240      1.0  0.52414  0.27024  0.57389  1.0000
  S   S57       1.0  0.35408  0.17436  0.55660  1.0000
  C   C241      1.0  0.36230  0.15800  0.72819  1.0000
  Fe  Fe27      1.0  0.37942  0.15504  0.93155  1.0000
  S   S58       1.0  0.34928  0.17063  0.88986  1.0000
  S   S59       1.0  0.43655  0.18214  0.93541  1.0000
  H   H415      1.0  0.42858  0.11483  0.94683  1.0000
  C   C242      1.0  0.42251  0.26110  0.52680  1.0000
  H   H416      1.0  0.47213  0.16336  0.52161  1.0000
  S   S60       1.0  0.36158  0.10263  0.91013  1.0000
  H   H417      1.0  0.57047  0.30715  0.55582  1.0000
  H   H418      1.0  0.49683  0.20382  0.62532  1.0000
  C   C243      1.0  0.45229  0.16831  0.60133  1.0000
  H   H419      1.0  0.50674  0.21527  0.92384  1.0000
  H   H420      1.0  0.45573  0.05773  0.94648  1.0000
  C   C244      1.0  0.42031  0.25103  0.68584  1.0000
  H   H421      1.0  0.42032  0.27406  0.69900  1.0000
  C   C245      1.0  0.46674  0.14100  0.60453  1.0000
  C   C246      1.0  0.44934  0.23207  0.56944  1.0000
  C   C247      1.0  0.35499  0.45615  0.96932  1.0000
  S   S61       1.0  0.36388  0.15440  0.65352  1.0000
  C   C248      1.0  0.43700  0.26119  0.56470  1.0000
  Fe  Fe28      1.0  0.32916  0.11772  0.87129  1.0000
  H   H422      1.0  0.51361  0.26167  0.63142  1.0000
  C   C249      1.0  0.42810  0.06403  0.90023  1.0000
  H   H423      1.0  0.49308  0.28530  0.60980  1.0000
  C   C250      1.0  0.43169  0.09325  0.96065  1.0000
  H   H424      1.0  0.47297  0.09716  0.92369  1.0000
  H   H425      1.0  0.48451  0.14279  0.58212  1.0000
  H   H426      1.0  0.56709  0.30211  0.60438  1.0000
  C   C251      1.0  0.44697  0.22781  0.63678  1.0000
  H   H427      1.0  0.33151  0.40679  0.94929  1.0000
  H   H428      1.0  0.53501  0.25078  0.57087  1.0000
  H   H429      1.0  0.42576  0.23529  0.70686  1.0000
  H   H430      1.0  0.45729  0.28541  0.56825  1.0000
  H   H431      1.0  0.47958  0.14264  0.63099  1.0000
  H   H432      1.0  0.46393  0.23083  0.54511  1.0000
  H   H433      1.0  0.42249  0.08395  0.88579  1.0000
  H   H434      1.0  0.47104  0.27269  0.66894  1.0000
  H   H435      1.0  0.54417  0.32383  0.58072  1.0000
  H   H436      1.0  0.60181  0.12506  0.52337  1.0000
  H   H437      1.0  0.44634  0.11649  0.60288  1.0000
  H   H438      1.0  0.51177  0.27224  0.54805  1.0000
  H   H439      1.0  0.43862  0.16464  0.57529  1.0000
  H   H440      1.0  0.45452  0.21387  0.65840  1.0000
  H   H441      1.0  0.41688  0.25877  0.58445  1.0000
  H   H442      1.0  0.42675  0.20933  0.56797  1.0000
  C   C252      1.0  0.60946  0.13561  0.49577  1.0000
  C   C253      1.0  0.49954  0.26295  0.60641  1.0000
  N   N13       1.0  0.46877  0.23212  0.60349  1.0000
  H   H443      1.0  0.40442  0.04429  0.90817  1.0000
  C   C254      1.0  0.44659  0.25952  0.65592  1.0000
  H   H444      1.0  0.40112  0.23780  0.52201  1.0000
  C   C255      1.0  0.55318  0.30287  0.57922  1.0000
  H   H445      1.0  0.34113  0.30430  0.95446  1.0000
  H   H446      1.0  0.39517  0.23766  0.67448  1.0000
  C   C256      1.0  0.48016  0.20301  0.60190  1.0000
  H   H447      1.0  0.64496  0.23092  0.58405  1.0000
  Fe  Fe29      1.0  0.35000  0.13332  0.59603  1.0000
  H   H448      1.0  0.42080  0.21224  0.63011  1.0000
  H   H449      1.0  0.43430  0.16488  0.62381  1.0000
  C   C257      1.0  0.52055  0.19651  0.50374  1.0000
  C   C258      1.0  0.44966  0.07800  0.93358  1.0000
  H   H450      1.0  0.37928  0.18311  0.72455  1.0000
  H   H451      1.0  0.49506  0.20405  0.57712  1.0000
  C   C259      1.0  0.32836  0.10533  0.70289  1.0000
  H   H452      1.0  0.44152  0.05338  0.88124  1.0000
  C   C260      1.0  0.46897  0.20771  0.96467  1.0000
  H   H453      1.0  0.64703  0.10210  0.52365  1.0000
  C   C261      1.0  0.52862  0.23951  0.97383  1.0000
  H   H454      1.0  0.63571  0.25189  0.54525  1.0000
  H   H455      1.0  0.34563  0.23986  0.58219  1.0000
  H   H456      1.0  0.35712  0.22042  0.62051  1.0000
  H   H457      1.0  0.62289  0.17821  0.54851  1.0000
  C   C262      1.0  0.50186  0.22033  0.95155  1.0000
  C   C263      1.0  0.35263  0.14601  0.76369  1.0000
  H   H458      1.0  0.34206  0.25394  0.62744  1.0000
  N   N14       1.0  0.64143  0.16522  0.49841  1.0000
  H   H459      1.0  0.41371  0.28210  0.52407  1.0000
  C   C264      1.0  0.35040  0.13775  0.69756  1.0000
  H   H460      1.0  0.53392  0.18528  0.52085  1.0000
  C   C265      1.0  0.34514  0.41878  0.97395  1.0000
  H   H461      1.0  0.57198  0.15956  0.49464  1.0000
  H   H462      1.0  0.55363  0.24894  0.96314  1.0000
  H   H463      1.0  0.53925  0.18296  0.98878  1.0000
  H   H464      1.0  0.48274  0.14662  0.97028  1.0000
  H   H465      1.0  0.40611  0.07476  0.96412  1.0000
  C   C266      1.0  0.65486  0.24387  0.55819  1.0000
  C   C267      1.0  0.63461  0.19016  0.52265  1.0000
  S   S62       1.0  0.64728  0.31005  0.99003  1.0000
  H   H466      1.0  0.33392  0.35710  0.96936  1.0000
  H   H467      1.0  0.34418  0.00241  0.90814  1.0000
  H   H468      1.0  0.36842  0.41339  0.97540  1.0000
  H   H469      1.0  0.33260  0.46286  0.96610  1.0000
  C   C268      1.0  0.48333  0.12713  0.98983  1.0000
  C   C269      1.0  0.33936  0.23183  0.61074  1.0000
  H   H470      1.0  0.44163  0.26361  0.50566  1.0000
  H   H471      1.0  0.49821  0.11406  0.97657  1.0000
  C   C270      1.0  0.33825  0.29818  0.98384  1.0000
  Fe  Fe30      1.0  0.32832  0.08096  0.53474  1.0000
  C   C271      1.0  0.33090  0.11346  0.76910  1.0000
  H   H472      1.0  0.37055  0.46445  0.94465  1.0000
  C   C272      1.0  0.48543  0.18415  0.50452  1.0000
  H   H473      1.0  0.61665  0.19961  0.50965  1.0000
  H   H474      1.0  0.54158  0.09942  0.50377  1.0000
  H   H475      1.0  0.36943  0.46951  0.99313  1.0000
  H   H476      1.0  0.32755  0.27084  0.98657  1.0000
  H   H477      1.0  0.63188  0.50977  0.41587  1.0000
  C   C273      1.0  0.34788  0.68492  0.40953  1.0000
  H   H478      1.0  0.57397  0.77774  0.13033  1.0000
  C   C274      1.0  0.42721  0.61192  0.39063  1.0000
  H   H479      1.0  0.46289  0.73241  0.45923  1.0000
  H   H480      1.0  0.65312  0.83218  0.19866  1.0000
  S   S63       1.0  0.62710  0.82380  0.43537  1.0000
  H   H481      1.0  0.44887  0.71452  0.01463  1.0000
  Fe  Fe31      1.0  0.62065  0.77504  0.46173  1.0000
  H   H482      1.0  0.63416  0.71313  0.14582  1.0000
  C   C275      1.0  0.43979  0.59360  0.36223  1.0000
  H   H483      1.0  0.52508  0.71548  0.21876  1.0000
  H   H484      1.0  0.44323  0.61512  0.41497  1.0000
  H   H485      1.0  0.39573  0.65762  0.40337  1.0000
  Fe  Fe32      1.0  0.62373  0.78763  0.05400  1.0000
  S   S64       1.0  0.56649  0.76958  0.04939  1.0000
  H   H486      1.0  0.64511  0.56736  0.43879  1.0000
  C   C276      1.0  0.53376  0.74004  0.02384  1.0000
  H   H487      1.0  0.52422  0.75173  0.45161  1.0000
  H   H488      1.0  0.56372  0.85054  0.42245  1.0000
  H   H489      1.0  0.51140  0.70006  0.15648  1.0000
  C   C277      1.0  0.62712  0.51467  0.44452  1.0000
  H   H490      1.0  0.59298  0.77060  0.23202  1.0000
  C   C278      1.0  0.34158  0.58392  0.43850  1.0000
  H   H491      1.0  0.51576  0.80688  0.47944  1.0000
  C   C279      1.0  0.37091  0.63859  0.40909  1.0000
  H   H492      1.0  0.53236  0.72642  0.12005  1.0000
  H   H493      1.0  0.46634  0.60786  0.35625  1.0000
  H   H494      1.0  0.57103  0.80895  0.49238  1.0000
  H   H495      1.0  0.53757  0.73727  0.28749  1.0000
  H   H496      1.0  0.45029  0.73620  0.12437  1.0000
  C   C280      1.0  0.56638  0.80513  0.17684  1.0000
  H   H497      1.0  0.57672  0.85747  0.16879  1.0000
  H   H498      1.0  0.45439  0.69924  0.14256  1.0000
  H   H499      1.0  0.61585  0.68956  0.10597  1.0000
  S   S65       1.0  0.65410  0.75806  0.07359  1.0000
  C   C281      1.0  0.55960  0.75802  0.27748  1.0000
  H   H500      1.0  0.60195  0.78207  0.16649  1.0000
  H   H501      1.0  0.55144  0.80617  0.42645  1.0000
  C   C282      1.0  0.35185  0.65651  0.43119  1.0000
  H   H502      1.0  0.57993  0.76281  0.29769  1.0000
  H   H503      1.0  0.37631  0.58840  0.37377  1.0000
  C   C283      1.0  0.53663  0.82986  0.47211  1.0000
  C   C284      1.0  0.52455  0.72647  0.14885  1.0000
  H   H504      1.0  0.35867  0.63196  0.38213  1.0000
  H   H505      1.0  0.49103  0.74853  0.17488  1.0000
  C   C285      1.0  0.47390  0.71526  0.01018  1.0000
  Fe  Fe33      1.0  0.65349  0.80835  0.38985  1.0000
  H   H506      1.0  0.32950  0.88441  0.03275  1.0000
  N   N15       1.0  0.55443  0.74167  0.17313  1.0000
  C   C286      1.0  0.57526  0.72015  0.17097  1.0000
  C   C287      1.0  0.57102  0.74942  0.24091  1.0000
  C   C288      1.0  0.57510  0.77620  0.16047  1.0000
  H   H507      1.0  0.50940  0.76740  0.13239  1.0000
  H   H508      1.0  0.52876  0.75714  0.21622  1.0000
  H   H509      1.0  0.43767  0.56880  0.37247  1.0000
  H   H510      1.0  0.57794  0.83537  0.12776  1.0000
  H   H511      1.0  0.56261  0.69498  0.11820  1.0000
  C   C289      1.0  0.53930  0.71798  0.99923  1.0000
  S   S66       1.0  0.64308  0.82203  0.33177  1.0000
  H   H512      1.0  0.60139  0.67303  0.15026  1.0000
  H   H513      1.0  0.55344  0.78071  0.27514  1.0000
  H   H514      1.0  0.32662  0.63954  0.43873  1.0000
  H   H515      1.0  0.65514  0.63615  0.43883  1.0000
  H   H516      1.0  0.53950  0.80047  0.17557  1.0000
  H   H517      1.0  0.61160  0.84510  0.16043  1.0000
  C   C290      1.0  0.58432  0.83767  0.15712  1.0000
  H   H518      1.0  0.36566  0.66733  0.45625  1.0000
  C   C291      1.0  0.49881  0.74373  0.14752  1.0000
  C   C292      1.0  0.40520  0.59307  0.48056  1.0000
  S   S67       1.0  0.64365  0.75794  0.41425  1.0000
  C   C293      1.0  0.65047  0.54899  0.45622  1.0000
  C   C294      1.0  0.54373  0.82757  0.43176  1.0000
  H   H519      1.0  0.59458  0.73544  0.11603  1.0000
  C   C295      1.0  0.54297  0.74066  0.21198  1.0000
  C   C296      1.0  0.47770  0.72524  0.47887  1.0000
  C   C297      1.0  0.39017  0.59255  0.39989  1.0000
  H   H520      1.0  0.43070  0.63674  0.37957  1.0000
  H   H521      1.0  0.42541  0.59073  0.33662  1.0000
  H   H522      1.0  0.47363  0.71599  0.09980  1.0000
  N   N16       1.0  0.37468  0.60877  0.42695  1.0000
  H   H523      1.0  0.59911  0.73185  0.18594  1.0000
  C   C298      1.0  0.39615  0.62004  0.46021  1.0000
  C   C299      1.0  0.65220  0.80955  0.28818  1.0000
  H   H524      1.0  0.52096  0.82425  0.41572  1.0000
  C   C300      1.0  0.46743  0.72242  0.12733  1.0000
  H   H525      1.0  0.41932  0.64124  0.45366  1.0000
  H   H526      1.0  0.58972  0.85147  0.48266  1.0000
  H   H527      1.0  0.52879  0.85134  0.47543  1.0000
  H   H528      1.0  0.38782  0.56734  0.40913  1.0000
  H   H529      1.0  0.33334  0.67556  0.38438  1.0000
  H   H530      1.0  0.57397  0.80891  0.20577  1.0000
  C   C301      1.0  0.50087  0.73856  0.02892  1.0000
  C   C302      1.0  0.61060  0.69605  0.13386  1.0000
  H   H531      1.0  0.57908  0.72805  0.24521  1.0000
  H   H532      1.0  0.38333  0.62996  0.48066  1.0000
  S   S68       1.0  0.64318  0.82628  0.09775  1.0000
  H   H533      1.0  0.63589  0.88354  0.00594  1.0000
  H   H534      1.0  0.56228  0.69589  0.18450  1.0000
  C   C303      1.0  0.58466  0.71248  0.13234  1.0000
  H   H535      1.0  0.33143  0.59325  0.46202  1.0000
  H   H536      1.0  0.33442  0.69738  0.42626  1.0000
  C   C304      1.0  0.51259  0.73649  0.47457  1.0000
  H   H537      1.0  0.34466  0.56105  0.44887  1.0000
  H   H538      1.0  0.60094  0.51313  0.44686  1.0000
  H   H539      1.0  0.37258  0.70345  0.40238  1.0000
  S   S69       1.0  0.35050  0.61897  0.00019  1.0000
  H   H540      1.0  0.56431  0.71864  0.99488  1.0000
  H   H541      1.0  0.41391  0.57782  0.46205  1.0000
  H   H542      1.0  0.49616  0.75564  0.04753  1.0000
  H   H543      1.0  0.63913  0.84690  0.26022  1.0000
  C   C305      1.0  0.64809  0.82673  0.25713  1.0000
  C   C306      1.0  0.65590  0.81839  0.22211  1.0000
  H   H544      1.0  0.63048  0.49532  0.46222  1.0000
  H   H545      1.0  0.64408  0.55310  0.48438  1.0000
  H   H546      1.0  0.58651  0.90059  0.49276  1.0000
  H   H547      1.0  0.45623  0.62371  0.49422  1.0000
  H   H548      1.0  0.46719  0.63559  0.72104  1.0000
  S   S70       1.0  0.36944  0.61097  0.57713  1.0000
  C   C307      1.0  0.51635  0.70748  0.52930  1.0000
  Fe  Fe34      1.0  0.37520  0.65902  0.54937  1.0000
  H   H549      1.0  0.40945  0.57204  0.88322  1.0000
  C   C308      1.0  0.50391  0.81333  0.55667  1.0000
  S   S71       1.0  0.35280  0.67729  0.59640  1.0000
  H   H550      1.0  0.54683  0.81100  0.58324  1.0000
  Fe  Fe35      1.0  0.38913  0.64635  0.95849  1.0000
  S   S72       1.0  0.36133  0.67879  0.94002  1.0000
  C   C309      1.0  0.53954  0.81247  0.55443  1.0000
  H   H551      1.0  0.48546  0.68232  0.89226  1.0000
  C   C310      1.0  0.34711  0.62671  0.72515  1.0000
  H   H552      1.0  0.43715  0.59912  0.91631  1.0000
  S   S73       1.0  0.36557  0.60764  0.91553  1.0000
  C   C311      1.0  0.43287  0.60862  0.50818  1.0000
  H   H553      1.0  0.64810  0.79913  0.57427  1.0000
  C   C312      1.0  0.44466  0.64525  0.79049  1.0000
  C   C313      1.0  0.64135  0.82156  0.57427  1.0000
  H   H554      1.0  0.39629  0.67398  0.87166  1.0000
  N   N17       1.0  0.56574  0.84086  0.53508  1.0000
  H   H555      1.0  0.61610  0.84795  0.97732  1.0000
  N   N18       1.0  0.44920  0.66283  0.82668  1.0000
  H   H556      1.0  0.63277  0.88305  0.92267  1.0000
  C   C314      1.0  0.55956  0.87271  0.54046  1.0000
  Fe  Fe36      1.0  0.32485  0.58260  0.95606  1.0000
  Fe  Fe37      1.0  0.33614  0.63867  0.89913  1.0000
  H   H557      1.0  0.51706  0.67783  0.96156  1.0000
  H   H558      1.0  0.46139  0.63091  0.78831  1.0000
  H   H559      1.0  0.33371  0.75536  0.85956  1.0000
  C   C315      1.0  0.44788  0.64695  0.72161  1.0000
  C   C316      1.0  0.43024  0.68616  0.82550  1.0000
  H   H560      1.0  0.45106  0.66303  0.69735  1.0000
  C   C317      1.0  0.62355  0.87523  0.97935  1.0000
  H   H561      1.0  0.43231  0.67963  0.75385  1.0000
  H   H562      1.0  0.42804  0.74708  0.84889  1.0000
  H   H563      1.0  0.45423  0.78240  0.57375  1.0000
  C   C318      1.0  0.33451  0.64291  0.79728  1.0000
  C   C319      1.0  0.47934  0.78092  0.57174  1.0000
  Fe  Fe38      1.0  0.34380  0.62764  0.62270  1.0000
  C   C320      1.0  0.48589  0.68154  0.83208  1.0000
  H   H564      1.0  0.42295  0.62713  0.71993  1.0000
  C   C321      1.0  0.45088  0.66743  0.75606  1.0000
  H   H565      1.0  0.60004  0.85488  0.58033  1.0000
  H   H566      1.0  0.54110  0.72403  0.90046  1.0000
  C   C322      1.0  0.33304  0.65074  0.73123  1.0000
  C   C323      1.0  0.59907  0.84553  0.55201  1.0000
  H   H567      1.0  0.38655  0.71928  0.83728  1.0000
  H   H568      1.0  0.54702  0.72837  0.85199  1.0000
  C   C324      1.0  0.46179  0.70492  0.50832  1.0000
  H   H569      1.0  0.48706  0.77577  0.59916  1.0000
  C   C325      1.0  0.45221  0.61111  0.85992  1.0000
  C   C326      1.0  0.47940  0.69307  0.98573  1.0000
  C   C327      1.0  0.35453  0.61071  0.75545  1.0000
  H   H570      1.0  0.41893  0.62677  0.78812  1.0000
  H   H571      1.0  0.39757  0.73042  0.88392  1.0000
  H   H572      1.0  0.47870  0.62357  0.86744  1.0000
  S   S74       1.0  0.32698  0.65489  0.84182  1.0000
  C   C328      1.0  0.43586  0.58626  0.88995  1.0000
  H   H573      1.0  0.40708  0.67518  0.80917  1.0000
  S   S75       1.0  0.44644  0.66296  0.96102  1.0000
  H   H574      1.0  0.53773  0.78840  0.54205  1.0000
  C   C329      1.0  0.60900  0.81453  0.55320  1.0000
  H   H575      1.0  0.50009  0.66495  0.82752  1.0000
  C   C330      1.0  0.41796  0.69531  0.86207  1.0000
  S   S76       1.0  0.41764  0.69247  0.51260  1.0000
  H   H576      1.0  0.55031  0.92990  0.51520  1.0000
  H   H577      1.0  0.33546  0.72163  0.88698  1.0000
  H   H578      1.0  0.54287  0.68973  0.87423  1.0000
  H   H579      1.0  0.44514  0.70945  0.81125  1.0000
  H   H580      1.0  0.47767  0.76013  0.55343  1.0000
  C   C331      1.0  0.40687  0.72485  0.85760  1.0000
  C   C332      1.0  0.53424  0.71097  0.87404  1.0000
  H   H581      1.0  0.40813  0.62289  0.84969  1.0000
  C   C333      1.0  0.49657  0.69893  0.86915  1.0000
  H   H582      1.0  0.47602  0.68681  0.75633  1.0000
  H   H583      1.0  0.43686  0.70128  0.88378  1.0000
  H   H584      1.0  0.58975  0.79306  0.56621  1.0000
  H   H585      1.0  0.44899  0.56859  0.89300  1.0000
  H   H586      1.0  0.55903  0.87783  0.57006  1.0000
  H   H587      1.0  0.45065  0.59681  0.83463  1.0000
  C   C334      1.0  0.48143  0.69603  0.53348  1.0000
  S   S77       1.0  0.35725  0.61660  0.68076  1.0000
  C   C335      1.0  0.34818  0.61860  0.79123  1.0000
  H   H588      1.0  0.38312  0.57638  0.49542  1.0000
  C   C336      1.0  0.53227  0.72783  0.49987  1.0000
  H   H589      1.0  0.53118  0.70053  0.54910  1.0000
  H   H590      1.0  0.49457  0.81767  0.52993  1.0000
  H   H591      1.0  0.48942  0.72104  0.87064  1.0000
  H   H592      1.0  0.63845  0.82816  0.60284  1.0000
  S   S78       1.0  0.57662  0.74193  0.49664  1.0000
  H   H593      1.0  0.46977  0.68062  0.55640  1.0000
  H   H594      1.0  0.43534  0.64775  0.88258  1.0000
  H   H595      1.0  0.50367  0.83341  0.57526  1.0000
  H   H596      1.0  0.61316  0.80742  0.52532  1.0000
  C   C337      1.0  0.51235  0.69478  0.98033  1.0000
  H   H597      1.0  0.49544  0.70123  0.81125  1.0000
  H   H598      1.0  0.35378  0.60581  0.81406  1.0000
  H   H599      1.0  0.64012  0.87040  0.83339  1.0000
  C   C338      1.0  0.43493  0.63670  0.85542  1.0000
  H   H600      1.0  0.59353  0.95612  0.51523  1.0000
  H   H601      1.0  0.65192  0.91925  0.95086  1.0000
  H   H602      1.0  0.60074  0.88142  0.97838  1.0000
  H   H603      1.0  0.32720  0.66333  0.70835  1.0000
  H   H604      1.0  0.61953  0.86450  0.53699  1.0000
  H   H605      1.0  0.42585  0.62477  0.52726  1.0000
  C   C339      1.0  0.56742  0.83295  0.49546  1.0000
  S   S79       1.0  0.32588  0.63629  0.52044  1.0000
  H   H606      1.0  0.36510  0.59186  0.75114  1.0000
  C   C340      1.0  0.64666  0.89240  0.94811  1.0000
  H   H607      1.0  0.43749  0.58894  0.52409  1.0000
  H   H608      1.0  0.57348  0.93910  0.55739  1.0000
  C   C341      1.0  0.57480  0.93404  0.52800  1.0000
  H   H609      1.0  0.61006  0.91029  0.53437  1.0000
  C   C342      1.0  0.58493  0.90403  0.52243  1.0000
  H   H610      1.0  0.53476  0.87069  0.53020  1.0000
  H   H611      1.0  0.33033  0.94142  0.91370  1.0000
  C   C343      1.0  0.32689  0.65880  0.76703  1.0000
  H   H612      1.0  0.32497  0.96066  0.95556  1.0000
  H   H613      1.0  0.64889  0.91023  0.81248  1.0000
  H   H614      1.0  0.65687  0.91628  0.87859  1.0000
  Fe  Fe39      1.0  0.69803  0.28140  0.43008  1.0000
  H   H615      1.0  0.79058  0.23463  0.04386  1.0000
  S   S80       1.0  0.73641  0.25598  0.43129  1.0000
  Fe  Fe40      1.0  0.68059  0.34375  0.43976  1.0000
  H   H616      1.0  0.69887  0.19186  0.06320  1.0000
  S   S81       1.0  0.70701  0.32704  0.39541  1.0000
  C   C344      1.0  0.90548  0.05049  0.09821  1.0000
  H   H617      1.0  0.84583  0.06277  0.10871  1.0000
  H   H618      1.0  0.76578  0.25858  0.14551  1.0000
  Fe  Fe41      1.0  0.67678  0.35572  0.02221  1.0000
  H   H619      1.0  0.78212  0.17564  0.48056  1.0000
  S   S82       1.0  0.71074  0.33206  0.04663  1.0000
  H   H620      1.0  0.75157  0.26424  0.03246  1.0000
  H   H621      1.0  0.86180  0.11870  0.09202  1.0000
  C   C345      1.0  0.96945  0.19504  0.49211  1.0000
  C   C346      1.0  0.67823  0.31255  0.19489  1.0000
  C   C347      1.0  0.78496  0.46675  0.46967  1.0000
  C   C348      1.0  0.77160  0.22568  0.02322  1.0000
  S   S83       1.0  0.79754  0.17698  0.01234  1.0000
  H   H622      1.0  0.75137  0.36404  0.27837  1.0000
  C   C349      1.0  0.88733  0.12131  0.10062  1.0000
  H   H623      1.0  0.87488  0.06286  0.01593  1.0000
  C   C350      1.0  0.66865  0.19920  0.10896  1.0000
  H   H624      1.0  0.89695  0.17116  0.12015  1.0000
  H   H625      1.0  0.76545  0.20583  0.43127  1.0000
  C   C351      1.0  0.90807  0.15828  0.10103  1.0000
  H   H626      1.0  0.94073  0.05294  0.03418  1.0000
  C   C352      1.0  0.76241  0.21150  0.45932  1.0000
  H   H627      1.0  0.70390  0.30781  0.28238  1.0000
  C   C353      1.0  0.72068  0.45876  0.49100  1.0000
  C   C354      1.0  0.75712  0.17101  0.14149  1.0000
  H   H628      1.0  0.73196  0.39035  0.34900  1.0000
  H   H629      1.0  0.72293  0.46943  0.11307  1.0000
  C   C355      1.0  0.74841  0.23542  0.46743  1.0000
  C   C356      1.0  0.91887  0.03656  0.16172  1.0000
  H   H630      1.0  0.91530  0.08255  0.14592  1.0000
  H   H631      1.0  0.94560  0.04406  0.15463  1.0000
  C   C357      1.0  0.83135  0.01554  0.08250  1.0000
  H   H632      1.0  0.93885  0.09229  0.02139  1.0000
  C   C358      1.0  0.96039  0.28238  0.49297  1.0000
  H   H633      1.0  0.92932  0.11115  0.07828  1.0000
  H   H634      1.0  0.76340  0.35752  0.32375  1.0000
  H   H635      1.0  0.73149  0.21210  0.17181  1.0000
  C   C359      1.0  0.89002  0.05397  0.03493  1.0000
  H   H636      1.0  0.75158  0.20687  0.10489  1.0000
  H   H637      1.0  0.79538  0.01432  0.12460  1.0000
  H   H638      1.0  0.70524  0.26530  0.10523  1.0000
  C   C360      1.0  0.86846  0.17862  0.43765  1.0000
  H   H639      1.0  0.66990  0.15967  0.37477  1.0000
  H   H640      1.0  0.66609  0.18906  0.20290  1.0000
  C   C361      1.0  0.68075  0.23132  0.16514  1.0000
  C   C362      1.0  0.77145  0.30152  0.11361  1.0000
  H   H641      1.0  0.75686  0.31666  0.10456  1.0000
  C   C363      1.0  0.68746  0.30812  0.26034  1.0000
  C   C364      1.0  0.75829  0.43718  0.46113  1.0000
  H   H642      1.0  0.77079  0.16193  0.12110  1.0000
  H   H643      1.0  0.78122  0.29267  0.08948  1.0000
  H   H644      1.0  0.68556  0.19965  0.39604  1.0000
  H   H645      1.0  0.84417  0.16398  0.42518  1.0000
  H   H646      1.0  0.89919  0.11271  0.04679  1.0000
  Fe  Fe42      1.0  0.67289  0.31488  0.09216  1.0000
  C   C365      1.0  0.90199  0.10260  0.07374  1.0000
  H   H647      1.0  0.88603  0.11189  0.12867  1.0000
  H   H648      1.0  0.69712  0.17596  0.16224  1.0000
  C   C366      1.0  0.72586  0.43293  0.47173  1.0000
  H   H649      1.0  0.88277  0.26167  0.99821  1.0000
  S   S84       1.0  0.67481  0.29977  0.47593  1.0000
  C   C367      1.0  0.66699  0.41912  0.24572  1.0000
  H   H650      1.0  0.68194  0.15415  0.43899  1.0000
  H   H651      1.0  0.96589  0.26164  0.48046  1.0000
  C   C368      1.0  0.78251  0.99430  0.99645  1.0000
  H   H652      1.0  0.70297  0.48483  0.03707  1.0000
  H   H653      1.0  0.77560  0.18956  0.15892  1.0000
  H   H654      1.0  0.87611  0.04813  0.14806  1.0000
  C   C369      1.0  0.69936  0.31287  0.22423  1.0000
  H   H655      1.0  0.85782  0.22277  0.44217  1.0000
  H   H656      1.0  0.83733  0.06411  0.06193  1.0000
  C   C370      1.0  0.74989  0.27240  0.13668  1.0000
  H   H657      1.0  0.72510  0.31659  0.21895  1.0000
  C   C371      1.0  0.69849  0.43006  0.34664  1.0000
  S   S85       1.0  0.94032  0.16011  0.00177  1.0000
  C   C372      1.0  0.72059  0.49134  0.06023  1.0000
  C   C373      1.0  0.85021  0.05350  0.08193  1.0000
  H   H658      1.0  0.70181  0.44032  0.07823  1.0000
  C   C374      1.0  0.90237  0.05607  0.13928  1.0000
  H   H659      1.0  0.93254  0.06099  0.09222  1.0000
  C   C375      1.0  0.72547  0.37941  0.32159  1.0000
  H   H660      1.0  0.89819  0.02349  0.09316  1.0000
  H   H661      1.0  0.77747  0.39871  0.30506  1.0000
  C   C376      1.0  0.86472  0.20626  0.46092  1.0000
  H   H662      1.0  0.71802  0.16719  0.10425  1.0000
  H   H663      1.0  0.75202  0.02327  0.00601  1.0000
  Fe  Fe43      1.0  0.67930  0.28557  0.01763  1.0000
  H   H664      1.0  0.69978  0.24590  0.18496  1.0000
  C   C377      1.0  0.75428  0.99939  0.00948  1.0000
  H   H665      1.0  0.91696  0.04154  0.19104  1.0000
  H   H666      1.0  0.91595  0.23563  0.45853  1.0000
  H   H667      1.0  0.68142  0.46557  0.09878  1.0000
  H   H668      1.0  0.79280  0.31752  0.12995  1.0000
  H   H669      1.0  0.90863  0.16912  0.07357  1.0000
  H   H670      1.0  0.95378  0.29656  0.47116  1.0000
  H   H671      1.0  0.84932  0.29167  0.42967  1.0000
  H   H672      1.0  0.94713  0.17775  0.48004  1.0000
  H   H673      1.0  0.83426  0.24844  0.47772  1.0000
  S   S86       1.0  0.69070  0.39686  0.46042  1.0000
  H   H674      1.0  0.81640  0.29361  0.45843  1.0000
  H   H675      1.0  0.74187  0.14975  0.15841  1.0000
  H   H676      1.0  0.70590  0.35458  0.32436  1.0000
  H   H677      1.0  0.67616  0.20258  0.46444  1.0000
  C   C378      1.0  0.74934  0.24231  0.01715  1.0000
  H   H678      1.0  0.72978  0.24310  0.08989  1.0000
  H   H679      1.0  0.87686  0.16175  0.45433  1.0000
  C   C379      1.0  0.71943  0.24983  0.11475  1.0000
  C   C380      1.0  0.70579  0.46523  0.08955  1.0000
  H   H680      1.0  0.89685  0.28083  0.45724  1.0000
  C   C381      1.0  0.71304  0.40102  0.29614  1.0000
  C   C382      1.0  0.89758  0.22568  0.48065  1.0000
  N   N19       1.0  0.88683  0.06517  0.07314  1.0000
  S   S87       1.0  0.69490  0.31858  0.14991  1.0000
  N   N20       1.0  0.69640  0.21948  0.13404  1.0000
  H   H681      1.0  0.76248  0.41916  0.00380  1.0000
  C   C383      1.0  0.77211  0.19449  0.48721  1.0000
  H   H682      1.0  0.74223  0.28295  0.16092  1.0000
  C   C384      1.0  0.67690  0.19869  0.06801  1.0000
  C   C385      1.0  0.71478  0.19869  0.14938  1.0000
  H   H683      1.0  0.88680  0.18913  0.41561  1.0000
  C   C386      1.0  0.84322  0.29716  0.45763  1.0000
  H   H684      1.0  0.93393  0.16262  0.10983  1.0000
  C   C387      1.0  0.73510  0.18656  0.12197  1.0000
  H   H685      1.0  0.73494  0.42300  0.28796  1.0000
  H   H686      1.0  0.70442  0.38584  0.27123  1.0000
  H   H687      1.0  0.87989  0.02657  0.03286  1.0000
  H   H688      1.0  0.66865  0.24838  0.15472  1.0000
  C   C388      1.0  0.75632  0.37472  0.30610  1.0000
  H   H689      1.0  0.68205  0.22352  0.05609  1.0000
  H   H690      1.0  0.84344  0.00301  0.10087  1.0000
  H   H691      1.0  0.74432  0.48919  0.05147  1.0000
  C   C389      1.0  0.85023  0.27392  0.48491  1.0000
  H   H692      1.0  0.85788  0.32333  0.46434  1.0000
  H   H693      1.0  0.91621  0.47386  0.47529  1.0000
  H   H694      1.0  0.84425  0.19493  0.48041  1.0000
  H   H695      1.0  0.76283  0.41777  0.44621  1.0000
  H   H696      1.0  0.78259  0.01991  0.07908  1.0000
  C   C390      1.0  0.88778  0.27875  0.48576  1.0000
  C   C391      1.0  0.66431  0.17574  0.39519  1.0000
  S   S88       1.0  0.84659  0.11935  0.00480  1.0000
  H   H697      1.0  0.72265  0.47739  0.40011  1.0000
  H   H698      1.0  0.80984  0.46965  0.46119  1.0000
  C   C392      1.0  0.76977  0.19782  0.00251  1.0000
  C   C393      1.0  0.92587  0.06515  0.01942  1.0000
  C   C394      1.0  0.98050  0.19215  0.00173  1.0000
  C   C395      1.0  0.77983  0.49240  0.48930  1.0000
  H   H699      1.0  0.72609  0.44222  0.34631  1.0000
  C   C396      1.0  0.79568  0.00704  0.09576  1.0000
  H   H700      1.0  0.66560  0.11379  0.47979  1.0000
  H   H701      1.0  0.83002  0.00501  0.05492  1.0000
  H   H702      1.0  0.90637  0.00959  0.15700  1.0000
  S   S89       1.0  0.69096  0.40819  0.99725  1.0000
  H   H703      1.0  0.69305  0.41223  0.36977  1.0000
  H   H704      1.0  0.70299  0.45640  0.27885  1.0000
  C   C397      1.0  0.68568  0.45806  0.35711  1.0000
  N   N21       1.0  0.68607  0.41194  0.31123  1.0000
  H   H705      1.0  0.69686  0.47961  0.33881  1.0000
  H   H706      1.0  0.68235  0.44997  0.41552  1.0000
  C   C398      1.0  0.69540  0.46993  0.39598  1.0000
  H   H707      1.0  0.68575  0.41149  0.23162  1.0000
  H   H708      1.0  0.68809  0.49146  0.40182  1.0000
  H   H709      1.0  0.68234  0.46612  0.21665  1.0000
  C   C399      1.0  0.67976  0.43464  0.28340  1.0000
  H   H710      1.0  0.99124  0.18104  0.05634  1.0000
  H   H711      1.0  0.66082  0.36577  0.33907  1.0000
  H   H712      1.0  0.66138  0.44509  0.29329  1.0000
  C   C400      1.0  0.65961  0.44393  0.22091  1.0000
  H   H713      1.0  0.65834  0.45007  0.35497  1.0000
  C   C401      1.0  0.65896  0.15891  0.43231  1.0000
  Fe  Fe44      1.0  0.80840  0.14622  0.56418  1.0000
  S   S90       1.0  0.77737  0.17930  0.56008  1.0000
  Fe  Fe45      1.0  0.83221  0.11055  0.62467  1.0000
  S   S91       1.0  0.86427  0.09589  0.58496  1.0000
  S   S92       1.0  0.82729  0.08978  0.68295  1.0000
  Fe  Fe46      1.0  0.88015  0.14768  0.56225  1.0000
  S   S93       1.0  0.93459  0.18410  0.55827  1.0000
  Fe  Fe47      1.0  0.82033  0.08227  0.54652  1.0000
  H   H714      1.0  0.71287  0.43406  0.89532  1.0000
  S   S94       1.0  0.85051  0.16285  0.60453  1.0000
  S   S95       1.0  0.78762  0.09441  0.58729  1.0000
  Fe  Fe48      1.0  0.82809  0.08116  0.96110  1.0000
  S   S96       1.0  0.79857  0.10836  0.93335  1.0000
  H   H715      1.0  0.81858  0.19462  0.88578  1.0000
  Fe  Fe49      1.0  0.89114  0.14490  0.96944  1.0000
  S   S97       1.0  0.86598  0.17608  0.94243  1.0000
  H   H716      1.0  0.84821  0.22602  0.52842  1.0000
  Fe  Fe50      1.0  0.82050  0.14846  0.97522  1.0000
  H   H717      1.0  0.98960  0.32777  0.52123  1.0000
  Fe  Fe51      1.0  0.84570  0.13457  0.90154  1.0000
  S   S98       1.0  0.84711  0.15349  0.84287  1.0000
  H   H718      1.0  0.79635  0.19738  0.92475  1.0000
  S   S99       1.0  0.87405  0.10510  0.92662  1.0000
  H   H719      1.0  0.80250  0.02984  0.64649  1.0000
  H   H720      1.0  0.86204  0.24045  0.84061  1.0000
  H   H721      1.0  0.88221  0.06471  0.70302  1.0000
  H   H722      1.0  0.81789  0.24858  0.77840  1.0000
  C   C402      1.0  0.87438  0.23789  0.53739  1.0000
  C   C403      1.0  0.74506  0.24280  0.50377  1.0000
  S   S100      1.0  0.81545  0.02575  0.97362  1.0000
  H   H723      1.0  0.78570  0.33216  0.93591  1.0000
  H   H724      1.0  0.73302  0.13866  0.86209  1.0000
  H   H725      1.0  0.74279  0.16466  0.96050  1.0000
  C   C404      1.0  0.87790  0.03923  0.71277  1.0000
  H   H726      1.0  0.77399  0.01098  0.88968  1.0000
  H   H727      1.0  0.71684  0.42045  0.84998  1.0000
  H   H728      1.0  0.90043  0.03324  0.70749  1.0000
  H   H729      1.0  0.82149  0.48948  0.83168  1.0000
  C   C405      1.0  0.83324  0.10819  0.72711  1.0000
  C   C406      1.0  0.84214  0.14225  0.73240  1.0000
  C   C407      1.0  0.84631  0.15549  0.76792  1.0000
  C   C408      1.0  0.84179  0.13504  0.79874  1.0000
  C   C409      1.0  0.83297  0.10097  0.79346  1.0000
  C   C410      1.0  0.82868  0.08771  0.75794  1.0000
  H   H730      1.0  0.84581  0.15841  0.70914  1.0000
  H   H731      1.0  0.85324  0.18184  0.77151  1.0000
  H   H732      1.0  0.82936  0.08485  0.81673  1.0000
  H   H733      1.0  0.82172  0.06135  0.75435  1.0000
  C   C411      1.0  0.79058  0.25602  0.91146  1.0000
  H   H734      1.0  0.90066  0.30376  0.49757  1.0000
  H   H735      1.0  0.80274  0.30472  0.88575  1.0000
  H   H736      1.0  0.83698  0.02619  0.58425  1.0000
  C   C412      1.0  0.75948  0.48096  0.82300  1.0000
  H   H737      1.0  0.85721  0.27920  0.79252  1.0000
  N   N22       1.0  0.81430  0.24253  0.89323  1.0000
  H   H738      1.0  0.87456  0.00754  0.64795  1.0000
  H   H739      1.0  0.66772  0.15767  0.54606  1.0000
  H   H740      1.0  0.82697  0.30548  0.92572  1.0000
  C   C413      1.0  0.74992  0.99595  0.90234  1.0000
  C   C414      1.0  0.75460  0.22572  0.53164  1.0000
  H   H741      1.0  0.77801  0.01809  0.58835  1.0000
  H   H742      1.0  0.91198  0.06841  0.96311  1.0000
  H   H743      1.0  0.69708  0.45041  0.85758  1.0000
  H   H744      1.0  0.76762  0.19555  0.84745  1.0000
  C   C415      1.0  0.81849  0.25372  0.85416  1.0000
  C   C416      1.0  0.80031  0.20530  0.89592  1.0000
  C   C417      1.0  0.75103  0.47010  0.86312  1.0000
  C   C418      1.0  0.77792  0.30481  0.93611  1.0000
  H   H745      1.0  0.73692  0.00895  0.53759  1.0000
  H   H746      1.0  0.69350  0.17369  0.50795  1.0000
  H   H747      1.0  0.83235  0.28086  0.85265  1.0000
  C   C419      1.0  0.72827  0.44110  0.98406  1.0000
  H   H748      1.0  0.78464  0.24582  0.93936  1.0000
  C   C420      1.0  0.77271  0.99539  0.50755  1.0000
  C   C421      1.0  0.74508  0.18652  0.97596  1.0000
  C   C422      1.0  0.84757  0.01434  0.69402  1.0000
  H   H749      1.0  0.83467  0.26668  0.96638  1.0000
  C   C423      1.0  0.76667  0.18787  0.87622  1.0000
  C   C424      1.0  0.84799  0.25501  0.91130  1.0000
  C   C425      1.0  0.84809  0.25214  0.95330  1.0000
  S   S101      1.0  0.80694  0.03392  0.51294  1.0000
  C   C426      1.0  0.66860  0.15581  0.51592  1.0000
  H   H750      1.0  0.77613  0.14309  0.86268  1.0000
  H   H751      1.0  0.79399  0.24998  0.84144  1.0000
  H   H752      1.0  0.75151  0.23140  0.55968  1.0000
  C   C427      1.0  0.84223  0.25235  0.79138  1.0000
  C   C428      1.0  0.83722  0.23726  0.82941  1.0000
  C   C429      1.0  0.88350  0.26494  0.96828  1.0000
  H   H753      1.0  0.74872  0.00645  0.92954  1.0000
  H   H754      1.0  0.86190  0.28132  0.90411  1.0000
  H   H755      1.0  0.73633  0.48016  0.80937  1.0000
  H   H756      1.0  0.93337  0.29005  0.53901  1.0000
  H   H757      1.0  0.82304  0.21040  0.82635  1.0000
  H   H758      1.0  0.77777  0.29658  0.96468  1.0000
  H   H759      1.0  0.75389  0.14095  0.90485  1.0000
  H   H760      1.0  0.81296  0.46683  0.98616  1.0000
  H   H761      1.0  0.77006  0.46104  0.87455  1.0000
  H   H762      1.0  0.70146  0.47000  0.96143  1.0000
  C   C430      1.0  0.83222  0.99982  0.59058  1.0000
  H   H763      1.0  0.76629  0.24764  0.89708  1.0000
  C   C431      1.0  0.80200  0.29423  0.91338  1.0000
  S   S102      1.0  0.83861  0.13351  0.52090  1.0000
  H   H764      1.0  0.67554  0.23598  0.50803  1.0000
  C   C432      1.0  0.72581  0.46925  0.96695  1.0000
  H   H765      1.0  0.72947  0.99778  0.88521  1.0000
  C   C433      1.0  0.78864  0.46767  0.98067  1.0000
  C   C434      1.0  0.72269  0.20302  0.97007  1.0000
  H   H766      1.0  0.70425  0.12329  0.55179  1.0000
  C   C435      1.0  0.87579  0.26215  0.56894  1.0000
  H   H767      1.0  0.91330  0.02861  0.97585  1.0000
  C   C436      1.0  0.93192  0.26892  0.52114  1.0000
  C   C437      1.0  0.75696  0.15036  0.87658  1.0000
  C   C438      1.0  0.73690  0.00462  0.62512  1.0000
  C   C439      1.0  0.84405  0.25080  0.59158  1.0000
  H   H768      1.0  0.84197  0.27923  0.51191  1.0000
  H   H769      1.0  0.88056  0.21716  0.54933  1.0000
  H   H770      1.0  0.75068  0.49097  0.88020  1.0000
  H   H771      1.0  0.89822  0.25097  0.95660  1.0000
  H   H772      1.0  0.76598  0.46111  0.80946  1.0000
  C   C440      1.0  0.76801  0.20137  0.52360  1.0000
  H   H773      1.0  0.71885  0.00279  0.60298  1.0000
  H   H774      1.0  0.75227  0.29412  0.92504  1.0000
  C   C441      1.0  0.66820  0.12034  0.50891  1.0000
  H   H775      1.0  0.72170  0.13220  0.50669  1.0000
  C   C442      1.0  0.97005  0.20190  0.52931  1.0000
  H   H776      1.0  0.89688  0.26388  0.58721  1.0000
  H   H777      1.0  0.87983  0.28739  0.55878  1.0000
  H   H778      1.0  0.70356  0.19395  0.94960  1.0000
  H   H779      1.0  0.86018  0.04105  0.64305  1.0000
  H   H780      1.0  0.74645  0.19354  0.88992  1.0000
  H   H781      1.0  0.86357  0.24132  0.90088  1.0000
  H   H782      1.0  0.88590  0.00856  0.59054  1.0000
  H   H783      1.0  0.85568  0.24018  0.77430  1.0000
  S   S103      1.0  0.69570  0.25069  0.98213  1.0000
  H   H784      1.0  0.84670  0.26806  0.61460  1.0000
  H   H785      1.0  0.82253  0.25050  0.57483  1.0000
  H   H786      1.0  0.83906  0.22571  0.60274  1.0000
  H   H787      1.0  0.83621  0.22612  0.96190  1.0000
  H   H788      1.0  0.87193  0.02375  0.52948  1.0000
  C   C443      1.0  0.76000  0.44050  0.99072  1.0000
  H   H789      1.0  0.89599  0.29163  0.96204  1.0000
  H   H790      1.0  0.73541  0.26191  0.51043  1.0000
  H   H791      1.0  0.93823  0.25116  0.53887  1.0000
  C   C444      1.0  0.71736  0.44204  0.86651  1.0000
  H   H792      1.0  0.68454  0.21480  0.54647  1.0000
  H   H793      1.0  0.95134  0.06357  0.96909  1.0000
  H   H794      1.0  0.87363  0.03863  0.74253  1.0000
  C   C445      1.0  0.72449  0.23083  0.99082  1.0000
  C   C446      1.0  0.76738  0.99914  0.60971  1.0000
  N   N23       1.0  0.89720  0.25295  0.50590  1.0000
  C   C447      1.0  0.92549  0.05575  0.97943  1.0000
  H   H795      1.0  0.97835  0.20916  0.94729  1.0000
  H   H796      1.0  0.82576  0.02080  0.70148  1.0000
  H   H797      1.0  0.74415  0.02961  0.63748  1.0000
  H   H798      1.0  0.67689  0.26626  0.56435  1.0000
  C   C448      1.0  0.66493  0.22135  0.53266  1.0000
  C   C449      1.0  0.69999  0.11640  0.52266  1.0000
  C   C450      1.0  0.79389  0.00311  0.63953  1.0000
  C   C451      1.0  0.85264  0.01480  0.65222  1.0000
  H   H799      1.0  0.69811  0.09031  0.51961  1.0000
  C   C452      1.0  0.86780  0.99762  0.53648  1.0000
  C   C453      1.0  0.74742  0.48806  0.50006  1.0000
  H   H800      1.0  0.69579  0.45582  0.49947  1.0000
  H   H801      1.0  0.90570  0.20759  0.49574  1.0000
  Fe  Fe52      1.0  0.69249  0.78232  0.44335  1.0000
  C   C454      1.0  0.70127  0.62721  0.43037  1.0000
  H   H802      1.0  0.99122  0.80303  0.05212  1.0000
  Fe  Fe53      1.0  0.67691  0.84470  0.46334  1.0000
  H   H803      1.0  0.79667  0.69261  0.48344  1.0000
  S   S104      1.0  0.70358  0.83215  0.41637  1.0000
  H   H804      1.0  0.85198  0.65694  0.04618  1.0000
  Fe  Fe54      1.0  0.69507  0.79031  0.03750  1.0000
  H   H805      1.0  0.72020  0.52740  0.99985  1.0000
  Fe  Fe55      1.0  0.68503  0.85393  0.05969  1.0000
  N   N24       1.0  0.89822  0.75564  0.00510  1.0000
  S   S105      1.0  0.71840  0.82824  0.08101  1.0000
  C   C455      1.0  0.92461  0.59435  0.48160  1.0000
  C   C456      1.0  0.73102  0.94203  0.03164  1.0000
  C   C457      1.0  0.97410  0.70063  0.00777  1.0000
  H   H806      1.0  0.74980  0.76996  0.34068  1.0000
  S   S106      1.0  0.73333  0.76020  0.44114  1.0000
  C   C458      1.0  0.75272  0.59202  0.10636  1.0000
  C   C459      1.0  0.84710  0.91700  0.30327  1.0000
  N   N25       1.0  0.71333  0.58262  0.46868  1.0000
  H   H807      1.0  0.76174  0.91324  0.02264  1.0000
  H   H808      1.0  0.72945  0.72893  0.05215  1.0000
  C   C460      1.0  0.76160  0.56460  0.44731  1.0000
  H   H809      1.0  0.83764  0.80877  0.02857  1.0000
  H   H810      1.0  0.68998  0.52952  0.46334  1.0000
  H   H811      1.0  0.72475  0.85168  0.18929  1.0000
  C   C461      1.0  0.83545  0.79058  0.05059  1.0000
  H   H812      1.0  0.74069  0.59542  0.41812  1.0000
  C   C462      1.0  0.80212  0.55810  0.06537  1.0000
  H   H813      1.0  0.98255  0.61272  0.42141  1.0000
  H   H814      1.0  0.75386  0.68495  0.05200  1.0000
  C   C463      1.0  0.71991  0.54914  0.01552  1.0000
  H   H815      1.0  0.85359  0.71155  0.00672  1.0000
  C   C464      1.0  0.76134  0.62810  0.11751  1.0000
  H   H816      1.0  0.75566  0.91943  0.46733  1.0000
  C   C465      1.0  0.74145  0.72450  0.02800  1.0000
  C   C466      1.0  0.77735  0.96978  0.48731  1.0000
  H   H817      1.0  0.80108  0.55336  0.42083  1.0000
  H   H818      1.0  0.86474  0.57383  0.44346  1.0000
  H   H819      1.0  0.77288  0.53307  0.01913  1.0000
  H   H820      1.0  0.69232  0.67013  0.45168  1.0000
  C   C467      1.0  0.77086  0.69327  0.99657  1.0000
  C   C468      1.0  0.70339  0.61264  0.46838  1.0000
  H   H821      1.0  0.70035  0.87531  0.29649  1.0000
  C   C469      1.0  0.77582  0.55524  0.03572  1.0000
  H   H822      1.0  0.96055  0.49532  0.47688  1.0000
  H   H823      1.0  0.74034  0.52962  0.10007  1.0000
  H   H824      1.0  0.78758  0.57633  0.01701  1.0000
  H   H825      1.0  0.81210  0.58381  0.07583  1.0000
  C   C470      1.0  0.67122  0.77497  0.24863  1.0000
  C   C471      1.0  0.85523  0.67813  0.06445  1.0000
  H   H826      1.0  0.90746  0.70223  0.05386  1.0000
  H   H827      1.0  0.70703  0.97768  0.03676  1.0000
  N   N26       1.0  0.74234  0.55468  0.04838  1.0000
  C   C472      1.0  0.98639  0.62046  0.48129  1.0000
  C   C473      1.0  0.95838  0.79942  0.00575  1.0000
  H   H828      1.0  0.74066  0.63666  0.11068  1.0000
  H   H829      1.0  0.88745  0.72840  0.07223  1.0000
  H   H830      1.0  0.77865  0.57100  0.39110  1.0000
  C   C474      1.0  0.74316  0.74364  0.99693  1.0000
  H   H831      1.0  0.71795  0.78375  0.35783  1.0000
  H   H832      1.0  0.73378  0.80226  0.29428  1.0000
  H   H833      1.0  0.76432  0.60808  0.05041  1.0000
  H   H834      1.0  0.96984  0.71567  0.44176  1.0000
  H   H835      1.0  0.83202  0.68366  0.06451  1.0000
  H   H836      1.0  0.70135  0.52696  0.08287  1.0000
  H   H837      1.0  0.73397  0.89911  0.23061  1.0000
  C   C475      1.0  0.88462  0.70842  0.05232  1.0000
  C   C476      1.0  0.78905  0.57206  0.41883  1.0000
  H   H838      1.0  0.89873  0.78426  0.05365  1.0000
  H   H839      1.0  0.80829  0.59688  0.42346  1.0000
  H   H840      1.0  0.85968  0.67098  0.09235  1.0000
  H   H841      1.0  0.80884  0.77943  0.05840  1.0000
  H   H842      1.0  0.92160  0.57722  0.42478  1.0000
  C   C477      1.0  0.74522  0.58746  0.06511  1.0000
  S   S107      1.0  0.66325  0.81747  0.01469  1.0000
  H   H843      1.0  0.78367  0.73135  0.44155  1.0000
  H   H844      1.0  0.68959  0.60745  0.41022  1.0000
  C   C478      1.0  0.95947  0.55943  0.47601  1.0000
  H   H845      1.0  0.76853  0.85812  0.19086  1.0000
  H   H846      1.0  0.85047  0.55370  0.07142  1.0000
  H   H847      1.0  0.98029  0.64324  0.48405  1.0000
  H   H848      1.0  0.84996  0.80344  0.07458  1.0000
  H   H849      1.0  0.67057  0.89826  0.33994  1.0000
  C   C479      1.0  0.98335  0.71629  0.46666  1.0000
  H   H850      1.0  0.72340  0.59963  0.00035  1.0000
  H   H851      1.0  0.78195  0.97998  0.09344  1.0000
  H   H852      1.0  0.69361  0.54316  0.02409  1.0000
  H   H853      1.0  0.75472  0.88915  0.17145  1.0000
  S   S108      1.0  0.69745  0.90994  0.05271  1.0000
  C   C480      1.0  0.74511  0.59107  0.44710  1.0000
  C   C481      1.0  0.74426  0.79209  0.34879  1.0000
  H   H854      1.0  0.74329  0.53950  0.44185  1.0000
  C   C482      1.0  0.69474  0.91821  0.34589  1.0000
  H   H855      1.0  0.95056  0.68407  0.01812  1.0000
  H   H856      1.0  0.86783  0.90784  0.29948  1.0000
  H   H857      1.0  0.78422  0.64415  0.10341  1.0000
  H   H858      1.0  0.76577  0.63067  0.14724  1.0000
  N   N27       1.0  0.75023  0.87486  0.29976  1.0000
  C   C483      1.0  0.74624  0.86138  0.26155  1.0000
  C   C484      1.0  0.74184  0.84684  0.32705  1.0000
  C   C485      1.0  0.72565  0.89211  0.30464  1.0000
  C   C486      1.0  0.78451  0.89989  0.30656  1.0000
  C   C487      1.0  0.81393  0.88816  0.30022  1.0000
  C   C488      1.0  0.75266  0.88701  0.23037  1.0000
  C   C489      1.0  0.72306  0.90497  0.34346  1.0000
  C   C490      1.0  0.75012  0.81592  0.31674  1.0000
  H   H859      1.0  0.77319  0.56433  0.47410  1.0000
  H   H860      1.0  0.93620  0.62177  0.43051  1.0000
  C   C491      1.0  0.75003  0.87038  0.19333  1.0000
  C   C492      1.0  0.75144  0.93871  0.48284  1.0000
  H   H861      1.0  0.72062  0.84311  0.25792  1.0000
  H   H862      1.0  0.76269  0.84726  0.25645  1.0000
  H   H863      1.0  0.75380  0.85609  0.35368  1.0000
  H   H864      1.0  0.71463  0.83685  0.33260  1.0000
  H   H865      1.0  0.84306  0.74506  0.05965  1.0000
  H   H866      1.0  0.73179  0.91407  0.28664  1.0000
  H   H867      1.0  0.78863  0.92257  0.29012  1.0000
  H   H868      1.0  0.78687  0.90842  0.33524  1.0000
  H   H869      1.0  0.81301  0.87709  0.27299  1.0000
  H   H870      1.0  0.81395  0.86994  0.32137  1.0000
  H   H871      1.0  0.93789  0.75900  0.04296  1.0000
  H   H872      1.0  0.77786  0.90618  0.23248  1.0000
  H   H873      1.0  0.74631  0.92546  0.35096  1.0000
  H   H874      1.0  0.71815  0.88522  0.36405  1.0000
  C   C493      1.0  0.84755  0.76346  0.03746  1.0000
  H   H875      1.0  0.77611  0.82239  0.30778  1.0000
  Fe  Fe56      1.0  0.67478  0.79805  0.11590  1.0000
  C   C494      1.0  0.75532  0.69955  0.02781  1.0000
  H   H876      1.0  0.76066  0.80409  0.37195  1.0000
  H   H877      1.0  0.84314  0.56727  0.02713  1.0000
  H   H878      1.0  0.88002  0.61843  0.44768  1.0000
  C   C495      1.0  0.68738  0.55238  0.45215  1.0000
  C   C496      1.0  0.66748  0.79235  0.21763  1.0000
  H   H879      1.0  0.69360  0.92738  0.37382  1.0000
  H   H880      1.0  0.73040  0.57691  0.12203  1.0000
  C   C497      1.0  0.75943  0.93708  0.01899  1.0000
  H   H881      1.0  0.80123  0.97400  0.47491  1.0000
  H   H882      1.0  0.84974  0.92870  0.33049  1.0000
  H   H883      1.0  0.68022  0.75483  0.24557  1.0000
  C   C498      1.0  0.88366  0.59731  0.43368  1.0000
  H   H884      1.0  0.72149  0.59194  0.06176  1.0000
  C   C499      1.0  0.72879  0.97344  0.02698  1.0000
  H   H885      1.0  0.72669  0.64207  0.42071  1.0000
  H   H886      1.0  0.69151  0.55131  0.42240  1.0000
  C   C500      1.0  0.66372  0.78351  0.28365  1.0000
  H   H887      1.0  0.90675  0.52645  0.47647  1.0000
  H   H888      1.0  0.77351  0.58439  0.11463  1.0000
  C   C501      1.0  0.72605  0.52662  0.07451  1.0000
  C   C502      1.0  0.76866  0.72249  0.46554  1.0000
  H   H889      1.0  0.87993  0.59965  0.40414  1.0000
  S   S109      1.0  0.78786  0.66149  0.99801  1.0000
  C   C503      1.0  0.91871  0.59769  0.44065  1.0000
  H   H890      1.0  0.66690  0.76995  0.30715  1.0000
  C   C504      1.0  0.88042  0.71934  0.01292  1.0000
  H   H891      1.0  0.94869  0.81788  0.01700  1.0000
  C   C505      1.0  0.83145  0.55044  0.04999  1.0000
  C   C506      1.0  0.78484  0.96296  0.00134  1.0000
  H   H892      1.0  0.96036  0.56062  0.44597  1.0000
  H   H893      1.0  0.82315  0.52450  0.04016  1.0000
  C   C507      1.0  0.77614  0.70054  0.48929  1.0000
  H   H894      1.0  0.84908  0.93586  0.28207  1.0000
  C   C508      1.0  0.74202  0.73312  0.47257  1.0000
  S   S110      1.0  0.67831  0.78081  0.17436  1.0000
  C   C509      1.0  0.88514  0.77762  0.02738  1.0000
  H   H895      1.0  0.83147  0.75080  0.01456  1.0000
  C   C510      1.0  0.93455  0.76357  0.01377  1.0000
  H   H896      1.0  0.89039  0.80169  0.01322  1.0000
  H   H897      1.0  0.69871  0.93892  0.32652  1.0000
  H   H898      1.0  0.76396  0.61471  0.45706  1.0000
  H   H899      1.0  0.79201  0.54071  0.08810  1.0000
  S   S111      1.0  0.66941  0.79646  0.49215  1.0000
  H   H900      1.0  0.90292  0.57384  0.49280  1.0000
  C   C511      1.0  0.93119  0.52643  0.48585  1.0000
  H   H901      1.0  0.92293  0.61680  0.49425  1.0000
  S   S112      1.0  0.72637  0.77561  0.99547  1.0000
  H   H902      1.0  0.98347  0.55733  0.48443  1.0000
  N   N28       1.0  0.95676  0.59036  0.49213  1.0000
  H   H903      1.0  0.68210  0.66176  0.40452  1.0000
  C   C512      1.0  0.68143  0.65014  0.43153  1.0000
  H   H904      1.0  0.93695  0.49966  0.43774  1.0000
  C   C513      1.0  0.93671  0.49713  0.46776  1.0000
  H   H905      1.0  0.94410  0.74673  0.99846  1.0000
  H   H906      1.0  0.67939  0.60775  0.48239  1.0000
  H   H907      1.0  0.72150  0.63288  0.48440  1.0000
  Fe  Fe57      1.0  0.80585  0.63906  0.54975  1.0000
  S   S113      1.0  0.76380  0.65953  0.55014  1.0000
  Fe  Fe58      1.0  0.84654  0.61513  0.60294  1.0000
  S   S114      1.0  0.87298  0.60012  0.55721  1.0000
  S   S115      1.0  0.86330  0.60687  0.66019  1.0000
  Fe  Fe59      1.0  0.87800  0.64840  0.53080  1.0000
  H   H908      1.0  0.92453  0.71854  0.56157  1.0000
  Fe  Fe60      1.0  0.82300  0.57793  0.53002  1.0000
  H   H909      1.0  0.74831  0.58539  0.85776  1.0000
  S   S116      1.0  0.85467  0.66504  0.57809  1.0000
  S   S117      1.0  0.79625  0.58969  0.57753  1.0000
  Fe  Fe61      1.0  0.83430  0.58453  0.93811  1.0000
  S   S118      1.0  0.79574  0.60324  0.91676  1.0000
  S   S119      1.0  0.82326  0.52994  0.95285  1.0000
  Fe  Fe62      1.0  0.88985  0.65474  0.93556  1.0000
  S   S120      1.0  0.85372  0.67698  0.91359  1.0000
  S   S121      1.0  0.94433  0.69074  0.93873  1.0000
  Fe  Fe63      1.0  0.81774  0.64610  0.95503  1.0000
  H   H910      1.0  0.72081  0.94488  0.95581  1.0000
  Fe  Fe64      1.0  0.83503  0.63252  0.87673  1.0000
  S   S122      1.0  0.81884  0.63709  0.81816  1.0000
  C   C514      1.0  0.95701  0.74492  0.69242  1.0000
  S   S123      1.0  0.87291  0.61181  0.89613  1.0000
  H   H911      1.0  0.84676  0.56570  0.83648  1.0000
  S   S124      1.0  0.82928  0.62560  0.50081  1.0000
  H   H912      1.0  0.83624  0.69928  0.71878  1.0000
  H   H913      1.0  0.78643  0.49978  0.70490  1.0000
  C   C515      1.0  0.75898  0.73753  0.96583  1.0000
  H   H914      1.0  0.76743  0.87798  0.61202  1.0000
  S   S125      1.0  0.85464  0.62576  0.97890  1.0000
  H   H915      1.0  0.81123  0.98589  0.57264  1.0000
  C   C516      1.0  0.66009  0.89446  0.82726  1.0000
  H   H916      1.0  0.68945  0.88973  0.97677  1.0000
  H   H917      1.0  0.79352  0.93437  0.58849  1.0000
  C   C517      1.0  0.76947  0.52057  0.75147  1.0000
  H   H918      1.0  0.96253  0.74056  0.72111  1.0000
  H   H919      1.0  0.93365  0.76331  0.62863  1.0000
  C   C518      1.0  0.86278  0.99208  0.57734  1.0000
  C   C519      1.0  0.84984  0.61443  0.70394  1.0000
  C   C520      1.0  0.82298  0.62486  0.70863  1.0000
  C   C521      1.0  0.81360  0.63102  0.74380  1.0000
  C   C522      1.0  0.83109  0.62726  0.77476  1.0000
  C   C523      1.0  0.85778  0.61653  0.77012  1.0000
  C   C524      1.0  0.86697  0.61004  0.73495  1.0000
  H   H920      1.0  0.80944  0.62824  0.68517  1.0000
  H   H921      1.0  0.79288  0.63924  0.74700  1.0000
  H   H922      1.0  0.87167  0.61374  0.79354  1.0000
  H   H923      1.0  0.88777  0.60195  0.73171  1.0000
  C   C525      1.0  0.74750  0.96000  0.90556  1.0000
  H   H924      1.0  0.87309  0.74702  0.89441  1.0000
  H   H925      1.0  0.77493  0.85875  0.95634  1.0000
  C   C526      1.0  0.78759  0.89645  0.62781  1.0000
  C   C527      1.0  0.72282  0.72142  0.50370  1.0000
  H   H926      1.0  0.78394  0.70756  0.94111  1.0000
  H   H927      1.0  0.68427  0.55977  0.59309  1.0000
  C   C528      1.0  0.75692  0.68885  0.52041  1.0000
  H   H928      1.0  0.74808  0.95026  0.87786  1.0000
  H   H929      1.0  0.86910  0.54056  0.88736  1.0000
  C   C529      1.0  0.81637  0.95769  0.64029  1.0000
  H   H930      1.0  0.93394  0.68293  0.72242  1.0000
  H   H931      1.0  0.83626  0.75713  0.89870  1.0000
  H   H932      1.0  0.74589  0.90205  0.95607  1.0000
  C   C530      1.0  0.78909  0.93125  0.61812  1.0000
  C   C531      1.0  0.85016  0.54178  0.83253  1.0000
  C   C532      1.0  0.77253  0.71236  0.96551  1.0000
  C   C533      1.0  0.88900  0.70949  0.72792  1.0000
  H   H933      1.0  0.71397  0.84255  0.95376  1.0000
  H   H934      1.0  0.69561  0.94766  0.91965  1.0000
  C   C534      1.0  0.93505  0.74254  0.57594  1.0000
  C   C535      1.0  0.89729  0.71213  0.68676  1.0000
  C   C536      1.0  0.71587  0.93865  0.92660  1.0000
  H   H935      1.0  0.88182  0.51667  0.85437  1.0000
  H   H936      1.0  0.71060  0.56942  0.83170  1.0000
  H   H937      1.0  0.71435  0.89101  0.86553  1.0000
  H   H938      1.0  0.87816  0.69060  0.67317  1.0000
  H   H939      1.0  0.81140  0.89343  0.62095  1.0000
  H   H940      1.0  0.88512  0.68423  0.73793  1.0000
  H   H941      1.0  0.72973  0.52830  0.80311  1.0000
  H   H942      1.0  0.75903  0.97455  0.59669  1.0000
  H   H943      1.0  0.84351  0.73094  0.95491  1.0000
  C   C537      1.0  0.74138  0.53940  0.82898  1.0000
  H   H944      1.0  0.94654  0.76494  0.69386  1.0000
  H   H945      1.0  0.71643  0.54676  0.57504  1.0000
  C   C538      1.0  0.96948  0.67873  0.68478  1.0000
  H   H946      1.0  0.74626  0.49867  0.75373  1.0000
  H   H947      1.0  0.80447  0.54439  0.70814  1.0000
  H   H948      1.0  0.69154  0.95420  0.53067  1.0000
  H   H949      1.0  0.96259  0.75149  0.57448  1.0000
  H   H950      1.0  0.66188  0.84205  0.56131  1.0000
  C   C539      1.0  0.70673  0.56826  0.95403  1.0000
  H   H951      1.0  0.92649  0.76065  0.56176  1.0000
  H   H952      1.0  0.89297  0.73447  0.67676  1.0000
  N   N29       1.0  0.70527  0.90177  0.92127  1.0000
  H   H953      1.0  0.76416  0.54343  0.75649  1.0000
  H   H954      1.0  0.75199  0.51783  0.94407  1.0000
  H   H955      1.0  0.79400  0.56587  0.81813  1.0000
  H   H956      1.0  0.91661  0.68770  0.62584  1.0000
  H   H957      1.0  0.88986  0.99213  0.52768  1.0000
  C   C540      1.0  0.73738  0.57289  0.83209  1.0000
  H   H958      1.0  0.68198  0.58825  0.53585  1.0000
  H   H959      1.0  0.81746  0.54254  0.77390  1.0000
  C   C541      1.0  0.72111  0.57585  0.50720  1.0000
  C   C542      1.0  0.69273  0.56859  0.53530  1.0000
  H   H960      1.0  0.74300  0.50707  0.51573  1.0000
  H   H961      1.0  0.75571  0.82105  0.93129  1.0000
  H   H962      1.0  0.71496  0.69024  0.55115  1.0000
  H   H963      1.0  0.97577  0.60084  0.60596  1.0000
  C   C543      1.0  0.73016  0.69931  0.52733  1.0000
  H   H964      1.0  0.80840  0.95325  0.66910  1.0000
  H   H965      1.0  0.67303  0.54442  0.52929  1.0000
  H   H966      1.0  0.76997  0.95987  0.92027  1.0000
  C   C544      1.0  0.71551  0.95831  0.51855  1.0000
  H   H967      1.0  0.71483  0.84223  0.90483  1.0000
  H   H968      1.0  0.76037  0.75209  0.94162  1.0000
  C   C545      1.0  0.87689  0.53982  0.85875  1.0000
  H   H969      1.0  0.85984  0.54118  0.80474  1.0000
  H   H970      1.0  0.77688  0.85894  0.90714  1.0000
  C   C546      1.0  0.76112  0.84812  0.93110  1.0000
  C   C547      1.0  0.93620  0.68339  0.69236  1.0000
  C   C548      1.0  0.69331  0.89089  0.88312  1.0000
  H   H971      1.0  0.72459  0.98562  0.64592  1.0000
  H   H972      1.0  0.89582  0.73128  0.61501  1.0000
  H   H973      1.0  0.85021  0.71101  0.76453  1.0000
  H   H974      1.0  0.90920  0.72744  0.74402  1.0000
  H   H975      1.0  0.94477  0.63102  0.54706  1.0000
  C   C549      1.0  0.72855  0.85451  0.92945  1.0000
  C   C550      1.0  0.70527  0.56617  0.57362  1.0000
  C   C551      1.0  0.96790  0.64452  0.69719  1.0000
  C   C552      1.0  0.96231  0.61897  0.55528  1.0000
  H   H976      1.0  0.91589  0.66098  0.68253  1.0000
  H   H977      1.0  0.71291  0.58977  0.93534  1.0000
  H   H978      1.0  0.78232  0.89142  0.65717  1.0000
  H   H979      1.0  0.96266  0.64125  0.72676  1.0000
  H   H980      1.0  0.74964  0.58899  0.80885  1.0000
  C   C553      1.0  0.78146  0.52241  0.71220  1.0000
  C   C554      1.0  0.67884  0.88442  0.94885  1.0000
  C   C555      1.0  0.95754  0.61156  0.59588  1.0000
  C   C556      1.0  0.77844  0.54263  0.83196  1.0000
  N   N30       1.0  0.93183  0.71375  0.67667  1.0000
  C   C557      1.0  0.79645  0.51876  0.77818  1.0000
  C   C558      1.0  0.85701  0.71589  0.73543  1.0000
  H   H981      1.0  0.90640  0.74591  0.94902  1.0000
  H   H982      1.0  0.97083  0.69112  0.55449  1.0000
  H   H983      1.0  0.98975  0.69722  0.70033  1.0000
  C   C559      1.0  0.97779  0.70723  0.97047  1.0000
  H   H984      1.0  0.76442  0.93236  0.62455  1.0000
  H   H985      1.0  0.83958  0.95212  0.63882  1.0000
  H   H986      1.0  0.90032  0.56116  0.85417  1.0000
  H   H987      1.0  0.95833  0.71451  0.62625  1.0000
  H   H988      1.0  0.86040  0.74198  0.72925  1.0000
  H   H989      1.0  0.88942  0.70410  0.99428  1.0000
  C   C560      1.0  0.92331  0.73879  0.61533  1.0000
  H   H990      1.0  0.94815  0.62483  0.68220  1.0000
  C   C561      1.0  0.93330  0.71240  0.63578  1.0000
  H   H991      1.0  0.67043  0.85716  0.94546  1.0000
  C   C562      1.0  0.86085  0.75648  0.94993  1.0000
  C   C563      1.0  0.73499  0.89214  0.92924  1.0000
  C   C564      1.0  0.86192  0.76284  0.90902  1.0000
  H   H992      1.0  0.75503  0.90347  0.90904  1.0000
  C   C565      1.0  0.98379  0.70226  0.52999  1.0000
  H   H993      1.0  0.70217  0.72922  0.50943  1.0000
  H   H994      1.0  0.96207  0.80348  0.97607  1.0000
  H   H995      1.0  0.72409  0.59027  0.58194  1.0000
  H   H996      1.0  0.87665  0.78917  0.90303  1.0000
  C   C566      1.0  0.72812  0.57831  0.98820  1.0000
  H   H997      1.0  0.93304  0.56831  0.54258  1.0000
  H   H998      1.0  0.78506  0.54728  0.86120  1.0000
  H   H999      1.0  0.85961  0.96599  0.58290  1.0000
  H   H1000     1.0  0.84400  0.98960  0.70536  1.0000
  H   H1001     1.0  0.97677  0.57767  0.54164  1.0000
  H   H1002     1.0  0.67595  0.86466  0.88328  1.0000
  H   H1003     1.0  0.93197  0.59409  0.60163  1.0000
  C   C567      1.0  0.74135  0.98945  0.52276  1.0000
  H   H1004     1.0  0.85089  0.77422  0.96247  1.0000
  C   C568      1.0  0.95693  0.58697  0.53303  1.0000
  H   H1005     1.0  0.74281  0.59695  0.51744  1.0000
  H   H1006     1.0  0.78111  0.98988  0.66432  1.0000
  H   H1007     1.0  0.96134  0.63482  0.61084  1.0000
  C   C569      1.0  0.81694  0.51255  0.83851  1.0000
  H   H1008     1.0  0.81215  0.51145  0.86831  1.0000
  S   S126      1.0  0.81468  0.52929  0.49901  1.0000
  H   H1009     1.0  0.80524  0.49885  0.76886  1.0000
  C   C570      1.0  0.67624  0.91166  0.86230  1.0000
  C   C571      1.0  0.75443  0.49647  0.95708  1.0000
  H   H1010     1.0  0.72671  0.52341  0.85114  1.0000
  S   S127      1.0  0.68643  0.89365  0.49456  1.0000
  H   H1011     1.0  0.98788  0.63715  0.55157  1.0000
  N   N31       1.0  0.78714  0.51399  0.81788  1.0000
  H   H1012     1.0  0.76211  0.52464  0.69358  1.0000
  H   H1013     1.0  0.97584  0.68090  0.65557  1.0000
  C   C572      1.0  0.96581  0.70099  0.49800  1.0000
  C   C573      1.0  0.78613  0.49599  0.96408  1.0000
  C   C574      1.0  0.72024  0.93262  0.49856  1.0000
  H   H1014     1.0  0.67888  0.89022  0.80936  1.0000
  H   H1015     1.0  0.69481  0.93609  0.85469  1.0000
  H   H1016     1.0  0.84578  0.98115  0.52142  1.0000
  C   C575      1.0  0.89585  0.76172  0.96499  1.0000
  H   H1017     1.0  0.72875  0.55403  0.50833  1.0000
  H   H1018     1.0  0.71157  0.54793  0.93969  1.0000
  H   H1019     1.0  0.91094  0.78768  0.95793  1.0000
  H   H1020     1.0  0.67995  0.56017  0.96103  1.0000
  H   H1021     1.0  0.75437  0.58689  0.97969  1.0000
  H   H1022     1.0  0.80654  0.95867  0.99147  1.0000
  N   N32       1.0  0.82324  0.99324  0.63018  1.0000
  H   H1023     1.0  0.93001  0.52191  0.51554  1.0000
  C   C576      1.0  0.99063  0.76017  0.67202  1.0000
  H   H1024     1.0  0.98710  0.77127  0.64593  1.0000
  S   S128      1.0  0.92178  0.68014  0.49512  1.0000
