data_image0
_chemical_formula_structural       H6CH4SHC2H2CHCH2CHCH3C3HC3NH6C2H2CH2CH3FeH3SHCSHCH3CH3C2H2CFeH3CH5CHCH3C5H2NH2C3SH2CH2CH3NH5C3H5CH3C3H2CH4CH3SH4CH2C2HCH4CHC2HSH2CH5CH3SH3CHNC2HCSCHC2HCH4C2H2C2HCH2CH8CHC3H3C2HC2NH3CH2CHC2HCHFeS2NCFeSHFeS2FeSFeS3FeHSH2FeH2C2HC4H3C6H4CFeH2C9H6CH2CHCH6CH3CHCHSHSH5CHSHCH6SFeHCH3CHFeCH3CSHFeC2HCH2CHC2HNHCHC2H2SHCH3C2H6CH2CSHC4H3SH4SHCH3CH3CHCSHCHCH2SFeHCNH5CHSFeS2H2FeH4FeS2FeSNHSH2SH2SCFeSH7C3SH2CHC3HC8H8CH2C4H2CH2CH2C2FeC2H3NC4HCH4CHC3HC3HC3H9C2H7NC8HCHCH16SH7CH3SH3C3H8CH4C2HFe2C2SFeH2CHCH3CHC4HSH2FeSHNC2H4C2H4C2HCS2C2HSHCH4NCHSC2HSCHSCHCSH3CH2CH2CH2C2H2C2H2SH2FeH2FeHCFeH2CH2FeHCH4NH2CHCH3CHCH6CHC2HCH8C2H3NH3CH4CH2CHSHC2H2CHCHCSCH2FeS2FeCFeSCSFeS2FeS2FeSFeS3FeS2HSHFeSFeS4FeS2FeSFeS3C6H6C6H4C4H2C6H4C6H4C6H4C6H4CH2CHC2H2CHNH7CHCH2C3HC4H5NC10H23C2H7CH6NH3C2H4C3HC4HSC2FeH4CHCH4FeH3C2NH2CH3CH5CH2C2SHCHCH5CHCH5CNC2H3CH5CH2C2H4C2H3CH2CH3CH4CH2CHCHC2HSH2CH7SH2CHCH4CH3NHCFeH3C2H2CH3C3H8CH9NH2CH4C3H5CNH5CS2FeSHS2FeS2FeSCFeS2FeS2FeSFeS3H2C6H4C6H6SHC6H4C7H7NC9SCH21CH11C2H3CH5CHSH2FeCS2CHS2C4HCHC2H7FeHS2H2FeCHCHCH3FeCHNH2CHCHFeHCH3SHC2H4CH3NCFeHC2H2C3HC2H2FeH3CHCH2NCHC2H2SHCH3C2H5NH2CH3CHCH10C2H2CHCH2CFeCH3CH2C2HSH2C2H2C2H4C2HCH3CHCNHC3SCH2CHC2H8C2HC3H4C3H3SHCHC2SHC2HC2H4C2H2C2H2NHCH9C5HCH5SHC2H2C2H5CH5CH2CH2SCH2CH3CH5SC3HC3FeCH2CHFeHS4H7NC4FeCHCHCHCH2SH3CHCH3C3H6C2H5CH2CH2CHC2SH2SHCH4SHCH2CH2CHCH2CH5C2H3CH5FeH2CSCHCH3CH3NCH3CH2CHCHC2HC2FeH2C2H
_chemical_formula_sum              "H1024 C576 S128 N32 Fe64"
_cell_length_a       40.0495
_cell_length_b       39.8734
_cell_length_c       62.6224
_cell_angle_alpha    87.5087
_cell_angle_beta     87.6787
_cell_angle_gamma    104.917

_space_group_name_H-M_alt    "P 1"
_space_group_IT_number       1

loop_
  _space_group_symop_operation_xyz
  'x, y, z'

loop_
  _atom_site_type_symbol
  _atom_site_label
  _atom_site_symmetry_multiplicity
  _atom_site_fract_x
  _atom_site_fract_y
  _atom_site_fract_z
  _atom_site_occupancy
  H   H1        1.0  0.30336  0.39615  0.02525  1.0000
  H   H2        1.0  0.32613  0.47938  0.25610  1.0000
  H   H3        1.0  0.27345  0.41994  0.05556  1.0000
  H   H4        1.0  0.16400  0.43358  0.02897  1.0000
  H   H5        1.0  0.17630  0.39345  0.03390  1.0000
  H   H6        1.0  0.40712  0.40663  0.05915  1.0000
  C   C1        1.0  0.22522  0.44970  0.04958  1.0000
  H   H7        1.0  0.43684  0.39966  0.97637  1.0000
  H   H8        1.0  0.32734  0.47534  0.02772  1.0000
  H   H9        1.0  0.22503  0.46191  0.01486  1.0000
  H   H10       1.0  0.33803  0.41757  0.04132  1.0000
  S   S1        1.0  0.43266  0.44515  0.01977  1.0000
  H   H11       1.0  0.23881  0.48195  0.12000  1.0000
  C   C2        1.0  0.40118  0.43157  0.05973  1.0000
  C   C3        1.0  0.38279  0.43905  0.07764  1.0000
  H   H12       1.0  0.21722  0.42501  0.05962  1.0000
  H   H13       1.0  0.23618  0.42166  0.02182  1.0000
  C   C4        1.0  0.18230  0.41827  0.02400  1.0000
  H   H14       1.0  0.12977  0.35528  0.98372  1.0000
  C   C5        1.0  0.45037  0.35834  0.01018  1.0000
  H   H15       1.0  0.30182  0.38475  0.98555  1.0000
  H   H16       1.0  0.44388  0.34819  0.02704  1.0000
  C   C6        1.0  0.37507  0.47125  0.07856  1.0000
  H   H17       1.0  0.37459  0.41985  0.09085  1.0000
  C   C7        1.0  0.28665  0.44783  0.05161  1.0000
  H   H18       1.0  0.21819  0.43763  0.09326  1.0000
  H   H19       1.0  0.30713  0.45419  0.06339  1.0000
  H   H20       1.0  0.34169  0.42615  0.01278  1.0000
  C   C8        1.0  0.21966  0.43891  0.02631  1.0000
  C   C9        1.0  0.24643  0.44876  0.09440  1.0000
  C   C10       1.0  0.26010  0.47938  0.07749  1.0000
  H   H21       1.0  0.33404  0.45728  0.29241  1.0000
  C   C11       1.0  0.32339  0.42078  0.02707  1.0000
  C   C12       1.0  0.41713  0.35513  0.99838  1.0000
  C   C13       1.0  0.41105  0.45588  0.04236  1.0000
  N   N1        1.0  0.26125  0.46982  0.05440  1.0000
  H   H22       1.0  0.25992  0.42797  0.09220  1.0000
  H   H23       1.0  0.29413  0.48804  0.27466  1.0000
  H   H24       1.0  0.20628  0.46494  0.05377  1.0000
  H   H25       1.0  0.17868  0.41219  0.00702  1.0000
  H   H26       1.0  0.28976  0.45072  0.01579  1.0000
  H   H27       1.0  0.40092  0.36878  0.00764  1.0000
  C   C14       1.0  0.25175  0.46090  0.11713  1.0000
  C   C15       1.0  0.30648  0.45077  0.02942  1.0000
  H   H28       1.0  0.46666  0.34303  0.00248  1.0000
  H   H29       1.0  0.27975  0.47057  0.11982  1.0000
  C   C16       1.0  0.34270  0.48575  0.28864  1.0000
  H   H30       1.0  0.46531  0.38600  0.01023  1.0000
  H   H31       1.0  0.40365  0.32711  0.99863  1.0000
  C   C17       1.0  0.43381  0.48610  0.12565  1.0000
  H   H32       1.0  0.04321  0.38312  0.98995  1.0000
  H   H33       1.0  0.42097  0.46418  0.11599  1.0000
  H   H34       1.0  0.24054  0.43882  0.12890  1.0000
  Fe  Fe1       1.0  0.44758  0.48646  0.99304  1.0000
  H   H35       1.0  0.32503  0.42712  0.97377  1.0000
  H   H36       1.0  0.38096  0.40929  0.97536  1.0000
  H   H37       1.0  0.08123  0.44299  0.98558  1.0000
  S   S2        1.0  0.35115  0.47930  0.10099  1.0000
  H   H38       1.0  0.45531  0.47928  0.13398  1.0000
  C   C18       1.0  0.42506  0.37135  0.97514  1.0000
  S   S3        1.0  0.15134  0.47754  0.99243  1.0000
  H   H39       1.0  0.35755  0.36792  0.98682  1.0000
  C   C19       1.0  0.40320  0.48801  0.04320  1.0000
  H   H40       1.0  0.28640  0.49322  0.08218  1.0000
  H   H41       1.0  0.48898  0.03980  0.01214  1.0000
  H   H42       1.0  0.12859  0.40010  0.98410  1.0000
  C   C20       1.0  0.03728  0.40166  0.97855  1.0000
  H   H43       1.0  0.48746  0.48333  0.05763  1.0000
  H   H44       1.0  0.44518  0.99817  0.03761  1.0000
  H   H45       1.0  0.41443  0.48994  0.13787  1.0000
  C   C21       1.0  0.32223  0.49452  0.27004  1.0000
  C   C22       1.0  0.05901  0.43557  0.97601  1.0000
  H   H46       1.0  0.36438  0.31570  0.97436  1.0000
  H   H47       1.0  0.45575  0.49520  0.08287  1.0000
  C   C23       1.0  0.13571  0.38037  0.97412  1.0000
  Fe  Fe2       1.0  0.20144  0.49327  0.97295  1.0000
  H   H48       1.0  0.48423  0.03429  0.97528  1.0000
  H   H49       1.0  0.37025  0.49239  0.28287  1.0000
  H   H50       1.0  0.44874  0.46574  0.49942  1.0000
  C   C24       1.0  0.35542  0.41789  0.45666  1.0000
  H   H51       1.0  0.07275  0.46702  0.48457  1.0000
  H   H52       1.0  0.36403  0.35920  0.46666  1.0000
  H   H53       1.0  0.37479  0.35844  0.43908  1.0000
  H   H54       1.0  0.38681  0.30497  0.46958  1.0000
  H   H55       1.0  0.42313  0.36400  0.47679  1.0000
  C   C25       1.0  0.07338  0.39579  0.45660  1.0000
  H   H56       1.0  0.32574  0.41308  0.36750  1.0000
  C   C26       1.0  0.10833  0.40517  0.44935  1.0000
  H   H57       1.0  0.11839  0.38773  0.43973  1.0000
  H   H58       1.0  0.32455  0.37764  0.43697  1.0000
  H   H59       1.0  0.03266  0.41815  0.42036  1.0000
  C   C27       1.0  0.18211  0.44390  0.37934  1.0000
  C   C28       1.0  0.38460  0.37089  0.45399  1.0000
  C   C29       1.0  0.41657  0.35790  0.46010  1.0000
  C   C30       1.0  0.35438  0.42123  0.36495  1.0000
  C   C31       1.0  0.29086  0.40566  0.45114  1.0000
  H   H60       1.0  0.43231  0.30987  0.46369  1.0000
  H   H61       1.0  0.27078  0.39810  0.43926  1.0000
  N   N2        1.0  0.09254  0.46285  0.39344  1.0000
  H   H62       1.0  0.36575  0.41719  0.38039  1.0000
  H   H63       1.0  0.15731  0.44391  0.44906  1.0000
  C   C32       1.0  0.01261  0.38098  0.39727  1.0000
  C   C33       1.0  0.08272  0.44984  0.47467  1.0000
  C   C34       1.0  0.41567  0.42987  0.46594  1.0000
  S   S4        1.0  0.04642  0.35593  0.44958  1.0000
  H   H64       1.0  0.14720  0.48915  0.39295  1.0000
  H   H65       1.0  0.14152  0.45299  0.36064  1.0000
  C   C35       1.0  0.43628  0.43783  0.50371  1.0000
  H   H66       1.0  0.32126  0.45620  0.33865  1.0000
  H   H67       1.0  0.01894  0.43605  0.39662  1.0000
  C   C36       1.0  0.06055  0.41828  0.46918  1.0000
  H   H68       1.0  0.02526  0.36106  0.40348  1.0000
  H   H69       1.0  0.39514  0.46661  0.35515  1.0000
  H   H70       1.0  0.35909  0.44640  0.45727  1.0000
  N   N3        1.0  0.38960  0.40979  0.45133  1.0000
  H   H71       1.0  0.29131  0.43230  0.45587  1.0000
  H   H72       1.0  0.19792  0.47128  0.37713  1.0000
  H   H73       1.0  0.08514  0.46289  0.42771  1.0000
  H   H74       1.0  0.38604  0.43979  0.49409  1.0000
  H   H75       1.0  0.42070  0.45826  0.46191  1.0000
  C   C37       1.0  0.32609  0.40470  0.44121  1.0000
  C   C38       1.0  0.40508  0.42468  0.49020  1.0000
  C   C39       1.0  0.11759  0.45940  0.46724  1.0000
  H   H76       1.0  0.39299  0.39696  0.49500  1.0000
  H   H77       1.0  0.45636  0.42422  0.43006  1.0000
  H   H78       1.0  0.28358  0.38731  0.46543  1.0000
  H   H79       1.0  0.43089  0.38847  0.41635  1.0000
  H   H80       1.0  0.40421  0.31104  0.44209  1.0000
  C   C40       1.0  0.13036  0.43698  0.45457  1.0000
  H   H81       1.0  0.38101  0.41061  0.41733  1.0000
  H   H82       1.0  0.45561  0.42259  0.50119  1.0000
  H   H83       1.0  0.01047  0.37923  0.37971  1.0000
  C   C41       1.0  0.36649  0.45955  0.35731  1.0000
  C   C42       1.0  0.08923  0.48339  0.37314  1.0000
  C   C43       1.0  0.07089  0.42561  0.39330  1.0000
  H   H84       1.0  0.40283  0.45142  0.42674  1.0000
  H   H85       1.0  0.33076  0.42178  0.42629  1.0000
  C   C44       1.0  0.03294  0.41737  0.40262  1.0000
  H   H86       1.0  0.18613  0.43307  0.39540  1.0000
  H   H87       1.0  0.34518  0.40692  0.47298  1.0000
  H   H88       1.0  0.03384  0.46883  0.36764  1.0000
  H   H89       1.0  0.35919  0.47475  0.37031  1.0000
  C   C45       1.0  0.40076  0.42299  0.42848  1.0000
  H   H90       1.0  0.43983  0.37001  0.44965  1.0000
  H   H91       1.0  0.05577  0.48029  0.41383  1.0000
  H   H92       1.0  0.42773  0.43516  0.52093  1.0000
  S   S5        1.0  0.48673  0.49427  0.44113  1.0000
  H   H93       1.0  0.07060  0.41628  0.37678  1.0000
  H   H94       1.0  0.08274  0.40806  0.40309  1.0000
  H   H95       1.0  0.44122  0.42428  0.46351  1.0000
  H   H96       1.0  0.47184  0.43298  0.39207  1.0000
  C   C46       1.0  0.08321  0.47940  0.41327  1.0000
  H   H97       1.0  0.03367  0.41117  0.47490  1.0000
  H   H98       1.0  0.13461  0.45092  0.41023  1.0000
  C   C47       1.0  0.43488  0.41647  0.41926  1.0000
  C   C48       1.0  0.44658  0.43689  0.39784  1.0000
  H   H99       1.0  0.12955  0.41407  0.37799  1.0000
  C   C49       1.0  0.40937  0.31852  0.45877  1.0000
  H   H100      1.0  0.36270  0.40468  0.35308  1.0000
  H   H101      1.0  0.42746  0.42796  0.38561  1.0000
  H   H102      1.0  0.35736  0.44897  0.32428  1.0000
  H   H103      1.0  0.09329  0.46895  0.35889  1.0000
  C   C50       1.0  0.34986  0.46618  0.33608  1.0000
  H   H104      1.0  0.44999  0.46516  0.39962  1.0000
  C   C51       1.0  0.13003  0.46224  0.39438  1.0000
  C   C52       1.0  0.14385  0.44196  0.37690  1.0000
  H   H105      1.0  0.19117  0.42859  0.36701  1.0000
  S   S6        1.0  0.29935  0.49480  0.42273  1.0000
  H   H106      1.0  0.30885  0.49287  0.36227  1.0000
  H   H107      1.0  0.40402  0.49270  0.31055  1.0000
  C   C53       1.0  0.05439  0.49262  0.37032  1.0000
  H   H108      1.0  0.12151  0.35544  0.94478  1.0000
  H   H109      1.0  0.40354  0.41137  0.93890  1.0000
  H   H110      1.0  0.01818  0.33260  0.90629  1.0000
  H   H111      1.0  0.99949  0.36547  0.91698  1.0000
  H   H112      1.0  0.17141  0.35080  0.88772  1.0000
  C   C54       1.0  0.02287  0.44944  0.94877  1.0000
  H   H113      1.0  0.48513  0.99569  0.93335  1.0000
  H   H114      1.0  0.08720  0.36730  0.95953  1.0000
  H   H115      1.0  0.12516  0.39720  0.88651  1.0000
  S   S7        1.0  0.22578  0.45153  0.96260  1.0000
  H   H116      1.0  0.11033  0.42873  0.94953  1.0000
  H   H117      1.0  0.47587  0.40408  0.90133  1.0000
  H   H118      1.0  0.16988  0.37946  0.92230  1.0000
  C   C55       1.0  0.29324  0.48905  0.96662  1.0000
  H   H119      1.0  0.06416  0.37880  0.88608  1.0000
  N   N4        1.0  0.10836  0.40789  0.91817  1.0000
  C   C56       1.0  0.31497  0.47095  0.92672  1.0000
  C   C57       1.0  0.44304  0.38704  0.93022  1.0000
  H   H120      1.0  0.32320  0.46421  0.91118  1.0000
  C   C58       1.0  0.12764  0.38924  0.90353  1.0000
  S   S8        1.0  0.44366  0.46913  0.95961  1.0000
  C   C59       1.0  0.40554  0.38401  0.93902  1.0000
  H   H121      1.0  0.41021  0.31278  0.93400  1.0000
  C   C60       1.0  0.38220  0.26680  0.95206  1.0000
  C   C61       1.0  0.40155  0.30531  0.95098  1.0000
  H   H122      1.0  0.21180  0.38155  0.89238  1.0000
  C   C62       1.0  0.10966  0.44383  0.90889  1.0000
  H   H123      1.0  0.01745  0.46772  0.93700  1.0000
  H   H124      1.0  0.35931  0.26237  0.94208  1.0000
  H   H125      1.0  0.35679  0.32437  0.94745  1.0000
  H   H126      1.0  0.09865  0.44259  0.89286  1.0000
  C   C63       1.0  0.12193  0.41088  0.94036  1.0000
  C   C64       1.0  0.33661  0.38337  0.95805  1.0000
  H   H127      1.0  0.11560  0.36067  0.90488  1.0000
  H   H128      1.0  0.38744  0.37164  0.92687  1.0000
  C   C65       1.0  0.14585  0.46956  0.90541  1.0000
  C   C66       1.0  0.16669  0.39361  0.90717  1.0000
  H   H129      1.0  0.32173  0.35690  0.95444  1.0000
  C   C67       1.0  0.18422  0.37881  0.88905  1.0000
  H   H130      1.0  0.44992  0.36190  0.93098  1.0000
  H   H131      1.0  0.15009  0.42348  0.93996  1.0000
  C   C68       1.0  0.00070  0.41565  0.95161  1.0000
  H   H132      1.0  0.39968  0.25140  0.94593  1.0000
  H   H133      1.0  0.99977  0.35921  0.88869  1.0000
  H   H134      1.0  0.47537  0.03725  0.93621  1.0000
  H   H135      1.0  0.26189  0.44258  0.92415  1.0000
  H   H136      1.0  0.28941  0.40045  0.96055  1.0000
  H   H137      1.0  0.18107  0.42108  0.90833  1.0000
  H   H138      1.0  0.09316  0.45600  0.91921  1.0000
  H   H139      1.0  0.42444  0.30779  0.96075  1.0000
  C   C69       1.0  0.07070  0.38771  0.92042  1.0000
  H   H140      1.0  0.43122  0.38437  0.89651  1.0000
  C   C70       1.0  0.26929  0.46803  0.95384  1.0000
  C   C71       1.0  0.04984  0.38593  0.89996  1.0000
  C   C72       1.0  0.44871  0.40177  0.90703  1.0000
  H   H141      1.0  0.46142  0.40526  0.93976  1.0000
  H   H142      1.0  0.16061  0.46146  0.89209  1.0000
  H   H143      1.0  0.18322  0.39320  0.87359  1.0000
  C   C73       1.0  0.01476  0.35914  0.90323  1.0000
  C   C74       1.0  0.33911  0.49143  0.93950  1.0000
  H   H144      1.0  0.34464  0.39895  0.94270  1.0000
  C   C75       1.0  0.05250  0.45931  0.96066  1.0000
  C   C76       1.0  0.11498  0.37616  0.95408  1.0000
  N   N5        1.0  0.39465  0.36585  0.96095  1.0000
  H   H145      1.0  0.04442  0.41142  0.89611  1.0000
  H   H146      1.0  0.44406  0.42809  0.90583  1.0000
  H   H147      1.0  0.05685  0.39888  0.93282  1.0000
  C   C77       1.0  0.28030  0.45881  0.93402  1.0000
  H   H148      1.0  0.16390  0.38845  0.96977  1.0000
  H   H149      1.0  0.06818  0.36033  0.92620  1.0000
  C   C78       1.0  0.00836  0.39138  0.96616  1.0000
  H   H150      1.0  0.16074  0.47124  0.91999  1.0000
  C   C79       1.0  0.37773  0.32775  0.95891  1.0000
  C   C80       1.0  0.36829  0.38209  0.97134  1.0000
  H   H151      1.0  0.37366  0.25742  0.96886  1.0000
  C   C81       1.0  0.31182  0.39995  0.97032  1.0000
  H   H152      1.0  0.44617  0.36130  0.96810  1.0000
  Fe  Fe3       1.0  0.39223  0.62969  0.27964  1.0000
  S   S9        1.0  0.37092  0.67540  0.27214  1.0000
  S   S10       1.0  0.41103  0.59944  0.25442  1.0000
  N   N6        1.0  0.21134  0.68099  0.05571  1.0000
  C   C82       1.0  0.44924  0.72846  0.23697  1.0000
  Fe  Fe4       1.0  0.35441  0.53513  0.10742  1.0000
  S   S11       1.0  0.37438  0.58009  0.08371  1.0000
  H   H153      1.0  0.47079  0.74882  0.16047  1.0000
  Fe  Fe5       1.0  0.34102  0.58070  0.14272  1.0000
  S   S12       1.0  0.36062  0.63011  0.12226  1.0000
  S   S13       1.0  0.31628  0.58171  0.17555  1.0000
  Fe  Fe6       1.0  0.33088  0.60008  0.09676  1.0000
  S   S14       1.0  0.30445  0.62691  0.07344  1.0000
  Fe  Fe7       1.0  0.40258  0.60649  0.11087  1.0000
  S   S15       1.0  0.45735  0.63842  0.10502  1.0000
  S   S16       1.0  0.30754  0.55232  0.11788  1.0000
  S   S17       1.0  0.38629  0.55979  0.13400  1.0000
  Fe  Fe8       1.0  0.17409  0.52465  0.01034  1.0000
  H   H154      1.0  0.18874  0.79022  0.03800  1.0000
  S   S18       1.0  0.16950  0.52238  0.04614  1.0000
  H   H155      1.0  0.17012  0.61764  0.12184  1.0000
  H   H156      1.0  0.44010  0.58071  0.02982  1.0000
  Fe  Fe9       1.0  0.44078  0.77420  0.01512  1.0000
  H   H157      1.0  0.34119  0.60516  0.24982  1.0000
  H   H158      1.0  0.26983  0.62942  0.99455  1.0000
  C   C83       1.0  0.46119  0.67434  0.08692  1.0000
  C   C84       1.0  0.31917  0.55649  0.02812  1.0000
  H   H159      1.0  0.20025  0.62555  0.06333  1.0000
  C   C85       1.0  0.18648  0.77004  0.05117  1.0000
  C   C86       1.0  0.43868  0.70592  0.05915  1.0000
  C   C87       1.0  0.43480  0.67650  0.07326  1.0000
  C   C88       1.0  0.38386  0.63733  0.01072  1.0000
  H   H160      1.0  0.31450  0.72242  0.07371  1.0000
  H   H161      1.0  0.41828  0.70761  0.04866  1.0000
  H   H162      1.0  0.41135  0.65565  0.07358  1.0000
  C   C89       1.0  0.26549  0.59933  0.06664  1.0000
  C   C90       1.0  0.25500  0.60166  0.04577  1.0000
  C   C91       1.0  0.22430  0.57923  0.03980  1.0000
  C   C92       1.0  0.20443  0.55399  0.05461  1.0000
  C   C93       1.0  0.21413  0.55257  0.07575  1.0000
  C   C94       1.0  0.24480  0.57525  0.08177  1.0000
  H   H163      1.0  0.27089  0.62059  0.03416  1.0000
  H   H164      1.0  0.21599  0.58160  0.02376  1.0000
  H   H165      1.0  0.19846  0.53334  0.08730  1.0000
  H   H166      1.0  0.25233  0.57417  0.09810  1.0000
  C   C95       1.0  0.46560  0.56033  0.06801  1.0000
  Fe  Fe10      1.0  0.37334  0.77237  0.99442  1.0000
  H   H167      1.0  0.48490  0.67292  0.00601  1.0000
  H   H168      1.0  0.20271  0.78191  0.06424  1.0000
  C   C96       1.0  0.49126  0.70157  0.08649  1.0000
  C   C97       1.0  0.36103  0.63722  0.99170  1.0000
  C   C98       1.0  0.43072  0.70115  0.22208  1.0000
  C   C99       1.0  0.38332  0.59107  0.23322  1.0000
  C   C100      1.0  0.39469  0.57951  0.21411  1.0000
  C   C101      1.0  0.37381  0.57536  0.19643  1.0000
  C   C102      1.0  0.34136  0.58235  0.19796  1.0000
  C   C103      1.0  0.32922  0.59188  0.21748  1.0000
  C   C104      1.0  0.35035  0.59675  0.23501  1.0000
  H   H169      1.0  0.41996  0.57450  0.21287  1.0000
  H   H170      1.0  0.38284  0.56692  0.18163  1.0000
  H   H171      1.0  0.30383  0.59663  0.21885  1.0000
  H   H172      1.0  0.15898  0.76130  0.05720  1.0000
  H   H173      1.0  0.14033  0.61912  0.10119  1.0000
  H   H174      1.0  0.46492  0.97680  0.00383  1.0000
  C   C105      1.0  0.45069  0.60186  0.04059  1.0000
  H   H175      1.0  0.18542  0.68374  0.99240  1.0000
  H   H176      1.0  0.34094  0.57673  0.03387  1.0000
  C   C106      1.0  0.44079  0.66362  0.18113  1.0000
  H   H177      1.0  0.46328  0.72659  0.19476  1.0000
  C   C107      1.0  0.30421  0.52995  0.04656  1.0000
  H   H178      1.0  0.48536  0.62975  0.16153  1.0000
  H   H179      1.0  0.42961  0.60571  0.05144  1.0000
  H   H180      1.0  0.46102  0.62629  0.03066  1.0000
  H   H181      1.0  0.32431  0.51699  0.05124  1.0000
  H   H182      1.0  0.17085  0.59281  0.09854  1.0000
  H   H183      1.0  0.44184  0.72267  0.11763  1.0000
  C   C108      1.0  0.21068  0.67286  0.03234  1.0000
  H   H184      1.0  0.32895  0.54383  0.01462  1.0000
  H   H185      1.0  0.45268  0.59769  0.17767  1.0000
  H   H186      1.0  0.36767  0.71554  0.20283  1.0000
  C   C109      1.0  0.46855  0.73349  0.05918  1.0000
  H   H187      1.0  0.29928  0.56917  0.02240  1.0000
  C   C110      1.0  0.44789  0.55432  0.29847  1.0000
  H   H188      1.0  0.43764  0.75096  0.23681  1.0000
  S   S19       1.0  0.43736  0.75593  0.29282  1.0000
  H   H189      1.0  0.39106  0.61230  0.01256  1.0000
  S   S20       1.0  0.43023  0.65694  0.30266  1.0000
  H   H190      1.0  0.24963  0.51642  0.04147  1.0000
  H   H191      1.0  0.45719  0.58071  0.29045  1.0000
  H   H192      1.0  0.48864  0.81903  0.29823  1.0000
  H   H193      1.0  0.35402  0.66234  0.99091  1.0000
  H   H194      1.0  0.43897  0.65397  0.14671  1.0000
  C   C111      1.0  0.43502  0.71578  0.19844  1.0000
  H   H195      1.0  0.36968  0.64122  0.02565  1.0000
  S   S21       1.0  0.22638  0.53711  0.99281  1.0000
  H   H196      1.0  0.44658  0.71684  0.25360  1.0000
  C   C112      1.0  0.29314  0.71829  0.98762  1.0000
  H   H197      1.0  0.22570  0.74979  0.03630  1.0000
  H   H198      1.0  0.30469  0.68225  0.01112  1.0000
  H   H199      1.0  0.37162  0.65320  0.17600  1.0000
  H   H200      1.0  0.33940  0.53325  0.30340  1.0000
  H   H201      1.0  0.40606  0.69195  0.14910  1.0000
  H   H202      1.0  0.45010  0.53497  0.28662  1.0000
  S   S22       1.0  0.15238  0.56070  0.98996  1.0000
  Fe  Fe11      1.0  0.33267  0.65335  0.29962  1.0000
  H   H203      1.0  0.41092  0.50700  0.02995  1.0000
  C   C113      1.0  0.38276  0.67133  0.18843  1.0000
  H   H204      1.0  0.18276  0.72979  0.02918  1.0000
  H   H205      1.0  0.40303  0.69307  0.22761  1.0000
  H   H206      1.0  0.47376  0.70907  0.14903  1.0000
  C   C114      1.0  0.19492  0.71015  0.06058  1.0000
  H   H207      1.0  0.27215  0.72210  0.03385  1.0000
  Fe  Fe12      1.0  0.47868  0.56098  0.97833  1.0000
  C   C115      1.0  0.43401  0.63914  0.16234  1.0000
  H   H208      1.0  0.25905  0.66673  0.05976  1.0000
  H   H209      1.0  0.38129  0.65434  0.20318  1.0000
  H   H210      1.0  0.32887  0.74696  0.04861  1.0000
  C   C116      1.0  0.35770  0.69483  0.19174  1.0000
  S   S23       1.0  0.40910  0.81308  0.01274  1.0000
  H   H211      1.0  0.24972  0.69369  0.07973  1.0000
  Fe  Fe13      1.0  0.40552  0.70075  0.29738  1.0000
  C   C117      1.0  0.38563  0.49587  0.06140  1.0000
  C   C118      1.0  0.45737  0.72747  0.15061  1.0000
  H   H212      1.0  0.48124  0.75554  0.12102  1.0000
  C   C119      1.0  0.27108  0.65507  0.98763  1.0000
  H   H213      1.0  0.21957  0.64627  0.09772  1.0000
  H   H214      1.0  0.46900  0.67661  0.18051  1.0000
  C   C120      1.0  0.31119  0.72283  0.05618  1.0000
  H   H215      1.0  0.31868  0.70027  0.04952  1.0000
  C   C121      1.0  0.45489  0.74319  0.12821  1.0000
  C   C122      1.0  0.44725  0.51942  0.11144  1.0000
  H   H216      1.0  0.19158  0.64029  0.99404  1.0000
  N   N7        1.0  0.41985  0.69010  0.18216  1.0000
  H   H217      1.0  0.16347  0.64239  0.06524  1.0000
  C   C123      1.0  0.46255  0.98048  0.03776  1.0000
  H   H218      1.0  0.44160  0.67837  0.22409  1.0000
  C   C124      1.0  0.24828  0.68928  0.06237  1.0000
  C   C125      1.0  0.27379  0.72176  0.05136  1.0000
  H   H219      1.0  0.26825  0.74567  0.05737  1.0000
  H   H220      1.0  0.40724  0.73040  0.16231  1.0000
  S   S24       1.0  0.27637  0.65207  0.29965  1.0000
  H   H221      1.0  0.40685  0.62328  0.16316  1.0000
  C   C126      1.0  0.19369  0.64859  0.09314  1.0000
  H   H222      1.0  0.20517  0.72236  0.07546  1.0000
  H   H223      1.0  0.18918  0.67281  0.09930  1.0000
  H   H224      1.0  0.32472  0.66294  0.21746  1.0000
  C   C127      1.0  0.19146  0.64835  0.06847  1.0000
  C   C128      1.0  0.16704  0.61762  0.10429  1.0000
  H   H225      1.0  0.42413  0.73878  0.19750  1.0000
  H   H226      1.0  0.29827  0.54426  0.06045  1.0000
  H   H227      1.0  0.16451  0.62938  0.03024  1.0000
  H   H228      1.0  0.42450  0.52609  0.10464  1.0000
  H   H229      1.0  0.30446  0.69087  0.20230  1.0000
  H   H230      1.0  0.35354  0.70716  0.17618  1.0000
  C   C129      1.0  0.47958  0.59358  0.05337  1.0000
  H   H231      1.0  0.38001  0.52082  0.06198  1.0000
  H   H232      1.0  0.43591  0.64645  0.19604  1.0000
  C   C130      1.0  0.47233  0.51418  0.09305  1.0000
  S   S25       1.0  0.31521  0.75641  0.99966  1.0000
  H   H233      1.0  0.16654  0.69987  0.06421  1.0000
  C   C131      1.0  0.19873  0.73956  0.04279  1.0000
  C   C132      1.0  0.42082  0.70947  0.16082  1.0000
  C   C133      1.0  0.45780  0.61466  0.16274  1.0000
  C   C134      1.0  0.32235  0.67381  0.20112  1.0000
  H   H234      1.0  0.45962  0.54026  0.12192  1.0000
  H   H235      1.0  0.22640  0.65415  0.02910  1.0000
  H   H236      1.0  0.22336  0.69609  0.02180  1.0000
  S   S26       1.0  0.40275  0.73220  0.99946  1.0000
  H   H237      1.0  0.44634  0.95331  0.04038  1.0000
  H   H238      1.0  0.44018  0.76327  0.12890  1.0000
  H   H239      1.0  0.31101  0.65228  0.19076  1.0000
  H   H240      1.0  0.45047  0.54005  0.05819  1.0000
  S   S27       1.0  0.47444  0.77173  0.04281  1.0000
  H   H241      1.0  0.47726  0.73764  0.23224  1.0000
  C   C135      1.0  0.17515  0.65698  0.99972  1.0000
  H   H242      1.0  0.44648  0.56665  0.07946  1.0000
  H   H243      1.0  0.46421  0.71774  0.98668  1.0000
  H   H244      1.0  0.48553  0.51696  0.03788  1.0000
  C   C136      1.0  0.17423  0.65693  0.02412  1.0000
  H   H245      1.0  0.45327  0.59795  0.14889  1.0000
  H   H246      1.0  0.40793  0.65875  0.00849  1.0000
  H   H247      1.0  0.15541  0.67129  0.02953  1.0000
  C   C137      1.0  0.29109  0.68495  0.99683  1.0000
  H   H248      1.0  0.39502  0.54954  0.29234  1.0000
  C   C138      1.0  0.47093  0.69760  0.97792  1.0000
  S   S28       1.0  0.42362  0.53071  0.98668  1.0000
  H   H249      1.0  0.47992  0.98631  0.05126  1.0000
  C   C139      1.0  0.27092  0.50319  0.04059  1.0000
  H   H250      1.0  0.33135  0.52264  0.26502  1.0000
  C   C140      1.0  0.48362  0.98430  0.01648  1.0000
  H   H251      1.0  0.14863  0.64623  0.99433  1.0000
  H   H252      1.0  0.38531  0.60551  0.97298  1.0000
  S   S29       1.0  0.47207  0.79418  0.98464  1.0000
  Fe  Fe14      1.0  0.43847  0.83060  0.98112  1.0000
  H   H253      1.0  0.33697  0.61615  0.99503  1.0000
  C   C141      1.0  0.48294  0.67223  0.98890  1.0000
  N   N8        1.0  0.49172  0.54656  0.07988  1.0000
  H   H254      1.0  0.24382  0.49793  0.07958  1.0000
  H   H255      1.0  0.49097  0.50088  0.10010  1.0000
  H   H256      1.0  0.27352  0.49824  0.02341  1.0000
  H   H257      1.0  0.30377  0.73492  0.30279  1.0000
  H   H258      1.0  0.28475  0.49610  0.98201  1.0000
  C   C142      1.0  0.49070  0.64525  0.97792  1.0000
  H   H259      1.0  0.48951  0.61608  0.06324  1.0000
  S   S30       1.0  0.35086  0.60536  0.30496  1.0000
  Fe  Fe15      1.0  0.38704  0.63678  0.32738  1.0000
  S   S31       1.0  0.36532  0.68289  0.32404  1.0000
  S   S32       1.0  0.39166  0.61765  0.36100  1.0000
  H   H260      1.0  0.36873  0.69390  0.39099  1.0000
  H   H261      1.0  0.25958  0.71028  0.39778  1.0000
  Fe  Fe16      1.0  0.47697  0.53819  0.45944  1.0000
  H   H262      1.0  0.39896  0.69549  0.36894  1.0000
  H   H263      1.0  0.25634  0.57677  0.53411  1.0000
  H   H264      1.0  0.10727  0.55908  0.43742  1.0000
  H   H265      1.0  0.47920  0.92567  0.40104  1.0000
  Fe  Fe17      1.0  0.21103  0.55696  0.40715  1.0000
  S   S33       1.0  0.19229  0.57615  0.43717  1.0000
  S   S34       1.0  0.18365  0.56466  0.37737  1.0000
  Fe  Fe18      1.0  0.24806  0.59237  0.44503  1.0000
  S   S35       1.0  0.26388  0.64298  0.46158  1.0000
  N   N9        1.0  0.35835  0.61405  0.48864  1.0000
  H   H266      1.0  0.28825  0.53699  0.37981  1.0000
  S   S36       1.0  0.26711  0.57745  0.41363  1.0000
  H   H267      1.0  0.36059  0.66037  0.50607  1.0000
  H   H268      1.0  0.15439  0.64596  0.43539  1.0000
  S   S37       1.0  0.44780  0.76288  0.42108  1.0000
  H   H269      1.0  0.26208  0.80376  0.41905  1.0000
  H   H270      1.0  0.30936  0.62078  0.52036  1.0000
  S   S38       1.0  0.44703  0.80850  0.46406  1.0000
  C   C143      1.0  0.30589  0.59338  0.51615  1.0000
  Fe  Fe19      1.0  0.41982  0.80052  0.43349  1.0000
  S   S39       1.0  0.36183  0.79186  0.43390  1.0000
  H   H271      1.0  0.21226  0.73711  0.40656  1.0000
  H   H272      1.0  0.03130  0.52319  0.34868  1.0000
  H   H273      1.0  0.18904  0.78001  0.38065  1.0000
  H   H274      1.0  0.42543  0.64993  0.50386  1.0000
  H   H275      1.0  0.35452  0.51371  0.49125  1.0000
  H   H276      1.0  0.28851  0.66715  0.36459  1.0000
  H   H277      1.0  0.22695  0.69742  0.43183  1.0000
  C   C144      1.0  0.49154  0.80160  0.35176  1.0000
  C   C145      1.0  0.25731  0.65589  0.39480  1.0000
  C   C146      1.0  0.11983  0.61692  0.38577  1.0000
  S   S40       1.0  0.24599  0.54136  0.46265  1.0000
  H   H278      1.0  0.04668  0.50564  0.38426  1.0000
  H   H279      1.0  0.35896  0.55466  0.33647  1.0000
  C   C147      1.0  0.43401  0.85696  0.35106  1.0000
  H   H280      1.0  0.37281  0.61179  0.52159  1.0000
  C   C148      1.0  0.19874  0.73011  0.37370  1.0000
  C   C149      1.0  0.39726  0.51337  0.31990  1.0000
  C   C150      1.0  0.45870  0.77252  0.31556  1.0000
  H   H281      1.0  0.33367  0.54413  0.38396  1.0000
  C   C151      1.0  0.26710  0.57566  0.51761  1.0000
  C   C152      1.0  0.41995  0.62143  0.50247  1.0000
  C   C153      1.0  0.29072  0.68373  0.45195  1.0000
  C   C154      1.0  0.28519  0.71336  0.46113  1.0000
  C   C155      1.0  0.30687  0.74635  0.45528  1.0000
  C   C156      1.0  0.33572  0.74988  0.44124  1.0000
  C   C157      1.0  0.34165  0.72033  0.43216  1.0000
  C   C158      1.0  0.31836  0.68744  0.43677  1.0000
  H   H282      1.0  0.26408  0.71084  0.47294  1.0000
  H   H283      1.0  0.30200  0.76909  0.46229  1.0000
  H   H284      1.0  0.36417  0.72300  0.42156  1.0000
  H   H285      1.0  0.32249  0.66514  0.42900  1.0000
  H   H286      1.0  0.23971  0.63167  0.38974  1.0000
  H   H287      1.0  0.46208  0.75510  0.36918  1.0000
  H   H288      1.0  0.30652  0.82713  0.42133  1.0000
  H   H289      1.0  0.12884  0.60873  0.37031  1.0000
  C   C159      1.0  0.19559  0.71629  0.39748  1.0000
  H   H290      1.0  0.43860  0.68218  0.41237  1.0000
  H   H291      1.0  0.09256  0.61811  0.38459  1.0000
  C   C160      1.0  0.17919  0.75799  0.37034  1.0000
  C   C161      1.0  0.21012  0.58749  0.35558  1.0000
  C   C162      1.0  0.24600  0.59201  0.35463  1.0000
  C   C163      1.0  0.26664  0.61147  0.33736  1.0000
  H   H292      1.0  0.46468  0.55223  0.31185  1.0000
  H   H293      1.0  0.37734  0.58001  0.46824  1.0000
  C   C164      1.0  0.19489  0.60214  0.33913  1.0000
  H   H294      1.0  0.25784  0.58062  0.36722  1.0000
  H   H295      1.0  0.29437  0.61513  0.33679  1.0000
  C   C165      1.0  0.20698  0.67592  0.42531  1.0000
  H   H296      1.0  0.16716  0.59848  0.33963  1.0000
  H   H297      1.0  0.15104  0.74693  0.37410  1.0000
  C   C166      1.0  0.45223  0.66393  0.41970  1.0000
  C   C167      1.0  0.25135  0.62661  0.32110  1.0000
  Fe  Fe20      1.0  0.26056  0.52500  0.43043  1.0000
  C   C168      1.0  0.32203  0.59134  0.49345  1.0000
  C   C169      1.0  0.05675  0.51747  0.35068  1.0000
  H   H298      1.0  0.43424  0.72845  0.33681  1.0000
  H   H299      1.0  0.47790  0.68284  0.34481  1.0000
  H   H300      1.0  0.26283  0.65198  0.41176  1.0000
  N   N10       1.0  0.20529  0.68250  0.40148  1.0000
  C   C170      1.0  0.42182  0.59341  0.36504  1.0000
  C   C171      1.0  0.44957  0.59518  0.35032  1.0000
  C   C172      1.0  0.47322  0.57529  0.35438  1.0000
  C   C173      1.0  0.24134  0.68712  0.39156  1.0000
  H   H301      1.0  0.40878  0.72765  0.38848  1.0000
  C   C174      1.0  0.41779  0.57185  0.38364  1.0000
  H   H302      1.0  0.45307  0.61214  0.33602  1.0000
  H   H303      1.0  0.45054  0.66555  0.43736  1.0000
  H   H304      1.0  0.37703  0.57580  0.50667  1.0000
  H   H305      1.0  0.24160  0.69192  0.37391  1.0000
  C   C175      1.0  0.43973  0.60752  0.51966  1.0000
  H   H306      1.0  0.39604  0.56986  0.39480  1.0000
  C   C176      1.0  0.38067  0.60456  0.50555  1.0000
  C   C177      1.0  0.29169  0.66218  0.38188  1.0000
  C   C178      1.0  0.37105  0.60540  0.46705  1.0000
  H   H307      1.0  0.18195  0.62732  0.40063  1.0000
  C   C179      1.0  0.35763  0.65179  0.48941  1.0000
  C   C180      1.0  0.38444  0.67878  0.47456  1.0000
  C   C181      1.0  0.34543  0.60341  0.44900  1.0000
  H   H308      1.0  0.30237  0.63919  0.38375  1.0000
  C   C182      1.0  0.38497  0.71592  0.47990  1.0000
  C   C183      1.0  0.36381  0.60754  0.42688  1.0000
  C   C184      1.0  0.46752  0.76909  0.35375  1.0000
  H   H309      1.0  0.39611  0.62357  0.46149  1.0000
  H   H310      1.0  0.30397  0.59819  0.48203  1.0000
  H   H311      1.0  0.16888  0.71438  0.40380  1.0000
  H   H312      1.0  0.33192  0.65516  0.48505  1.0000
  H   H313      1.0  0.28169  0.83991  0.40037  1.0000
  H   H314      1.0  0.37766  0.67562  0.45763  1.0000
  H   H315      1.0  0.41103  0.67591  0.47576  1.0000
  H   H316      1.0  0.32603  0.57776  0.45037  1.0000
  H   H317      1.0  0.33144  0.62374  0.45042  1.0000
  C   C185      1.0  0.44136  0.55225  0.38767  1.0000
  C   C186      1.0  0.45178  0.75413  0.33550  1.0000
  H   H318      1.0  0.12079  0.59719  0.39864  1.0000
  H   H319      1.0  0.35852  0.71985  0.48015  1.0000
  H   H320      1.0  0.39608  0.72180  0.49569  1.0000
  H   H321      1.0  0.40140  0.73441  0.46756  1.0000
  H   H322      1.0  0.38161  0.59037  0.42614  1.0000
  H   H323      1.0  0.34469  0.60033  0.41442  1.0000
  H   H324      1.0  0.37859  0.63497  0.42338  1.0000
  N   N11       1.0  0.34579  0.78857  0.36658  1.0000
  C   C187      1.0  0.37557  0.81257  0.35333  1.0000
  C   C188      1.0  0.31676  0.77226  0.35248  1.0000
  C   C189      1.0  0.33202  0.81051  0.38208  1.0000
  C   C190      1.0  0.35742  0.76110  0.37940  1.0000
  C   C191      1.0  0.37055  0.73494  0.36616  1.0000
  C   C192      1.0  0.40799  0.82989  0.36557  1.0000
  C   C193      1.0  0.29755  0.79237  0.39499  1.0000
  C   C194      1.0  0.32680  0.76383  0.32945  1.0000
  H   H325      1.0  0.43936  0.63695  0.41572  1.0000
  C   C195      1.0  0.38767  0.71174  0.37958  1.0000
  H   H326      1.0  0.42330  0.87927  0.34678  1.0000
  C   C196      1.0  0.28635  0.81744  0.40978  1.0000
  H   H327      1.0  0.36642  0.83346  0.34489  1.0000
  H   H328      1.0  0.38546  0.79894  0.34041  1.0000
  H   H329      1.0  0.30003  0.74803  0.36070  1.0000
  H   H330      1.0  0.29958  0.78991  0.34990  1.0000
  H   H331      1.0  0.32794  0.83406  0.37344  1.0000
  H   H332      1.0  0.35119  0.82038  0.39413  1.0000
  H   H333      1.0  0.37760  0.77317  0.39045  1.0000
  H   H334      1.0  0.33588  0.74520  0.39002  1.0000
  H   H335      1.0  0.38963  0.74866  0.35349  1.0000
  H   H336      1.0  0.34830  0.71769  0.35881  1.0000
  H   H337      1.0  0.40156  0.84340  0.37961  1.0000
  H   H338      1.0  0.42122  0.81006  0.37113  1.0000
  H   H339      1.0  0.30028  0.76997  0.40521  1.0000
  H   H340      1.0  0.27616  0.78293  0.38429  1.0000
  H   H341      1.0  0.26231  0.54796  0.51371  1.0000
  H   H342      1.0  0.34816  0.75102  0.32889  1.0000
  S   S41       1.0  0.45631  0.84746  0.41669  1.0000
  H   H343      1.0  0.33530  0.78829  0.31918  1.0000
  H   H344      1.0  0.43101  0.61313  0.53587  1.0000
  H   H345      1.0  0.10842  0.53369  0.40195  1.0000
  H   H346      1.0  0.31034  0.68479  0.38792  1.0000
  H   H347      1.0  0.45817  0.86669  0.35955  1.0000
  H   H348      1.0  0.18291  0.76806  0.35335  1.0000
  H   H349      1.0  0.25331  0.58909  0.50638  1.0000
  C   C197      1.0  0.18100  0.65197  0.39189  1.0000
  H   H350      1.0  0.13179  0.65983  0.40601  1.0000
  H   H351      1.0  0.22633  0.74214  0.36872  1.0000
  H   H352      1.0  0.31808  0.57991  0.52828  1.0000
  S   S42       1.0  0.48016  0.72930  0.47328  1.0000
  H   H353      1.0  0.21537  0.65193  0.42876  1.0000
  H   H354      1.0  0.18981  0.64909  0.37510  1.0000
  H   H355      1.0  0.19795  0.69148  0.46782  1.0000
  C   C198      1.0  0.41024  0.54847  0.30660  1.0000
  C   C199      1.0  0.14242  0.65250  0.39088  1.0000
  C   C200      1.0  0.17290  0.67066  0.43910  1.0000
  H   H356      1.0  0.32110  0.56355  0.49113  1.0000
  H   H357      1.0  0.43595  0.57903  0.51869  1.0000
  H   H358      1.0  0.37175  0.50680  0.41283  1.0000
  H   H359      1.0  0.18877  0.70891  0.36288  1.0000
  H   H360      1.0  0.06379  0.50563  0.33598  1.0000
  H   H361      1.0  0.13949  0.67151  0.37809  1.0000
  H   H362      1.0  0.16097  0.69258  0.43661  1.0000
  H   H363      1.0  0.15453  0.66419  0.47253  1.0000
  C   C201      1.0  0.17924  0.66767  0.46294  1.0000
  H   H364      1.0  0.43032  0.61556  0.48679  1.0000
  H   H365      1.0  0.28746  0.71461  0.32862  1.0000
  H   H366      1.0  0.18949  0.64479  0.46662  1.0000
  H   H367      1.0  0.31916  0.57160  0.36459  1.0000
  C   C202      1.0  0.46911  0.55399  0.37320  1.0000
  C   C203      1.0  0.39175  0.51825  0.46475  1.0000
  H   H368      1.0  0.13176  0.51555  0.42141  1.0000
  Fe  Fe21      1.0  0.47748  0.77362  0.45079  1.0000
  Fe  Fe22      1.0  0.48687  0.85162  0.44615  1.0000
  C   C204      1.0  0.21546  0.62186  0.32204  1.0000
  C   C205      1.0  0.33459  0.50422  0.43907  1.0000
  S   S43       1.0  0.42787  0.52936  0.48029  1.0000
  Fe  Fe23      1.0  0.19146  0.52402  0.45219  1.0000
  H   H369      1.0  0.44057  0.84535  0.33618  1.0000
  H   H370      1.0  0.41356  0.51546  0.33403  1.0000
  C   C206      1.0  0.31447  0.54470  0.37173  1.0000
  H   H371      1.0  0.06435  0.53730  0.42997  1.0000
  C   C207      1.0  0.31657  0.51940  0.35445  1.0000
  H   H372      1.0  0.48084  0.65956  0.48214  1.0000
  H   H373      1.0  0.43803  0.53544  0.40192  1.0000
  H   H374      1.0  0.07640  0.54236  0.35264  1.0000
  C   C208      1.0  0.35825  0.51239  0.47413  1.0000
  H   H375      1.0  0.37232  0.52941  0.35635  1.0000
  C   C209      1.0  0.39649  0.51605  0.44274  1.0000
  C   C210      1.0  0.35351  0.52774  0.34361  1.0000
  C   C211      1.0  0.32966  0.50608  0.46121  1.0000
  C   C212      1.0  0.29602  0.74001  0.31933  1.0000
  H   H376      1.0  0.29730  0.52171  0.34261  1.0000
  S   S44       1.0  0.14442  0.49958  0.47389  1.0000
  H   H377      1.0  0.46783  0.62027  0.51712  1.0000
  H   H378      1.0  0.27407  0.75221  0.31857  1.0000
  Fe  Fe24      1.0  0.48689  0.81033  0.40681  1.0000
  S   S45       1.0  0.20588  0.50338  0.42148  1.0000
  H   H379      1.0  0.08587  0.51694  0.44963  1.0000
  N   N12       1.0  0.35935  0.50325  0.32702  1.0000
  C   C213      1.0  0.36795  0.50854  0.42991  1.0000
  C   C214      1.0  0.49013  0.67325  0.41165  1.0000
  H   H380      1.0  0.47578  0.64883  0.38174  1.0000
  H   H381      1.0  0.40845  0.57041  0.31645  1.0000
  H   H382      1.0  0.48239  0.69440  0.38098  1.0000
  H   H383      1.0  0.11027  0.50801  0.37136  1.0000
  C   C215      1.0  0.48284  0.80491  0.31365  1.0000
  C   C216      1.0  0.33678  0.50569  0.30860  1.0000
  H   H384      1.0  0.30896  0.49549  0.31376  1.0000
  H   H385      1.0  0.20354  0.63331  0.30943  1.0000
  H   H386      1.0  0.42232  0.52013  0.43574  1.0000
  H   H387      1.0  0.30380  0.50208  0.46837  1.0000
  C   C217      1.0  0.10561  0.51657  0.41667  1.0000
  C   C218      1.0  0.08966  0.53341  0.43451  1.0000
  H   H388      1.0  0.24163  0.69477  0.94599  1.0000
  C   C219      1.0  0.25352  0.65858  0.96908  1.0000
  S   S46       1.0  0.23086  0.62264  0.95537  1.0000
  S   S47       1.0  0.18265  0.52688  0.94925  1.0000
  C   C220      1.0  0.25526  0.69186  0.96024  1.0000
  C   C221      1.0  0.47691  0.67073  0.94461  1.0000
  H   H389      1.0  0.40592  0.65068  0.96956  1.0000
  S   S48       1.0  0.44822  0.72603  0.94295  1.0000
  H   H390      1.0  0.29132  0.54325  0.93262  1.0000
  C   C222      1.0  0.27988  0.56582  0.93278  1.0000
  H   H391      1.0  0.26361  0.56397  0.94778  1.0000
  H   H392      1.0  0.26299  0.56459  0.91905  1.0000
  H   H393      1.0  0.41581  0.59637  0.94492  1.0000
  H   H394      1.0  0.12908  0.50626  0.88415  1.0000
  N   N13       1.0  0.36181  0.63406  0.95026  1.0000
  C   C223      1.0  0.38017  0.63151  0.97065  1.0000
  H   H395      1.0  0.42925  0.57311  0.91100  1.0000
  S   S49       1.0  0.08198  0.50046  0.95488  1.0000
  C   C224      1.0  0.42003  0.59709  0.91071  1.0000
  C   C225      1.0  0.39896  0.59808  0.93149  1.0000
  H   H396      1.0  0.37270  0.68873  0.95715  1.0000
  S   S50       1.0  0.39940  0.79388  0.96245  1.0000
  C   C226      1.0  0.14290  0.50615  0.89916  1.0000
  H   H397      1.0  0.31090  0.60818  0.96428  1.0000
  S   S51       1.0  0.47682  0.55068  0.94340  1.0000
  C   C227      1.0  0.35326  0.66899  0.94890  1.0000
  H   H398      1.0  0.40984  0.65403  0.93164  1.0000
  C   C228      1.0  0.47783  0.82897  0.92847  1.0000
  S   S52       1.0  0.38207  0.50623  0.92932  1.0000
  H   H399      1.0  0.34255  0.73224  0.91106  1.0000
  H   H400      1.0  0.33647  0.66787  0.91551  1.0000
  H   H401      1.0  0.31031  0.71021  0.93122  1.0000
  C   C229      1.0  0.35255  0.68606  0.92619  1.0000
  H   H402      1.0  0.40381  0.59683  0.89672  1.0000
  H   H403      1.0  0.32801  0.66732  0.95754  1.0000
  C   C230      1.0  0.32929  0.60463  0.95130  1.0000
  H   H404      1.0  0.37930  0.69477  0.91881  1.0000
  H   H405      1.0  0.37520  0.63445  0.91621  1.0000
  C   C231      1.0  0.30841  0.59985  0.93090  1.0000
  H   H406      1.0  0.29583  0.62144  0.92872  1.0000
  H   H407      1.0  0.37660  0.57492  0.93255  1.0000
  C   C232      1.0  0.27457  0.72150  0.96958  1.0000
  C   C233      1.0  0.38649  0.63172  0.93183  1.0000
  H   H408      1.0  0.35176  0.73602  0.93893  1.0000
  H   H409      1.0  0.33513  0.57952  0.95586  1.0000
  C   C234      1.0  0.46726  0.69655  0.95587  1.0000
  C   C235      1.0  0.33846  0.71812  0.92701  1.0000
  H   H410      1.0  0.32472  0.59887  0.91638  1.0000
  H   H411      1.0  0.46528  0.80065  0.92972  1.0000
  S   S53       1.0  0.46247  0.88708  0.96992  1.0000
  H   H412      1.0  0.16917  0.52413  0.89662  1.0000
  H   H413      1.0  0.45753  0.84303  0.92606  1.0000
  Fe  Fe25      1.0  0.42414  0.51574  0.95257  1.0000
  H   H414      1.0  0.27535  0.74705  0.96266  1.0000
  H   H415      1.0  0.34695  0.51641  0.96941  1.0000
  Fe  Fe26      1.0  0.43127  0.75632  0.96866  1.0000
  H   H416      1.0  0.44293  0.61984  0.90883  1.0000
  C   C236      1.0  0.32837  0.50036  0.95957  1.0000
  Fe  Fe27      1.0  0.13377  0.51422  0.97026  1.0000
  H   H417      1.0  0.12875  0.51596  0.91212  1.0000
  H   H418      1.0  0.47476  0.67029  0.92747  1.0000
  C   C237      1.0  0.48816  0.64471  0.95571  1.0000
  H   H419      1.0  0.49018  0.83634  0.94371  1.0000
  H   H420      1.0  0.49194  0.82725  0.89531  1.0000
  Fe  Fe28      1.0  0.20311  0.57007  0.97100  1.0000
  H   H421      1.0  0.76869  0.22205  0.02445  1.0000
  C   C238      1.0  0.68294  0.27734  0.99806  1.0000
  H   H422      1.0  0.53873  0.09040  0.01895  1.0000
  H   H423      1.0  0.70378  0.15192  0.03359  1.0000
  H   H424      1.0  0.67521  0.27648  0.98125  1.0000
  H   H425      1.0  0.51354  0.38671  0.98274  1.0000
  N   N14       1.0  0.72683  0.24019  0.99147  1.0000
  H   H426      1.0  0.66464  0.14441  0.01891  1.0000
  H   H427      1.0  0.59868  0.03250  0.00726  1.0000
  C   C239      1.0  0.72015  0.27285  0.00010  1.0000
  H   H428      1.0  0.72514  0.27431  0.01740  1.0000
  C   C240      1.0  0.69274  0.14596  0.01778  1.0000
  H   H429      1.0  0.77655  0.26880  0.02253  1.0000
  H   H430      1.0  0.73848  0.29625  0.99204  1.0000
  H   H431      1.0  0.73909  0.17375  0.00009  1.0000
  C   C241      1.0  0.68039  0.31236  0.00597  1.0000
  H   H432      1.0  0.71075  0.21412  0.02265  1.0000
  C   C242      1.0  0.78056  0.24599  0.01430  1.0000
  H   H433      1.0  0.83271  0.27531  0.00403  1.0000
  H   H434      1.0  0.57270  0.06995  0.97812  1.0000
  H   H435      1.0  0.66377  0.25669  0.00777  1.0000
  H   H436      1.0  0.65332  0.31434  0.00512  1.0000
  H   H437      1.0  0.62666  0.47728  0.98965  1.0000
  H   H438      1.0  0.67780  0.20707  0.00418  1.0000
  C   C243      1.0  0.76528  0.24366  0.99187  1.0000
  H   H439      1.0  0.54891  0.48887  0.04664  1.0000
  C   C244      1.0  0.62924  0.38376  0.99331  1.0000
  C   C245      1.0  0.81955  0.25006  0.01253  1.0000
  H   H440      1.0  0.57357  0.07009  0.02089  1.0000
  C   C246      1.0  0.70597  0.20964  0.00549  1.0000
  H   H441      1.0  0.82967  0.24984  0.02877  1.0000
  H   H442      1.0  0.70034  0.16535  0.98520  1.0000
  H   H443      1.0  0.59435  0.13412  0.01977  1.0000
  H   H444      1.0  0.69606  0.12022  0.01349  1.0000
  H   H445      1.0  0.65000  0.37179  0.98780  1.0000
  H   H446      1.0  0.61146  0.11685  0.99690  1.0000
  H   H447      1.0  0.60608  0.36265  0.99883  1.0000
  H   H448      1.0  0.51368  0.44730  0.97211  1.0000
  C   C247      1.0  0.71139  0.17364  0.00064  1.0000
  C   C248      1.0  0.58745  0.12060  0.00481  1.0000
  H   H449      1.0  0.77256  0.22158  0.98449  1.0000
  H   H450      1.0  0.52186  0.02833  0.02643  1.0000
  H   H451      1.0  0.69753  0.33399  0.99573  1.0000
  N   N15       1.0  0.52928  0.02899  0.99177  1.0000
  H   H452      1.0  0.84071  0.17920  0.97809  1.0000
  H   H453      1.0  0.63814  0.39996  0.00699  1.0000
  H   H454      1.0  0.78812  0.13448  0.99211  1.0000
  C   C249      1.0  0.54954  0.06684  0.98931  1.0000
  H   H455      1.0  0.78696  0.39861  0.98214  1.0000
  H   H456      1.0  0.82578  0.22857  0.00380  1.0000
  H   H457      1.0  0.59961  0.41746  0.98151  1.0000
  H   H458      1.0  0.68782  0.31497  0.02283  1.0000
  C   C250      1.0  0.57853  0.00740  0.00898  1.0000
  H   H459      1.0  0.57633  0.13742  0.99411  1.0000
  H   H460      1.0  0.66525  0.44833  0.97928  1.0000
  C   C251      1.0  0.56142  0.08549  0.01003  1.0000
  H   H461      1.0  0.77969  0.26708  0.98183  1.0000
  S   S54       1.0  0.81788  0.34172  0.98040  1.0000
  H   H462      1.0  0.56959  0.01093  0.97571  1.0000
  C   C252      1.0  0.61991  0.40575  0.97503  1.0000
  C   C253      1.0  0.55321  0.00536  0.99079  1.0000
  H   H463      1.0  0.52030  0.47794  0.02514  1.0000
  H   H464      1.0  0.56885  0.48679  0.98487  1.0000
  C   C254      1.0  0.50648  0.02208  0.01214  1.0000
  H   H465      1.0  0.56504  0.00454  0.02500  1.0000
  C   C255      1.0  0.78948  0.14532  0.97586  1.0000
  H   H466      1.0  0.53372  0.08291  0.98172  1.0000
  C   C256      1.0  0.62361  0.49468  0.97599  1.0000
  S   S55       1.0  0.72699  0.09820  0.97219  1.0000
  C   C257      1.0  0.50576  0.02146  0.97328  1.0000
  H   H467      1.0  0.57723  0.13823  0.39296  1.0000
  H   H468      1.0  0.56245  0.36438  0.51794  1.0000
  Fe  Fe29      1.0  0.73678  0.10362  0.46003  1.0000
  S   S56       1.0  0.71675  0.12397  0.48928  1.0000
  S   S57       1.0  0.78122  0.13582  0.43873  1.0000
  Fe  Fe30      1.0  0.71434  0.07165  0.50470  1.0000
  C   C258      1.0  0.85136  0.44365  0.45253  1.0000
  Fe  Fe31      1.0  0.66432  0.09817  0.47822  1.0000
  S   S58       1.0  0.62278  0.12645  0.48000  1.0000
  C   C259      1.0  0.88862  0.43967  0.45488  1.0000
  S   S59       1.0  0.68436  0.08239  0.44739  1.0000
  Fe  Fe32      1.0  0.72097  0.36401  0.40320  1.0000
  S   S60       1.0  0.67565  0.33333  0.38656  1.0000
  S   S61       1.0  0.76916  0.39530  0.38520  1.0000
  Fe  Fe33      1.0  0.68424  0.34855  0.44686  1.0000
  S   S62       1.0  0.63518  0.31517  0.43484  1.0000
  S   S63       1.0  0.69805  0.36820  0.47918  1.0000
  Fe  Fe34      1.0  0.67114  0.29417  0.41391  1.0000
  S   S64       1.0  0.66333  0.23974  0.40389  1.0000
  Fe  Fe35      1.0  0.64315  0.35651  0.40830  1.0000
  S   S65       1.0  0.60008  0.37760  0.39652  1.0000
  S   S66       1.0  0.71938  0.32291  0.42887  1.0000
  S   S67       1.0  0.68900  0.39168  0.42202  1.0000
  Fe  Fe36      1.0  0.92169  0.29168  0.47077  1.0000
  S   S68       1.0  0.88801  0.32780  0.46416  1.0000
  S   S69       1.0  0.89884  0.23821  0.48611  1.0000
  H   H469      1.0  0.86748  0.04568  0.52636  1.0000
  S   S70       1.0  0.96110  0.38663  0.44994  1.0000
  H   H470      1.0  0.70819  0.45550  0.38464  1.0000
  Fe  Fe37      1.0  0.92896  0.36626  0.48013  1.0000
  S   S71       1.0  0.91841  0.40515  0.50249  1.0000
  Fe  Fe38      1.0  0.92305  0.34454  0.43459  1.0000
  S   S72       1.0  0.90990  0.35713  0.40125  1.0000
  S   S73       1.0  0.96027  0.32916  0.48916  1.0000
  S   S74       1.0  0.95306  0.30482  0.43970  1.0000
  S   S75       1.0  0.77964  0.27576  0.61700  1.0000
  Fe  Fe39      1.0  0.70527  0.26551  0.57884  1.0000
  S   S76       1.0  0.75932  0.26715  0.56659  1.0000
  S   S77       1.0  0.66060  0.25865  0.55756  1.0000
  Fe  Fe40      1.0  0.75924  0.23217  0.59566  1.0000
  S   S78       1.0  0.78240  0.18648  0.59800  1.0000
  Fe  Fe41      1.0  0.77493  0.31047  0.58884  1.0000
  S   S79       1.0  0.81652  0.36049  0.58435  1.0000
  S   S80       1.0  0.70381  0.22659  0.60600  1.0000
  S   S81       1.0  0.72079  0.31176  0.59866  1.0000
  C   C260      1.0  0.89004  0.39028  0.52497  1.0000
  C   C261      1.0  0.86229  0.36049  0.52499  1.0000
  C   C262      1.0  0.83873  0.35120  0.54296  1.0000
  C   C263      1.0  0.84391  0.37099  0.56109  1.0000
  C   C264      1.0  0.87192  0.40035  0.56099  1.0000
  C   C265      1.0  0.89463  0.41013  0.54295  1.0000
  H   H471      1.0  0.85875  0.34513  0.51107  1.0000
  H   H472      1.0  0.81660  0.32902  0.54282  1.0000
  H   H473      1.0  0.87592  0.41586  0.57487  1.0000
  H   H474      1.0  0.91594  0.43324  0.54296  1.0000
  H   H475      1.0  0.76237  0.30916  0.38982  1.0000
  H   H476      1.0  0.74830  0.41708  0.44606  1.0000
  C   C266      1.0  0.68961  0.33587  0.49993  1.0000
  C   C267      1.0  0.66385  0.30495  0.49849  1.0000
  C   C268      1.0  0.65466  0.28124  0.51631  1.0000
  C   C269      1.0  0.67240  0.28775  0.53515  1.0000
  C   C270      1.0  0.69925  0.31789  0.53617  1.0000
  C   C271      1.0  0.70740  0.34223  0.51873  1.0000
  H   H477      1.0  0.65006  0.29995  0.48397  1.0000
  H   H478      1.0  0.63393  0.25788  0.51545  1.0000
  H   H479      1.0  0.71306  0.32299  0.55066  1.0000
  H   H480      1.0  0.72737  0.36605  0.51993  1.0000
  C   C272      1.0  0.58703  0.40070  0.41693  1.0000
  C   C273      1.0  0.57689  0.08674  0.40580  1.0000
  C   C274      1.0  0.59528  0.42308  0.45217  1.0000
  C   C275      1.0  0.60199  0.40110  0.43673  1.0000
  H   H481      1.0  0.60833  0.42475  0.46692  1.0000
  H   H482      1.0  0.61957  0.38527  0.43993  1.0000
  C   C276      1.0  0.80777  0.38409  0.39052  1.0000
  C   C277      1.0  0.81100  0.36423  0.40900  1.0000
  C   C278      1.0  0.84253  0.35626  0.41276  1.0000
  C   C279      1.0  0.87052  0.36751  0.39778  1.0000
  C   C280      1.0  0.86708  0.38689  0.37925  1.0000
  C   C281      1.0  0.83596  0.39554  0.37577  1.0000
  H   H483      1.0  0.78942  0.35514  0.42045  1.0000
  H   H484      1.0  0.84499  0.34081  0.42694  1.0000
  H   H485      1.0  0.88865  0.39544  0.36759  1.0000
  H   H486      1.0  0.83362  0.41074  0.36144  1.0000
  C   C282      1.0  0.74572  0.09736  0.55391  1.0000
  C   C283      1.0  0.74607  0.13126  0.54697  1.0000
  C   C284      1.0  0.75665  0.15890  0.56052  1.0000
  C   C285      1.0  0.76758  0.15261  0.58090  1.0000
  C   C286      1.0  0.76792  0.11880  0.58764  1.0000
  C   C287      1.0  0.75670  0.09123  0.57429  1.0000
  H   H487      1.0  0.73894  0.13613  0.53100  1.0000
  H   H488      1.0  0.75681  0.18507  0.55518  1.0000
  H   H489      1.0  0.77665  0.11384  0.60331  1.0000
  H   H490      1.0  0.83820  0.25823  0.59460  1.0000
  C   C288      1.0  0.81287  0.16558  0.45191  1.0000
  C   C289      1.0  0.83985  0.18920  0.43992  1.0000
  C   C290      1.0  0.86564  0.21278  0.45025  1.0000
  C   C291      1.0  0.86501  0.21199  0.47261  1.0000
  C   C292      1.0  0.83793  0.18855  0.48453  1.0000
  C   C293      1.0  0.81176  0.16560  0.47425  1.0000
  H   H491      1.0  0.84107  0.18896  0.42265  1.0000
  H   H492      1.0  0.88667  0.23066  0.44096  1.0000
  H   H493      1.0  0.83709  0.18837  0.50176  1.0000
  H   H494      1.0  0.79118  0.14745  0.48362  1.0000
  C   C294      1.0  0.63225  0.15817  0.45897  1.0000
  C   C295      1.0  0.63587  0.19318  0.46294  1.0000
  C   C296      1.0  0.64544  0.21861  0.44603  1.0000
  C   C297      1.0  0.65046  0.20876  0.42521  1.0000
  C   C298      1.0  0.64599  0.17369  0.42127  1.0000
  C   C299      1.0  0.63756  0.14851  0.43821  1.0000
  H   H495      1.0  0.63218  0.20072  0.47907  1.0000
  H   H496      1.0  0.64909  0.24574  0.44912  1.0000
  H   H497      1.0  0.64951  0.16608  0.40515  1.0000
  H   H498      1.0  0.63493  0.12157  0.43517  1.0000
  C   C300      1.0  0.81427  0.42835  0.51143  1.0000
  H   H499      1.0  0.90152  0.45611  0.46758  1.0000
  H   H500      1.0  0.94671  0.37907  0.55845  1.0000
  C   C301      1.0  0.78577  0.36359  0.47874  1.0000
  H   H501      1.0  0.85828  0.05964  0.43521  1.0000
  C   C302      1.0  0.75471  0.30921  0.35626  1.0000
  C   C303      1.0  0.78749  0.32598  0.48249  1.0000
  H   H502      1.0  0.62488  0.02766  0.54561  1.0000
  H   H503      1.0  0.87044  0.20163  0.55485  1.0000
  C   C304      1.0  0.62407  0.35758  0.54677  1.0000
  H   H504      1.0  0.77062  0.42311  0.47778  1.0000
  N   N16       1.0  0.82493  0.42649  0.47024  1.0000
  H   H505      1.0  0.81502  0.40135  0.51593  1.0000
  H   H506      1.0  0.63669  0.32436  0.57186  1.0000
  H   H507      1.0  0.77325  0.48007  0.43496  1.0000
  H   H508      1.0  0.60779  0.17061  0.51874  1.0000
  H   H509      1.0  0.57527  0.10673  0.37296  1.0000
  H   H510      1.0  0.70872  0.45706  0.49461  1.0000
  H   H511      1.0  0.78704  0.42870  0.50952  1.0000
  C   C305      1.0  0.91284  0.24991  0.55164  1.0000
  H   H512      1.0  0.58905  0.10421  0.55145  1.0000
  C   C306      1.0  0.62632  0.34764  0.57042  1.0000
  H   H513      1.0  0.84261  0.28503  0.55728  1.0000
  H   H514      1.0  0.95206  0.32213  0.57317  1.0000
  C   C307      1.0  0.77126  0.29724  0.37576  1.0000
  C   C308      1.0  0.69599  0.41663  0.34904  1.0000
  C   C309      1.0  0.81375  0.25219  0.52252  1.0000
  H   H515      1.0  0.61624  0.13938  0.57769  1.0000
  C   C310      1.0  0.86252  0.25057  0.59728  1.0000
  C   C311      1.0  0.68834  0.45130  0.35372  1.0000
  C   C312      1.0  0.96140  0.36392  0.54921  1.0000
  C   C313      1.0  0.71784  0.20483  0.51357  1.0000
  H   H516      1.0  0.69383  0.17150  0.57389  1.0000
  H   H517      1.0  0.79469  0.46434  0.46814  1.0000
  H   H518      1.0  0.87047  0.02333  0.50303  1.0000
  H   H519      1.0  0.73070  0.23313  0.51264  1.0000
  H   H520      1.0  0.73650  0.19085  0.51939  1.0000
  N   N17       1.0  0.77576  0.24166  0.39755  1.0000
  C   C314      1.0  0.76074  0.25702  0.37892  1.0000
  C   C315      1.0  0.76745  0.20276  0.39575  1.0000
  C   C316      1.0  0.76010  0.25093  0.41804  1.0000
  C   C317      1.0  0.81448  0.25586  0.39739  1.0000
  C   C318      1.0  0.83481  0.25069  0.37673  1.0000
  C   C319      1.0  0.77108  0.23567  0.43902  1.0000
  C   C320      1.0  0.72899  0.18275  0.40058  1.0000
  C   C321      1.0  0.72191  0.14511  0.39418  1.0000
  C   C322      1.0  0.87336  0.26819  0.37776  1.0000
  C   C323      1.0  0.74796  0.23989  0.45815  1.0000
  H   H521      1.0  0.73198  0.24923  0.38061  1.0000
  H   H522      1.0  0.76721  0.24630  0.36364  1.0000
  H   H523      1.0  0.77479  0.19658  0.37934  1.0000
  H   H524      1.0  0.78339  0.19094  0.40639  1.0000
  H   H525      1.0  0.73136  0.24335  0.41797  1.0000
  H   H526      1.0  0.76735  0.27955  0.41936  1.0000
  H   H527      1.0  0.82149  0.28398  0.40065  1.0000
  H   H528      1.0  0.82514  0.24324  0.41074  1.0000
  H   H529      1.0  0.82563  0.26197  0.36232  1.0000
  H   H530      1.0  0.83203  0.22260  0.37470  1.0000
  H   H531      1.0  0.79817  0.24940  0.44212  1.0000
  H   H532      1.0  0.76936  0.20763  0.43837  1.0000
  H   H533      1.0  0.72198  0.18227  0.41795  1.0000
  H   H534      1.0  0.71145  0.19498  0.39171  1.0000
  H   H535      1.0  0.72609  0.14417  0.37660  1.0000
  H   H536      1.0  0.73899  0.13139  0.40242  1.0000
  H   H537      1.0  0.69464  0.13128  0.39883  1.0000
  H   H538      1.0  0.88397  0.25855  0.39224  1.0000
  H   H539      1.0  0.88770  0.26255  0.36338  1.0000
  H   H540      1.0  0.87763  0.29679  0.37806  1.0000
  H   H541      1.0  0.75884  0.23244  0.47312  1.0000
  H   H542      1.0  0.74639  0.26720  0.45879  1.0000
  H   H543      1.0  0.72143  0.22276  0.45706  1.0000
  C   C324      1.0  0.60040  0.35458  0.49491  1.0000
  C   C325      1.0  0.57211  0.32877  0.48399  1.0000
  H   H544      1.0  0.86613  0.28245  0.51799  1.0000
  H   H545      1.0  0.58654  0.04037  0.55405  1.0000
  H   H546      1.0  0.54852  0.01556  0.48240  1.0000
  H   H547      1.0  0.86064  0.23670  0.52398  1.0000
  H   H548      1.0  0.61930  0.36907  0.48211  1.0000
  H   H549      1.0  0.61379  0.33961  0.50515  1.0000
  H   H550      1.0  0.89164  0.24347  0.62507  1.0000
  C   C326      1.0  0.56587  0.11069  0.38935  1.0000
  H   H551      1.0  0.82316  0.10008  0.46569  1.0000
  H   H552      1.0  0.65716  0.08760  0.53735  1.0000
  H   H553      1.0  0.55642  0.13812  0.54030  1.0000
  H   H554      1.0  0.61700  0.45329  0.38050  1.0000
  H   H555      1.0  0.71109  0.47217  0.34737  1.0000
  H   H556      1.0  0.57643  0.05701  0.48782  1.0000
  N   N18       1.0  0.89261  0.27433  0.55964  1.0000
  H   H557      1.0  0.71923  0.41376  0.35725  1.0000
  H   H558      1.0  0.66500  0.42934  0.38470  1.0000
  H   H559      1.0  0.93540  0.04290  0.50537  1.0000
  C   C327      1.0  0.60991  0.04725  0.54294  1.0000
  C   C328      1.0  0.63009  0.02838  0.39340  1.0000
  H   H560      1.0  0.62353  0.04692  0.38162  1.0000
  H   H561      1.0  0.62317  0.05367  0.42232  1.0000
  H   H562      1.0  0.67355  0.39463  0.35445  1.0000
  H   H563      1.0  0.53763  0.05525  0.47383  1.0000
  C   C329      1.0  0.66472  0.48119  0.40924  1.0000
  C   C330      1.0  0.79165  0.43616  0.46586  1.0000
  C   C331      1.0  0.55698  0.44287  0.42864  1.0000
  H   H564      1.0  0.68360  0.14346  0.53460  1.0000
  C   C332      1.0  0.68549  0.19763  0.52856  1.0000
  C   C333      1.0  0.83783  0.44179  0.49095  1.0000
  C   C334      1.0  0.83054  0.05044  0.47787  1.0000
  C   C335      1.0  0.83281  0.13521  0.53517  1.0000
  H   H565      1.0  0.79968  0.30769  0.37318  1.0000
  S   S82       1.0  0.73308  0.06222  0.53733  1.0000
  C   C336      1.0  0.57961  0.04387  0.45464  1.0000
  C   C337      1.0  0.60887  0.38944  0.54402  1.0000
  Fe  Fe42      1.0  0.72408  0.27299  0.62495  1.0000
  H   H566      1.0  0.65822  0.15590  0.60931  1.0000
  H   H567      1.0  0.81180  0.24718  0.50523  1.0000
  H   H568      1.0  0.71062  0.19691  0.49724  1.0000
  H   H569      1.0  0.71774  0.42322  0.51181  1.0000
  C   C338      1.0  0.56407  0.42116  0.41298  1.0000
  H   H570      1.0  0.66739  0.46698  0.52325  1.0000
  C   C339      1.0  0.94853  0.32523  0.55579  1.0000
  H   H571      1.0  0.85323  0.47203  0.45078  1.0000
  H   H572      1.0  0.91612  0.19157  0.52939  1.0000
  H   H573      1.0  0.57415  0.39463  0.49571  1.0000
  H   H574      1.0  0.91098  0.47841  0.42896  1.0000
  Fe  Fe43      1.0  0.68360  0.03294  0.46618  1.0000
  H   H575      1.0  0.90054  0.20684  0.57593  1.0000
  H   H576      1.0  0.84696  0.09986  0.42909  1.0000
  H   H577      1.0  0.53725  0.10582  0.38996  1.0000
  C   C340      1.0  0.55876  0.43267  0.53012  1.0000
  C   C341      1.0  0.82147  0.38774  0.47104  1.0000
  N   N19       1.0  0.66887  0.48435  0.38505  1.0000
  H   H578      1.0  0.90392  0.07590  0.48262  1.0000
  H   H579      1.0  0.81323  0.06083  0.43572  1.0000
  C   C342      1.0  0.63886  0.15494  0.56754  1.0000
  H   H580      1.0  0.72603  0.30054  0.35834  1.0000
  H   H581      1.0  0.76250  0.33804  0.35435  1.0000
  H   H582      1.0  0.76336  0.29872  0.34149  1.0000
  C   C343      1.0  0.55453  0.19120  0.54094  1.0000
  H   H583      1.0  0.66957  0.21389  0.52168  1.0000
  H   H584      1.0  0.84139  0.38133  0.48125  1.0000
  H   H585      1.0  0.54100  0.41621  0.51932  1.0000
  H   H586      1.0  0.76964  0.45178  0.41314  1.0000
  H   H587      1.0  0.62228  0.40960  0.55473  1.0000
  C   C344      1.0  0.55917  0.04277  0.47593  1.0000
  H   H588      1.0  0.98610  0.37515  0.40487  1.0000
  H   H589      1.0  0.52191  0.46339  0.53559  1.0000
  C   C345      1.0  0.84140  0.08385  0.46284  1.0000
  C   C346      1.0  0.57220  0.16248  0.54658  1.0000
  S   S83       1.0  0.65981  0.04733  0.49625  1.0000
  H   H590      1.0  0.57196  0.15931  0.56427  1.0000
  C   C347      1.0  0.58521  0.38003  0.50792  1.0000
  H   H591      1.0  0.67821  0.06574  0.40024  1.0000
  C   C348      1.0  0.70922  0.44760  0.51151  1.0000
  H   H592      1.0  0.58184  0.38065  0.55091  1.0000
  H   H593      1.0  0.80471  0.32377  0.49561  1.0000
  H   H594      1.0  0.60033  0.34128  0.57884  1.0000
  H   H595      1.0  0.95857  0.36855  0.53183  1.0000
  H   H596      1.0  0.69330  0.20655  0.54454  1.0000
  C   C349      1.0  0.66539  0.15865  0.52998  1.0000
  H   H597      1.0  0.65940  0.15151  0.51342  1.0000
  C   C350      1.0  0.91074  0.45133  0.43409  1.0000
  H   H598      1.0  0.80398  0.09273  0.50307  1.0000
  H   H599      1.0  0.86787  0.09957  0.46548  1.0000
  H   H600      1.0  0.60554  0.09358  0.40473  1.0000
  H   H601      1.0  0.80328  0.27481  0.52556  1.0000
  H   H602      1.0  0.83194  0.13956  0.55256  1.0000
  C   C351      1.0  0.67228  0.14759  0.57623  1.0000
  N   N20       1.0  0.83375  0.05464  0.50175  1.0000
  C   C352      1.0  0.63333  0.48022  0.37661  1.0000
  C   C353      1.0  0.85158  0.25963  0.52823  1.0000
  H   H603      1.0  0.91049  0.31171  0.53250  1.0000
  H   H604      1.0  0.77574  0.37174  0.49380  1.0000
  H   H605      1.0  0.85711  0.09364  0.53798  1.0000
  C   C354      1.0  0.63246  0.08344  0.54700  1.0000
  H   H606      1.0  0.63743  0.08296  0.56426  1.0000
  H   H607      1.0  0.90069  0.43376  0.42118  1.0000
  H   H608      1.0  0.80997  0.14135  0.52814  1.0000
  H   H609      1.0  0.63457  0.48303  0.35892  1.0000
  H   H610      1.0  0.55343  0.42049  0.54658  1.0000
  C   C355      1.0  0.91821  0.18882  0.54700  1.0000
  H   H611      1.0  0.78626  0.40668  0.43637  1.0000
  H   H612      1.0  0.67541  0.43164  0.53956  1.0000
  C   C356      1.0  0.82971  0.08976  0.50776  1.0000
  C   C357      1.0  0.93276  0.06887  0.50970  1.0000
  H   H613      1.0  0.84897  0.11125  0.49875  1.0000
  H   H614      1.0  0.82182  0.47676  0.52769  1.0000
  H   H615      1.0  0.79715  0.31638  0.46767  1.0000
  H   H616      1.0  0.81065  0.08080  0.54161  1.0000
  C   C358      1.0  0.90061  0.07629  0.50027  1.0000
  C   C359      1.0  0.91021  0.31046  0.55025  1.0000
  H   H617      1.0  0.91644  0.25274  0.53383  1.0000
  H   H618      1.0  0.93135  0.06987  0.52741  1.0000
  H   H619      1.0  0.84319  0.43281  0.43692  1.0000
  C   C360      1.0  0.83280  0.09755  0.53178  1.0000
  H   H620      1.0  0.72838  0.46739  0.51975  1.0000
  H   H621      1.0  0.89990  0.10276  0.50464  1.0000
  C   C361      1.0  0.77676  0.42744  0.44367  1.0000
  H   H622      1.0  0.65592  0.39205  0.50915  1.0000
  H   H623      1.0  0.81243  0.43800  0.54527  1.0000
  H   H624      1.0  0.64538  0.42635  0.49460  1.0000
  C   C362      1.0  0.86822  0.25211  0.62123  1.0000
  H   H625      1.0  0.77927  0.03288  0.50996  1.0000
  H   H626      1.0  0.85653  0.15303  0.52742  1.0000
  H   H627      1.0  0.87104  0.27896  0.62639  1.0000
  H   H628      1.0  0.88854  0.41229  0.45894  1.0000
  C   C363      1.0  0.68263  0.45437  0.37809  1.0000
  H   H629      1.0  0.86299  0.43647  0.49442  1.0000
  H   H630      1.0  0.79792  0.22885  0.53190  1.0000
  C   C364      1.0  0.64578  0.41509  0.51114  1.0000
  H   H631      1.0  0.60157  0.04608  0.52623  1.0000
  C   C365      1.0  0.66793  0.13685  0.60011  1.0000
  H   H632      1.0  0.89253  0.30204  0.58886  1.0000
  C   C366      1.0  0.89800  0.21105  0.55851  1.0000
  C   C367      1.0  0.89295  0.27561  0.58383  1.0000
  H   H633      1.0  0.75682  0.06513  0.57971  1.0000
  S   S84       1.0  0.56579  0.47179  0.46766  1.0000
  H   H634      1.0  0.58880  0.07128  0.44863  1.0000
  H   H635      1.0  0.76685  0.36385  0.46633  1.0000
  C   C368      1.0  0.83989  0.07530  0.43929  1.0000
  H   H636      1.0  0.69338  0.13555  0.60604  1.0000
  H   H637      1.0  0.89549  0.32906  0.55555  1.0000
  H   H638      1.0  0.56850  0.21606  0.54756  1.0000
  H   H639      1.0  0.76120  0.30935  0.48723  1.0000
  H   H640      1.0  0.71285  0.46675  0.41723  1.0000
  H   H641      1.0  0.53981  0.45918  0.42540  1.0000
  H   H642      1.0  0.82722  0.37914  0.45494  1.0000
  S   S85       1.0  0.73809  0.05277  0.47608  1.0000
  H   H643      1.0  0.52751  0.18387  0.54787  1.0000
  H   H644      1.0  0.66541  0.45260  0.34477  1.0000
  C   C369      1.0  0.67348  0.44139  0.52291  1.0000
  H   H645      1.0  0.81119  0.46964  0.42336  1.0000
  C   C370      1.0  0.57286  0.44395  0.44819  1.0000
  H   H646      1.0  0.84301  0.47067  0.48945  1.0000
  H   H647      1.0  0.60134  0.45195  0.50657  1.0000
  H   H648      1.0  0.85869  0.22327  0.59297  1.0000
  H   H649      1.0  0.55905  0.34272  0.47262  1.0000
  C   C371      1.0  0.85586  0.26499  0.55245  1.0000
  H   H650      1.0  0.64696  0.45562  0.41459  1.0000
  H   H651      1.0  0.68079  0.12700  0.56811  1.0000
  H   H652      1.0  0.56434  0.48070  0.37095  1.0000
  N   N21       1.0  0.63255  0.14901  0.54421  1.0000
  H   H653      1.0  0.55255  0.42095  0.39764  1.0000
  C   C372      1.0  0.80453  0.02748  0.51342  1.0000
  Fe  Fe44      1.0  0.98895  0.34600  0.45731  1.0000
  H   H654      1.0  0.64952  0.11079  0.60286  1.0000
  H   H655      1.0  0.60588  0.10855  0.52446  1.0000
  H   H656      1.0  0.62115  0.19893  0.53973  1.0000
  C   C373      1.0  0.61352  0.11164  0.54132  1.0000
  C   C374      1.0  0.60966  0.17137  0.53647  1.0000
  H   H657      1.0  0.64029  0.18244  0.57105  1.0000
  H   H658      1.0  0.65055  0.36272  0.53934  1.0000
  C   C375      1.0  0.78331  0.45928  0.42795  1.0000
  H   H659      1.0  0.55272  0.31285  0.49604  1.0000
  H   H660      1.0  0.90755  0.16105  0.55236  1.0000
  H   H661      1.0  0.60273  0.03441  0.45801  1.0000
  C   C376      1.0  0.56121  0.04803  0.40158  1.0000
  C   C377      1.0  0.86747  0.04857  0.50860  1.0000
  C   C378      1.0  0.59730  0.43765  0.52260  1.0000
  H   H662      1.0  0.61273  0.45570  0.53374  1.0000
  H   H663      1.0  0.84025  0.24029  0.56052  1.0000
  H   H664      1.0  0.93949  0.25696  0.55744  1.0000
  H   H665      1.0  0.93777  0.45037  0.43659  1.0000
  H   H666      1.0  0.95619  0.08882  0.50322  1.0000
  H   H667      1.0  0.80326  0.03833  0.47421  1.0000
  H   H668      1.0  0.91747  0.27116  0.58962  1.0000
  H   H669      1.0  0.85473  0.45407  0.53207  1.0000
  C   C379      1.0  0.82666  0.45071  0.53022  1.0000
  H   H670      1.0  0.55396  0.19507  0.52328  1.0000
  H   H671      1.0  0.64406  0.36913  0.57830  1.0000
  H   H672      1.0  0.56756  0.09265  0.42174  1.0000
  H   H673      1.0  0.84510  0.03192  0.47215  1.0000
  H   H674      1.0  0.94596  0.19673  0.55069  1.0000
  H   H675      1.0  0.60710  0.33468  0.53975  1.0000
  H   H676      1.0  0.96545  0.31178  0.54698  1.0000
  H   H677      1.0  0.58385  0.31103  0.47485  1.0000
  H   H678      1.0  0.80634  0.02859  0.53105  1.0000
  N   N22       1.0  0.60960  0.40490  0.52150  1.0000
  H   H679      1.0  0.84549  0.23458  0.63030  1.0000
  H   H680      1.0  0.70095  0.41537  0.33156  1.0000
  C   C380      1.0  0.69838  0.48579  0.42154  1.0000
  H   H681      1.0  0.67419  0.45370  0.44994  1.0000
  H   H682      1.0  0.98922  0.37342  0.55244  1.0000
  H   H683      1.0  0.67731  0.02084  0.40674  1.0000
  H   H684      1.0  0.56685  0.04436  0.38442  1.0000
  C   C381      1.0  0.55729  0.02067  0.43844  1.0000
  C   C382      1.0  0.66934  0.03875  0.39509  1.0000
  C   C383      1.0  0.61120  0.02847  0.41552  1.0000
  H   H685      1.0  0.53264  0.04377  0.40320  1.0000
  H   H686      1.0  0.53161  0.02666  0.43849  1.0000
  H   H687      1.0  0.68226  0.03737  0.37924  1.0000
  H   H688      1.0  0.78515  0.37106  0.62800  1.0000
  H   H689      1.0  0.61818  0.00861  0.42621  1.0000
  C   C384      1.0  0.54959  0.46760  0.53038  1.0000
  N   N23       1.0  0.57233  0.02170  0.41572  1.0000
  H   H690      1.0  0.71446  0.48471  0.45424  1.0000
  H   H691      1.0  0.75049  0.38893  0.63720  1.0000
  H   H692      1.0  0.55372  0.48079  0.51413  1.0000
  H   H693      1.0  0.62325  0.00199  0.38716  1.0000
  H   H694      1.0  0.56563  0.48483  0.54165  1.0000
  C   C385      1.0  0.69008  0.48060  0.44572  1.0000
  S   S86       1.0  0.63685  0.00585  0.90883  1.0000
  S   S87       1.0  0.68672  0.08465  0.91531  1.0000
  Fe  Fe45      1.0  0.69316  0.03358  0.90488  1.0000
  S   S88       1.0  0.70614  0.01568  0.93722  1.0000
  H   H695      1.0  0.84614  0.17088  0.86669  1.0000
  S   S89       1.0  0.98480  0.34726  0.96776  1.0000
  S   S90       1.0  0.84284  0.29818  0.92894  1.0000
  Fe  Fe46      1.0  0.89119  0.33430  0.91368  1.0000
  S   S91       1.0  0.89008  0.35380  0.87943  1.0000
  S   S92       1.0  0.92594  0.30063  0.92288  1.0000
  Fe  Fe47      1.0  0.59931  0.28787  0.90171  1.0000
  S   S93       1.0  0.58622  0.27672  0.86785  1.0000
  C   C386      1.0  0.52298  0.03293  0.95053  1.0000
  Fe  Fe48      1.0  0.78751  0.22112  0.80789  1.0000
  S   S94       1.0  0.78740  0.26293  0.78280  1.0000
  S   S95       1.0  0.83007  0.21909  0.82952  1.0000
  Fe  Fe49      1.0  0.71727  0.17667  0.79784  1.0000
  S   S96       1.0  0.71029  0.21439  0.77203  1.0000
  S   S97       1.0  0.67508  0.12801  0.80590  1.0000
  Fe  Fe50      1.0  0.76567  0.21869  0.76222  1.0000
  S   S98       1.0  0.78414  0.21574  0.72814  1.0000
  Fe  Fe51      1.0  0.73219  0.25516  0.79485  1.0000
  S   S99       1.0  0.70881  0.30026  0.79764  1.0000
  S   S100      1.0  0.77091  0.17734  0.78624  1.0000
  S   S101      1.0  0.73399  0.21701  0.82176  1.0000
  H   H696      1.0  0.59939  0.41517  0.89287  1.0000
  H   H697      1.0  0.82282  0.42925  0.90944  1.0000
  C   C387      1.0  0.75969  0.23044  0.70906  1.0000
  C   C388      1.0  0.73533  0.24832  0.71508  1.0000
  C   C389      1.0  0.71721  0.26141  0.69946  1.0000
  C   C390      1.0  0.72375  0.25703  0.67779  1.0000
  C   C391      1.0  0.74767  0.23862  0.67179  1.0000
  C   C392      1.0  0.76554  0.22522  0.68741  1.0000
  H   H698      1.0  0.73106  0.25291  0.73171  1.0000
  H   H699      1.0  0.69875  0.27571  0.70414  1.0000
  H   H700      1.0  0.75242  0.23466  0.65512  1.0000
  H   H701      1.0  0.78425  0.21124  0.68270  1.0000
  C   C393      1.0  0.62184  0.28521  0.84937  1.0000
  C   C394      1.0  0.61950  0.30124  0.82939  1.0000
  C   C395      1.0  0.64678  0.30655  0.81385  1.0000
  C   C396      1.0  0.67559  0.29395  0.81772  1.0000
  C   C397      1.0  0.67771  0.27719  0.83757  1.0000
  C   C398      1.0  0.65132  0.27385  0.85367  1.0000
  H   H702      1.0  0.59670  0.30992  0.82600  1.0000
  H   H703      1.0  0.64506  0.31955  0.79856  1.0000
  H   H704      1.0  0.70014  0.26782  0.84075  1.0000
  H   H705      1.0  0.65317  0.26144  0.86911  1.0000
  H   H706      1.0  0.53855  0.19792  0.89568  1.0000
  H   H707      1.0  0.69702  0.09000  0.75036  1.0000
  S   S102      1.0  0.60427  0.34175  0.91250  1.0000
  H   H708      1.0  0.78583  0.39984  0.84993  1.0000
  C   C399      1.0  0.87474  0.31720  0.86458  1.0000
  C   C400      1.0  0.86213  0.32027  0.84420  1.0000
  C   C401      1.0  0.84750  0.29022  0.83332  1.0000
  C   C402      1.0  0.84662  0.25736  0.84261  1.0000
  C   C403      1.0  0.85967  0.25466  0.86274  1.0000
  C   C404      1.0  0.87336  0.28434  0.87374  1.0000
  H   H709      1.0  0.86320  0.34571  0.83703  1.0000
  H   H710      1.0  0.83763  0.29249  0.81767  1.0000
  H   H711      1.0  0.85843  0.22956  0.87022  1.0000
  H   H712      1.0  0.88249  0.28151  0.88948  1.0000
  C   C405      1.0  0.62731  0.15346  0.95514  1.0000
  C   C406      1.0  0.71075  0.05819  0.85479  1.0000
  C   C407      1.0  0.67690  0.06172  0.85622  1.0000
  C   C408      1.0  0.66572  0.08212  0.84068  1.0000
  C   C409      1.0  0.68883  0.10054  0.82429  1.0000
  C   C410      1.0  0.72276  0.09713  0.82288  1.0000
  C   C411      1.0  0.73342  0.07528  0.83783  1.0000
  H   H713      1.0  0.65920  0.04855  0.86921  1.0000
  H   H714      1.0  0.63940  0.08416  0.84172  1.0000
  H   H715      1.0  0.74066  0.11090  0.81013  1.0000
  H   H716      1.0  0.61256  0.24306  0.79881  1.0000
  H   H717      1.0  0.75638  0.08349  0.74336  1.0000
  H   H718      1.0  0.65095  0.20737  0.81491  1.0000
  H   H719      1.0  0.54811  0.43289  0.90813  1.0000
  N   N24       1.0  0.81456  0.34545  0.68923  1.0000
  C   C412      1.0  0.82727  0.31316  0.69227  1.0000
  C   C413      1.0  0.78691  0.34569  0.70644  1.0000
  C   C414      1.0  0.79818  0.34402  0.66781  1.0000
  C   C415      1.0  0.84370  0.37821  0.68872  1.0000
  C   C416      1.0  0.86651  0.38343  0.70829  1.0000
  C   C417      1.0  0.85430  0.30796  0.67516  1.0000
  C   C418      1.0  0.77876  0.37230  0.66273  1.0000
  C   C419      1.0  0.79092  0.33049  0.72922  1.0000
  C   C420      1.0  0.76335  0.33633  0.74519  1.0000
  S   S103      1.0  0.61823  0.31122  0.95977  1.0000
  C   C421      1.0  0.86672  0.27574  0.68108  1.0000
  H   H720      1.0  0.71846  0.39339  0.88135  1.0000
  H   H721      1.0  0.80491  0.28995  0.69259  1.0000
  H   H722      1.0  0.83854  0.31169  0.70806  1.0000
  H   H723      1.0  0.78405  0.37256  0.70796  1.0000
  H   H724      1.0  0.76121  0.33001  0.70177  1.0000
  H   H725      1.0  0.77940  0.31823  0.66645  1.0000
  H   H726      1.0  0.81800  0.34652  0.65444  1.0000
  H   H727      1.0  0.86085  0.38020  0.67402  1.0000
  H   H728      1.0  0.83337  0.40151  0.68743  1.0000
  H   H729      1.0  0.87594  0.36032  0.71247  1.0000
  H   H730      1.0  0.85172  0.38965  0.72225  1.0000
  H   H731      1.0  0.84288  0.30397  0.65931  1.0000
  H   H732      1.0  0.87729  0.33060  0.67370  1.0000
  H   H733      1.0  0.79628  0.39879  0.66281  1.0000
  H   H734      1.0  0.75670  0.37025  0.67447  1.0000
  H   H735      1.0  0.78767  0.30201  0.72906  1.0000
  H   H736      1.0  0.81654  0.34194  0.73541  1.0000
  H   H737      1.0  0.76574  0.36452  0.74652  1.0000
  H   H738      1.0  0.73700  0.32339  0.74026  1.0000
  H   H739      1.0  0.76661  0.32504  0.76125  1.0000
  H   H740      1.0  0.93787  0.19176  0.88050  1.0000
  C   C422      1.0  0.82545  0.10498  0.90561  1.0000
  H   H741      1.0  0.82434  0.35520  0.89858  1.0000
  H   H742      1.0  0.84464  0.25210  0.68226  1.0000
  H   H743      1.0  0.88587  0.27232  0.66860  1.0000
  H   H744      1.0  0.87925  0.27844  0.69665  1.0000
  H   H745      1.0  0.86398  0.08127  0.83141  1.0000
  H   H746      1.0  0.78332  0.36544  0.79467  1.0000
  H   H747      1.0  0.85442  0.13749  0.84141  1.0000
  H   H748      1.0  0.82450  0.12316  0.91852  1.0000
  H   H749      1.0  0.55088  0.20814  0.85613  1.0000
  H   H750      1.0  0.62312  0.16953  0.80411  1.0000
  H   H751      1.0  0.89377  0.13857  0.87265  1.0000
  C   C423      1.0  0.77708  0.26226  0.89291  1.0000
  C   C424      1.0  0.52316  0.18068  0.88413  1.0000
  H   H752      1.0  0.74325  0.13761  0.93129  1.0000
  H   H753      1.0  0.63671  0.22449  0.78006  1.0000
  H   H754      1.0  0.74621  0.14577  0.68136  1.0000
  C   C425      1.0  0.54478  0.18124  0.86338  1.0000
  H   H755      1.0  0.72923  0.10663  0.71331  1.0000
  H   H756      1.0  0.70280  0.17449  0.69018  1.0000
  H   H757      1.0  0.54361  0.01981  0.94681  1.0000
  H   H758      1.0  0.83559  0.39296  0.88024  1.0000
  H   H759      1.0  0.53450  0.06140  0.94890  1.0000
  C   C426      1.0  0.66354  0.06667  0.70566  1.0000
  H   H760      1.0  0.71189  0.23621  0.92454  1.0000
  S   S104      1.0  0.56291  0.26181  0.92925  1.0000
  H   H761      1.0  0.76394  0.36301  0.90390  1.0000
  H   H762      1.0  0.85111  0.09921  0.90634  1.0000
  Fe  Fe52      1.0  0.87797  0.26638  0.94006  1.0000
  C   C427      1.0  0.79832  0.07004  0.91189  1.0000
  S   S105      1.0  0.86180  0.20871  0.93524  1.0000
  S   S106      1.0  0.64740  0.28111  0.91648  1.0000
  C   C428      1.0  0.71438  0.21165  0.93258  1.0000
  H   H763      1.0  0.79527  0.18364  0.91755  1.0000
  S   S107      1.0  0.58884  0.07975  0.91416  1.0000
  S   S108      1.0  0.70305  0.27609  0.65841  1.0000
  C   C429      1.0  0.79369  0.17294  0.93382  1.0000
  C   C430      1.0  0.84800  0.15692  0.88212  1.0000
  C   C431      1.0  0.54068  0.42281  0.92442  1.0000
  C   C432      1.0  0.58146  0.17084  0.93734  1.0000
  H   H764      1.0  0.73665  0.28839  0.89574  1.0000
  C   C433      1.0  0.71828  0.11375  0.74651  1.0000
  H   H765      1.0  0.66499  0.07104  0.68800  1.0000
  C   C434      1.0  0.77989  0.37436  0.88919  1.0000
  C   C435      1.0  0.72863  0.36568  0.94540  1.0000
  H   H766      1.0  0.80852  0.12084  0.83889  1.0000
  H   H767      1.0  0.62969  0.18611  0.75026  1.0000
  H   H768      1.0  0.72158  0.17247  0.65065  1.0000
  H   H769      1.0  0.73175  0.15800  0.88898  1.0000
  H   H770      1.0  0.68817  0.19445  0.93646  1.0000
  H   H771      1.0  0.77287  0.24874  0.90897  1.0000
  H   H772      1.0  0.91503  0.40905  0.69049  1.0000
  Fe  Fe53      1.0  0.63143  0.05530  0.92236  1.0000
  H   H773      1.0  0.56796  0.07939  0.81227  1.0000
  S   S109      1.0  0.88871  0.29273  0.97089  1.0000
  S   S110      1.0  0.90193  0.36733  0.94208  1.0000
  H   H774      1.0  0.53650  0.11145  0.84932  1.0000
  H   H775      1.0  0.76051  0.23552  0.94845  1.0000
  Fe  Fe54      1.0  0.93312  0.33077  0.95258  1.0000
  C   C436      1.0  0.62173  0.12387  0.94329  1.0000
  H   H776      1.0  0.67092  0.41925  0.95994  1.0000
  C   C437      1.0  0.71983  0.12580  0.72250  1.0000
  H   H777      1.0  0.82951  0.05463  0.93647  1.0000
  C   C438      1.0  0.71957  0.13341  0.67662  1.0000
  H   H778      1.0  0.71584  0.10495  0.67802  1.0000
  H   H779      1.0  0.74089  0.15026  0.72008  1.0000
  H   H780      1.0  0.80141  0.04968  0.90100  1.0000
  Fe  Fe55      1.0  0.64947  0.33293  0.92961  1.0000
  C   C439      1.0  0.74138  0.15842  0.87206  1.0000
  H   H781      1.0  0.54980  0.00697  0.89808  1.0000
  N   N25       1.0  0.64649  0.45838  0.94823  1.0000
  H   H782      1.0  0.80579  0.32224  0.87016  1.0000
  H   H783      1.0  0.77547  0.40062  0.88659  1.0000
  C   C440      1.0  0.75204  0.10545  0.75244  1.0000
  H   H784      1.0  0.77416  0.30454  0.94899  1.0000
  C   C441      1.0  0.76444  0.14663  0.94148  1.0000
  H   H785      1.0  0.71664  0.33240  0.88517  1.0000
  Fe  Fe56      1.0  0.57232  0.31514  0.94157  1.0000
  H   H786      1.0  0.76631  0.30158  0.85918  1.0000
  C   C442      1.0  0.77734  0.31821  0.87231  1.0000
  H   H787      1.0  0.82122  0.37353  0.81020  1.0000
  H   H788      1.0  0.61556  0.49474  0.94229  1.0000
  H   H789      1.0  0.66191  0.35062  0.87549  1.0000
  S   S111      1.0  0.69684  0.37716  0.93049  1.0000
  H   H790      1.0  0.71706  0.45428  0.94323  1.0000
  C   C443      1.0  0.59546  0.11709  0.92882  1.0000
  C   C444      1.0  0.53984  0.38829  0.93036  1.0000
  H   H791      1.0  0.73807  0.18222  0.86356  1.0000
  H   H792      1.0  0.63813  0.01199  0.70319  1.0000
  H   H793      1.0  0.78792  0.15907  0.85384  1.0000
  H   H794      1.0  0.78438  0.03163  0.93860  1.0000
  C   C445      1.0  0.73769  0.33461  0.94213  1.0000
  H   H795      1.0  0.81787  0.06364  0.82931  1.0000
  H   H796      1.0  0.52343  0.06741  0.82241  1.0000
  H   H797      1.0  0.90787  0.20202  0.86218  1.0000
  N   N26       1.0  0.68684  0.13158  0.71404  1.0000
  C   C446      1.0  0.69286  0.14567  0.69094  1.0000
  Fe  Fe57      1.0  0.69512  0.06490  0.94816  1.0000
  H   H798      1.0  0.66927  0.16239  0.90543  1.0000
  C   C447      1.0  0.65747  0.09898  0.71637  1.0000
  C   C448      1.0  0.72948  0.34581  0.86991  1.0000
  H   H799      1.0  0.69954  0.18108  0.72871  1.0000
  H   H800      1.0  0.77638  0.30982  0.90735  1.0000
  C   C449      1.0  0.62352  0.43620  0.88944  1.0000
  C   C450      1.0  0.57864  0.17045  0.86774  1.0000
  C   C451      1.0  0.74647  0.38879  0.95977  1.0000
  H   H801      1.0  0.61020  0.12656  0.82840  1.0000
  C   C452      1.0  0.89836  0.41411  0.70395  1.0000
  C   C453      1.0  0.67672  0.15859  0.72728  1.0000
  H   H802      1.0  0.66791  0.14054  0.68284  1.0000
  H   H803      1.0  0.64979  0.09170  0.73358  1.0000
  Fe  Fe58      1.0  0.61143  0.25996  0.94520  1.0000
  H   H804      1.0  0.56584  0.18898  0.93506  1.0000
  H   H805      1.0  0.63393  0.10371  0.70937  1.0000
  H   H806      1.0  0.64516  0.19332  0.89848  1.0000
  C   C454      1.0  0.66297  0.17851  0.89205  1.0000
  H   H807      1.0  0.76732  0.10302  0.87778  1.0000
  C   C455      1.0  0.63349  0.03468  0.71136  1.0000
  H   H808      1.0  0.66852  0.14799  0.74398  1.0000
  H   H809      1.0  0.73653  0.19403  0.96000  1.0000
  N   N27       1.0  0.60120  0.16643  0.84847  1.0000
  C   C456      1.0  0.63120  0.45942  0.90836  1.0000
  H   H810      1.0  0.62253  0.13630  0.88272  1.0000
  C   C457      1.0  0.55481  0.11432  0.83516  1.0000
  C   C458      1.0  0.64583  0.15460  0.87501  1.0000
  H   H811      1.0  0.65327  0.42175  0.92493  1.0000
  H   H812      1.0  0.89058  0.43839  0.70002  1.0000
  S   S112      1.0  0.72522  0.03379  0.87469  1.0000
  H   H813      1.0  0.64525  0.42435  0.88607  1.0000
  C   C459      1.0  0.82798  0.09850  0.86698  1.0000
  H   H814      1.0  0.65431  0.18744  0.70306  1.0000
  H   H815      1.0  0.55677  0.06022  0.83920  1.0000
  H   H816      1.0  0.68723  0.19697  0.88537  1.0000
  C   C460      1.0  0.82157  0.18437  0.94684  1.0000
  C   C461      1.0  0.64700  0.17338  0.71894  1.0000
  H   H817      1.0  0.84138  0.09926  0.81140  1.0000
  H   H818      1.0  0.62303  0.15244  0.71754  1.0000
  H   H819      1.0  0.61709  0.20936  0.72795  1.0000
  H   H820      1.0  0.85127  0.08911  0.87018  1.0000
  H   H821      1.0  0.66340  0.13837  0.87026  1.0000
  N   N28       1.0  0.82177  0.12203  0.88410  1.0000
  H   H822      1.0  0.59627  0.11159  0.85490  1.0000
  H   H823      1.0  0.74537  0.35941  0.82698  1.0000
  C   C462      1.0  0.63830  0.19913  0.73421  1.0000
  H   H824      1.0  0.71967  0.32759  0.85735  1.0000
  H   H825      1.0  0.72379  0.31665  0.93110  1.0000
  H   H826      1.0  0.59331  0.19079  0.87800  1.0000
  C   C463      1.0  0.55058  0.07810  0.82675  1.0000
  H   H827      1.0  0.66118  0.22144  0.73571  1.0000
  C   C464      1.0  0.80284  0.05737  0.93473  1.0000
  H   H828      1.0  0.64771  0.20352  0.85687  1.0000
  H   H829      1.0  0.85525  0.40705  0.91617  1.0000
  H   H830      1.0  0.68714  0.22505  0.96880  1.0000
  H   H831      1.0  0.54635  0.37166  0.91859  1.0000
  H   H832      1.0  0.52851  0.16409  0.85229  1.0000
  H   H833      1.0  0.80622  0.07451  0.86746  1.0000
  H   H834      1.0  0.55413  0.13483  0.91526  1.0000
  H   H835      1.0  0.69197  0.13064  0.64717  1.0000
  H   H836      1.0  0.65561  0.17004  0.84160  1.0000
  H   H837      1.0  0.89116  0.14846  0.90046  1.0000
  C   C465      1.0  0.63833  0.17514  0.85477  1.0000
  C   C466      1.0  0.83233  0.11403  0.84362  1.0000
  H   H838      1.0  0.72573  0.13542  0.86439  1.0000
  H   H839      1.0  0.54760  0.13080  0.82238  1.0000
  C   C467      1.0  0.59851  0.19175  0.83037  1.0000
  H   H840      1.0  0.72824  0.19828  0.92145  1.0000
  C   C468      1.0  0.59222  0.12948  0.84172  1.0000
  H   H841      1.0  0.57131  0.14596  0.87803  1.0000
  H   H842      1.0  0.60292  0.21825  0.83644  1.0000
  C   C469      1.0  0.76524  0.29578  0.89337  1.0000
  Fe  Fe59      1.0  0.85701  0.32734  0.95834  1.0000
  C   C470      1.0  0.76616  0.32782  0.95217  1.0000
  H   H843      1.0  0.57204  0.18574  0.82444  1.0000
  H   H844      1.0  0.84217  0.17372  0.89475  1.0000
  H   H845      1.0  0.50924  0.03361  0.91741  1.0000
  C   C471      1.0  0.62406  0.19511  0.81062  1.0000
  H   H846      1.0  0.63121  0.02836  0.72891  1.0000
  H   H847      1.0  0.79400  0.18315  0.87759  1.0000
  C   C472      1.0  0.83931  0.08782  0.82805  1.0000
  C   C473      1.0  0.63531  0.43793  0.92889  1.0000
  H   H848      1.0  0.71846  0.26402  0.96095  1.0000
  S   S113      1.0  0.53491  0.48778  0.93245  1.0000
  H   H849      1.0  0.75071  0.09797  0.76981  1.0000
  H   H850      1.0  0.64763  0.15841  0.96633  1.0000
  C   C474      1.0  0.78529  0.12648  0.88366  1.0000
  C   C475      1.0  0.61544  0.21823  0.79268  1.0000
  H   H851      1.0  0.60992  0.41885  0.93246  1.0000
  H   H852      1.0  0.59103  0.20477  0.78549  1.0000
  C   C476      1.0  0.81843  0.38017  0.89420  1.0000
  C   C477      1.0  0.67710  0.36812  0.86226  1.0000
  H   H853      1.0  0.80516  0.26807  0.88864  1.0000
  H   H854      1.0  0.75938  0.07219  0.83655  1.0000
  H   H855      1.0  0.90483  0.21140  0.89017  1.0000
  H   H856      1.0  0.66733  0.39167  0.86065  1.0000
  C   C478      1.0  0.61847  0.47535  0.95493  1.0000
  C   C479      1.0  0.71755  0.14392  0.65302  1.0000
  H   H857      1.0  0.76274  0.24471  0.88115  1.0000
  C   C480      1.0  0.91062  0.19267  0.87883  1.0000
  H   H858      1.0  0.71451  0.13452  0.75687  1.0000
  H   H859      1.0  0.91377  0.41796  0.71843  1.0000
  H   H860      1.0  0.68740  0.06029  0.71086  1.0000
  C   C481      1.0  0.88642  0.15649  0.88390  1.0000
  H   H861      1.0  0.51417  0.15382  0.89146  1.0000
  C   C482      1.0  0.53148  0.44415  0.93948  1.0000
  N   N29       1.0  0.76820  0.35262  0.87046  1.0000
  H   H862      1.0  0.73944  0.41270  0.96249  1.0000
  C   C483      1.0  0.82747  0.40336  0.91303  1.0000
  C   C484      1.0  0.79442  0.37648  0.80960  1.0000
  C   C485      1.0  0.78624  0.37203  0.85021  1.0000
  S   S114      1.0  0.63882  0.03942  0.95626  1.0000
  C   C486      1.0  0.73405  0.21900  0.95296  1.0000
  H   H863      1.0  0.67321  0.35482  0.84702  1.0000
  H   H864      1.0  0.79750  0.07590  0.94636  1.0000
  C   C487      1.0  0.60765  0.17726  0.95193  1.0000
  H   H865      1.0  0.65498  0.48020  0.90379  1.0000
  C   C488      1.0  0.81908  0.17096  0.96803  1.0000
  C   C489      1.0  0.77958  0.15858  0.87087  1.0000
  H   H866      1.0  0.79504  0.40451  0.80919  1.0000
  H   H867      1.0  0.77184  0.32925  0.82815  1.0000
  H   H868      1.0  0.77494  0.12849  0.90010  1.0000
  H   H869      1.0  0.72917  0.39585  0.85304  1.0000
  H   H870      1.0  0.81423  0.37267  0.84975  1.0000
  H   H871      1.0  0.63823  0.10669  0.94527  1.0000
  H   H872      1.0  0.77140  0.07246  0.91123  1.0000
  H   H873      1.0  0.81186  0.39109  0.92769  1.0000
  C   C490      1.0  0.71550  0.37844  0.86668  1.0000
  C   C491      1.0  0.57491  0.14032  0.92609  1.0000
  H   H874      1.0  0.59305  0.45588  0.95644  1.0000
  C   C492      1.0  0.77212  0.35704  0.82889  1.0000
  C   C493      1.0  0.53027  0.37534  0.95143  1.0000
  C   C494      1.0  0.71528  0.23773  0.96875  1.0000
  H   H875      1.0  0.50016  0.19029  0.88069  1.0000
  H   H876      1.0  0.62018  0.45190  0.87498  1.0000
  H   H877      1.0  0.77430  0.12859  0.74898  1.0000
  H   H878      1.0  0.60875  0.03916  0.70610  1.0000
  C   C495      1.0  0.67965  0.48631  0.94331  1.0000
  C   C496      1.0  0.78378  0.35082  0.96669  1.0000
  C   C497      1.0  0.76256  0.13228  0.96240  1.0000
  H   H879      1.0  0.76351  0.49500  0.92136  1.0000
  H   H880      1.0  0.60944  0.47162  0.91068  1.0000
  H   H881      1.0  0.70329  0.46298  0.91711  1.0000
  S   S115      1.0  0.53066  0.33289  0.95940  1.0000
  H   H882      1.0  0.73799  0.13640  0.64325  1.0000
  C   C498      1.0  0.71000  0.47418  0.93276  1.0000
  H   H883      1.0  0.97849  0.40804  0.94196  1.0000
  C   C499      1.0  0.49642  0.02421  0.93340  1.0000
  C   C500      1.0  0.52089  0.43090  0.96042  1.0000
  S   S116      1.0  0.61661  0.21497  0.96616  1.0000
  H   H884      1.0  0.60868  0.38790  0.96256  1.0000
  C   C501      1.0  0.65243  0.43376  0.96580  1.0000
  C   C502      1.0  0.52056  0.39657  0.96640  1.0000
  H   H885      1.0  0.57578  0.99706  0.87642  1.0000
  C   C503      1.0  0.76412  0.36846  0.64057  1.0000
  C   C504      1.0  0.77340  0.38089  0.97084  1.0000
  H   H886      1.0  0.74531  0.34277  0.63980  1.0000
  H   H887      1.0  0.62005  0.80301  0.99941  1.0000
  H   H888      1.0  0.53660  0.52715  0.07438  1.0000
  H   H889      1.0  0.49259  0.58734  0.10166  1.0000
  C   C505      1.0  0.51044  0.57273  0.09502  1.0000
  C   C506      1.0  0.52913  0.88199  0.97586  1.0000
  H   H890      1.0  0.67666  0.78505  0.99181  1.0000
  H   H891      1.0  0.55126  0.69385  0.00722  1.0000
  C   C507      1.0  0.51744  0.53637  0.06485  1.0000
  C   C508      1.0  0.50247  0.50787  0.04915  1.0000
  H   H892      1.0  0.51157  0.70017  0.09709  1.0000
  H   H893      1.0  0.51011  0.67887  0.04010  1.0000
  N   N30       1.0  0.56857  0.76875  0.00600  1.0000
  H   H894      1.0  0.55907  0.73241  0.98065  1.0000
  C   C509      1.0  0.55533  0.62900  0.10124  1.0000
  H   H895      1.0  0.66509  0.74855  0.01138  1.0000
  H   H896      1.0  0.58143  0.87808  0.97922  1.0000
  H   H897      1.0  0.53275  0.55905  0.05472  1.0000
  H   H898      1.0  0.67327  0.74154  0.98364  1.0000
  H   H899      1.0  0.49972  0.96546  0.01738  1.0000
  H   H900      1.0  0.57860  0.95255  0.00919  1.0000
  H   H901      1.0  0.59722  0.81962  0.03503  1.0000
  H   H902      1.0  0.55907  0.61859  0.11746  1.0000
  H   H903      1.0  0.58073  0.87228  0.02092  1.0000
  C   C510      1.0  0.66205  0.75735  0.99466  1.0000
  C   C511      1.0  0.56397  0.85421  0.03333  1.0000
  C   C512      1.0  0.60753  0.77560  0.00514  1.0000
  C   C513      1.0  0.54418  0.59948  0.08617  1.0000
  C   C514      1.0  0.55300  0.75683  0.98522  1.0000
  H   H904      1.0  0.61651  0.77315  0.02162  1.0000
  C   C515      1.0  0.55191  0.74199  0.02372  1.0000
  H   H905      1.0  0.54718  0.68929  0.05641  1.0000
  H   H906      1.0  0.58010  0.64702  0.09493  1.0000
  H   H907      1.0  0.61066  0.72474  0.99285  1.0000
  H   H908      1.0  0.53642  0.85338  0.03085  1.0000
  H   H909      1.0  0.53548  0.64394  0.10245  1.0000
  S   S117      1.0  0.50247  0.51778  0.98726  1.0000
  H   H910      1.0  0.53815  0.97785  0.99007  1.0000
  C   C516      1.0  0.55892  0.80205  0.01069  1.0000
  C   C517      1.0  0.53158  0.49872  0.03601  1.0000
  H   H911      1.0  0.57074  0.82270  0.99813  1.0000
  H   H912      1.0  0.51766  0.75255  0.07312  1.0000
  C   C518      1.0  0.53820  0.68061  0.04053  1.0000
  C   C519      1.0  0.56959  0.81777  0.03240  1.0000
  H   H913      1.0  0.53045  0.79817  0.01017  1.0000
  H   H914      1.0  0.58646  0.70740  0.02483  1.0000
  H   H915      1.0  0.57047  0.86441  0.04928  1.0000
  H   H916      1.0  0.54697  0.52184  0.02621  1.0000
  H   H917      1.0  0.55343  0.80175  0.04585  1.0000
  C   C520      1.0  0.55874  0.70562  0.02259  1.0000
  H   H918      1.0  0.54194  0.65428  0.03849  1.0000
  H   H919      1.0  0.61501  0.98035  0.02125  1.0000
  H   H920      1.0  0.52333  0.73835  0.02444  1.0000
  H   H921      1.0  0.56546  0.58638  0.08460  1.0000
  H   H922      1.0  0.56077  0.75099  0.03955  1.0000
  C   C521      1.0  0.49469  0.73121  0.07291  1.0000
  H   H923      1.0  0.51773  0.85815  0.98515  1.0000
  H   H924      1.0  0.52432  0.74996  0.98730  1.0000
  C   C522      1.0  0.59241  0.50861  0.98171  1.0000
  H   H925      1.0  0.54148  0.61127  0.07025  1.0000
  H   H926      1.0  0.61309  0.98150  0.99262  1.0000
  S   S118      1.0  0.50232  0.61189  0.99229  1.0000
  C   C523      1.0  0.62382  0.75273  0.99055  1.0000
  H   H927      1.0  0.59708  0.52354  0.99633  1.0000
  H   H928      1.0  0.50018  0.59085  0.04174  1.0000
  C   C524      1.0  0.59732  0.97862  0.00790  1.0000
  H   H929      1.0  0.51832  0.55924  0.10918  1.0000
  H   H930      1.0  0.64678  0.51715  0.97426  1.0000
  H   H931      1.0  0.49334  0.99311  0.97300  1.0000
  C   C525      1.0  0.56527  0.89353  0.97278  1.0000
  H   H932      1.0  0.62225  0.76024  0.97344  1.0000
  H   H933      1.0  0.57023  0.63572  0.35540  1.0000
  H   H934      1.0  0.56344  0.89211  0.43362  1.0000
  H   H935      1.0  0.62579  0.92341  0.42985  1.0000
  H   H936      1.0  0.56774  0.76513  0.41148  1.0000
  S   S119      1.0  0.56216  0.54648  0.42543  1.0000
  C   C526      1.0  0.62309  0.95699  0.45556  1.0000
  C   C527      1.0  0.60164  0.96517  0.47159  1.0000
  C   C528      1.0  0.56645  0.94723  0.47382  1.0000
  H   H937      1.0  0.55627  0.68992  0.34605  1.0000
  C   C529      1.0  0.57403  0.91214  0.44440  1.0000
  C   C530      1.0  0.60932  0.93000  0.44222  1.0000
  C   C531      1.0  0.72015  0.56614  0.34929  1.0000
  Fe  Fe60      1.0  0.50794  0.53469  0.41460  1.0000
  C   C532      1.0  0.57263  0.77119  0.39400  1.0000
  H   H938      1.0  0.55199  0.99391  0.44597  1.0000
  H   H939      1.0  0.74573  0.97150  0.51181  1.0000
  C   C533      1.0  0.54794  0.74399  0.38157  1.0000
  H   H940      1.0  0.71607  0.57779  0.33348  1.0000
  Fe  Fe61      1.0  0.54639  0.58676  0.44429  1.0000
  H   H941      1.0  0.52099  0.65188  0.34721  1.0000
  S   S120      1.0  0.58043  0.64122  0.44211  1.0000
  S   S121      1.0  0.66653  0.98139  0.45095  1.0000
  S   S122      1.0  0.49335  0.57744  0.43170  1.0000
  S   S123      1.0  0.52878  0.55176  0.47388  1.0000
  H   H942      1.0  0.55261  0.75273  0.36440  1.0000
  H   H943      1.0  0.56865  0.79731  0.39037  1.0000
  H   H944      1.0  0.54529  0.64454  0.40161  1.0000
  H   H945      1.0  0.54988  0.95392  0.48609  1.0000
  H   H946      1.0  0.67575  0.49933  0.45128  1.0000
  H   H947      1.0  0.51938  0.62432  0.46979  1.0000
  H   H948      1.0  0.66579  0.54437  0.35566  1.0000
  N   N31       1.0  0.52955  0.67706  0.37724  1.0000
  C   C534      1.0  0.52551  0.65172  0.46515  1.0000
  C   C535      1.0  0.55521  0.66730  0.45231  1.0000
  C   C536      1.0  0.54040  0.72267  0.45313  1.0000
  C   C537      1.0  0.76865  0.96495  0.51859  1.0000
  Fe  Fe62      1.0  0.53964  0.51040  0.45372  1.0000
  C   C538      1.0  0.54070  0.64491  0.38422  1.0000
  H   H949      1.0  0.54605  0.75010  0.44858  1.0000
  C   C539      1.0  0.50785  0.93531  0.40013  1.0000
  H   H950      1.0  0.55845  0.70379  0.40258  1.0000
  C   C540      1.0  0.51375  0.70431  0.31822  1.0000
  H   H951      1.0  0.56334  0.58510  0.38169  1.0000
  C   C541      1.0  0.68959  0.53499  0.35568  1.0000
  H   H952      1.0  0.54034  0.72128  0.31492  1.0000
  H   H953      1.0  0.72260  0.58632  0.36124  1.0000
  S   S124      1.0  0.51987  0.81723  0.43539  1.0000
  H   H954      1.0  0.68761  0.51622  0.34303  1.0000
  H   H955      1.0  0.62949  0.53217  0.38598  1.0000
  H   H956      1.0  0.58143  0.71080  0.37753  1.0000
  C   C542      1.0  0.58475  0.60899  0.38227  1.0000
  H   H957      1.0  0.50742  0.72386  0.34896  1.0000
  C   C543      1.0  0.57419  0.64022  0.37258  1.0000
  H   H958      1.0  0.58654  0.71522  0.43705  1.0000
  H   H959      1.0  0.59633  0.66322  0.37376  1.0000
  H   H960      1.0  0.59154  0.61327  0.39913  1.0000
  C   C544      1.0  0.55236  0.92120  0.45997  1.0000
  C   C545      1.0  0.55532  0.70803  0.38518  1.0000
  C   C546      1.0  0.55835  0.98624  0.40709  1.0000
  H   H961      1.0  0.72084  0.51690  0.37904  1.0000
  H   H962      1.0  0.50739  0.97004  0.42511  1.0000
  H   H963      1.0  0.60773  0.60527  0.37312  1.0000
  H   H964      1.0  0.56660  0.98621  0.38992  1.0000
  H   H965      1.0  0.69124  0.53898  0.38959  1.0000
  H   H966      1.0  0.52113  0.74377  0.38687  1.0000
  C   C547      1.0  0.56323  0.70301  0.44672  1.0000
  C   C548      1.0  0.52948  0.67866  0.35305  1.0000
  H   H967      1.0  0.60000  0.77222  0.38950  1.0000
  H   H968      1.0  0.51145  0.67918  0.31066  1.0000
  H   H969      1.0  0.56929  0.96674  0.41567  1.0000
  H   H970      1.0  0.74459  0.55789  0.34798  1.0000
  H   H971      1.0  0.51844  0.91712  0.41010  1.0000
  C   C549      1.0  0.50530  0.69834  0.34233  1.0000
  H   H972      1.0  0.51857  0.84406  0.32998  1.0000
  H   H973      1.0  0.51736  0.93533  0.38322  1.0000
  C   C550      1.0  0.69367  0.51892  0.37818  1.0000
  H   H974      1.0  0.76764  0.93759  0.51525  1.0000
  H   H975      1.0  0.51971  0.62099  0.38203  1.0000
  C   C551      1.0  0.51034  0.70668  0.46567  1.0000
  H   H976      1.0  0.50606  0.98859  0.39852  1.0000
  C   C552      1.0  0.49970  0.81908  0.33161  1.0000
  C   C553      1.0  0.51835  0.97185  0.40841  1.0000
  S   S125      1.0  0.51292  0.82086  0.37379  1.0000
  H   H977      1.0  0.65245  0.50112  0.41541  1.0000
  H   H978      1.0  0.71570  0.51227  0.41817  1.0000
  S   S126      1.0  0.49913  0.53052  0.37942  1.0000
  H   H979      1.0  0.82407  0.98070  0.51511  1.0000
  C   C554      1.0  0.50354  0.67155  0.47211  1.0000
  H   H980      1.0  0.59233  0.51639  0.35454  1.0000
  H   H981      1.0  0.50213  0.65427  0.41954  1.0000
  H   H982      1.0  0.61204  0.98542  0.48220  1.0000
  H   H983      1.0  0.80228  0.98532  0.49101  1.0000
  S   S127      1.0  0.50725  0.90284  0.46136  1.0000
  H   H984      1.0  0.76732  0.96716  0.53622  1.0000
  C   C555      1.0  0.58277  0.50680  0.37116  1.0000
  H   H985      1.0  0.56878  0.52493  0.37781  1.0000
  H   H986      1.0  0.60148  0.49633  0.40152  1.0000
  C   C556      1.0  0.61276  0.50541  0.38515  1.0000
  H   H987      1.0  0.49509  0.57704  0.34329  1.0000
  H   H988      1.0  0.50261  0.69948  0.41700  1.0000
  C   C557      1.0  0.80208  0.98912  0.50845  1.0000
  H   H989      1.0  0.49538  0.71742  0.31083  1.0000
  C   C558      1.0  0.49350  0.67320  0.38690  1.0000
  H   H990      1.0  0.60631  0.87535  0.86366  1.0000
  H   H991      1.0  0.63401  0.88381  0.93243  1.0000
  C   C559      1.0  0.58560  0.89260  0.90328  1.0000
  H   H992      1.0  0.52659  0.86426  0.86470  1.0000
  H   H993      1.0  0.50748  0.94886  0.94948  1.0000
  H   H994      1.0  0.57327  0.85033  0.92799  1.0000
  H   H995      1.0  0.73694  0.52489  0.91780  1.0000
  H   H996      1.0  0.54854  0.83826  0.87900  1.0000
  C   C560      1.0  0.55981  0.94552  0.95354  1.0000
  C   C561      1.0  0.62790  0.86341  0.92066  1.0000
  H   H997      1.0  0.58366  0.90050  0.84788  1.0000
  H   H998      1.0  0.55258  0.84693  0.83072  1.0000
  H   H999      1.0  0.56953  0.74624  0.94262  1.0000
  C   C562      1.0  0.56285  0.78373  0.96579  1.0000
  H   H1000     1.0  0.49961  0.88758  0.90090  1.0000
  H   H1001     1.0  0.68934  0.49857  0.95826  1.0000
  H   H1002     1.0  0.57810  0.93651  0.87234  1.0000
  H   H1003     1.0  0.53230  0.92289  0.87041  1.0000
  H   H1004     1.0  0.58776  0.52606  0.96846  1.0000
  Fe  Fe63      1.0  0.49619  0.50485  0.95310  1.0000
  H   H1005     1.0  0.49500  0.62439  0.94707  1.0000
  H   H1006     1.0  0.59893  0.85550  0.82703  1.0000
  C   C563      1.0  0.58154  0.87485  0.85620  1.0000
  S   S128      1.0  0.62600  0.93864  0.95786  1.0000
  C   C564      1.0  0.57678  0.84808  0.83907  1.0000
  H   H1007     1.0  0.56228  0.78572  0.93108  1.0000
  C   C565      1.0  0.59101  0.85849  0.91352  1.0000
  H   H1008     1.0  0.58645  0.83730  0.90230  1.0000
  H   H1009     1.0  0.57580  0.82188  0.84633  1.0000
  H   H1010     1.0  0.52442  0.94440  0.90736  1.0000
  C   C566      1.0  0.52357  0.93355  0.95617  1.0000
  H   H1011     1.0  0.58637  0.91004  0.91671  1.0000
  H   H1012     1.0  0.52676  0.75357  0.94435  1.0000
  H   H1013     1.0  0.57055  0.95692  0.90896  1.0000
  N   N32       1.0  0.55290  0.88935  0.89143  1.0000
  C   C567      1.0  0.55080  0.86543  0.87318  1.0000
  H   H1014     1.0  0.52679  0.88782  0.92262  1.0000
  H   H1015     1.0  0.75096  0.51593  0.94413  1.0000
  H   H1016     1.0  0.64686  0.87087  0.90672  1.0000
  C   C568      1.0  0.55336  0.92495  0.88180  1.0000
  H   H1017     1.0  0.60879  0.90569  0.89279  1.0000
  H   H1018     1.0  0.63066  0.83873  0.92838  1.0000
  C   C569      1.0  0.55488  0.76615  0.94471  1.0000
  H   H1019     1.0  0.57166  0.97029  0.94519  1.0000
  C   C570      1.0  0.54941  0.95250  0.89782  1.0000
  H   H1020     1.0  0.54753  0.80327  0.96694  1.0000
  C   C571      1.0  0.74225  0.50449  0.92881  1.0000
  C   C572      1.0  0.58068  0.92528  0.96164  1.0000
  H   H1021     1.0  0.59060  0.79797  0.96517  1.0000
  C   C573      1.0  0.52120  0.87717  0.90661  1.0000
  C   C574      1.0  0.50502  0.83736  0.90992  1.0000
  Fe  Fe64      1.0  0.64879  0.99212  0.94222  1.0000
  H   H1022     1.0  0.52446  0.82283  0.91332  1.0000
  H   H1023     1.0  0.52900  0.98511  0.87565  1.0000
  C   C575      1.0  0.50806  0.90166  0.96729  1.0000
  C   C576      1.0  0.55106  0.98744  0.88617  1.0000
  H   H1024     1.0  0.67501  0.50787  0.93292  1.0000
