data_image0
_chemical_formula_structural       HSHFeS2HFeS2FeS2FeS2FeSFeS3FeS2FeS2Fe2S3FeS2FeSHS2HCHC2H2C6H4C6H4C3H2C6H4C6H4C6H4C6H6C2NC12H28NC12H29CHC2H3CH2CH2CHCH2C2H2CHCH2NC10H15CH5C5H9CH6CH2CHCHFeCH3SHCHC2HSHCHCHCH2C2H4SH2CH2CH2NH2C2HCH11CHFeH5FeH3CHCH2SH4C3H2SNCHCHSC2HFeH3C2H6CH2CH2CHNCHC2H2SHCH2CHSFeH5CH2CH2CH6NHNCH4C2HC4H3C2H2SHFeH9CH6C2FeCHC5HNCSHFeSCFeSFeHSCHFeS2FeSHFeH2SHSHFeHSFeS2HC3HCH2CH3CHCH2CHC2H2C2HCH2C8H5SCHCH5C2H5CH5CH2NHCH5CH5C2H4CH2CSH5CH6CFeHC2NH2CHCH2CH2C4HNH6CH6SNC2H4CSH2CH3FeHCHC3SHCH3C2H2CHCH3CH2CH8CH3FeS2FeS2FeSFeS3FeS3FeSHSFeS2FeSFeSFeS3FeS2FeSHSHCH2C6H5CH5C6H4C6H4C3H2C6H4CH2CHCFeH5NC10H15CH9C2H3CH2C3HCH2CHFeCH2CHSCH3CH6CHCH3CHC3H6NH5C2HC2NH3CH2C4NCFeC4H2C2HCHSCH9CH9NC12H30C2H2C2H2CHCH4CHC2H7C2H3CH4CH2CHNH2C2H2CFeHCH5CNH9CH4NHC2HNHCH6CH2C2H5C3HCH2CHCHSH4CHCHCH5CHCH2CH4C2H4C3HSH6CH2CFeS2CHFeS2H2FeSHFeS2FeSFeCS2FeH2FeS2HCH2S3H2CH7CH3C3HCH2CHC3HC2HCSC6H5CH2C2NC2H6SHCH4CNCHC3H2C2HCH3C2H5FeH5C2HCH5CH2CHC2HCHC2H5C2SCH4CHNHC2H11CH5C2H3SHNC2HC2H11FeH2C3H2CHCH2CHC2NHCHCH4CFeS2FeS2FeSFeS3CHNCH2S2CHFeHSFeHSFeH2CS2HCH3CH2C2H2C6H3C3H5C6H4CH6C2SH12C2SCH3CSCH3FeCHCHC2H2C2H10CH8CH2CH5CH3CH2CSH8CH5C2HCH3CH6NC2H3CSH3CSC3HC2H3C2NC12HSH2C2HC2H4CH9CSH4C3H2CHS2H2SFeS2FeS2FeSFeS3FeS2FeS2Fe2S3FeSFeS2FeSFeHS2C6H6CHC3H2C6H4C6H4C6H4C6H5CSHCHC6HCH2CH3C2SH5NC9H22NCHC3H2CH4SH3CH2CH2CH4C2HCH4CH2CH5C4H3C2H2C4H2CH3CH2C2NC11H13NH8CH2SCHCFeH2SCH8CH3C2H4CH2CH2C2H5C5H3CSC3H4CHCHCH5C2HN2HCHCSH6C2H9NHCH2CH4C2H4CH4CHC2H6CSH7CHC3HCH2CH3CFeCH12CH4CH2SHFeSHS2H4CH4CHCFeS2FeS2H2NHC2H4CH7C4H5NC6H4SC2HCFeCHCH2Fe2H2C2H2CH4C2HCH3CHCHCH6CHCH5C3HSCH3C2HC2SCH2C2HC2HCH2CH4CHCH4CHCHCH2C2H2CH2NH2CHCH2SH2C2H3CFeS2FeS2FeSFeS3FeSFeS2FeSFeS3FeS2FeSFeS3CSC3H3C6H4C3HC2H4CH2CH3C7H4C6H4C3H2C4HCH2C5HC2H4SNC6H2C2H3CH11CH7CHCH2NHC2H3C2HSH2CH4NC12H9CH10SHSH4NC6H2CH3CHNH5CHCHCHSH3C2H8C2H2C3HFeH2CH3CH2C3HC2HCH2CH7CH4NC11H24FeHCH7CH4CHCH13CH5CHNH5C3HSC2H2CHCH3CH2C2H7CH2CHCH4FeHNH3FeS2H7SC2HFeS2FeH3SHCH5C6H4C2NH4CHC6H2CHCHC3HC2H2C2H2CH4CHC2H6C2HCH6CH2C2H2SCHNC2H3CH3SCH2SHCH3C3SCHC6H3CH4NHFeHCH4CH5CH3C4H2SCHC2SH9CH3C3H2SH3SH4CH4CH2CHCFeS2FeS2FeSFeS2FeS2FeS2FeSFeS3H3SFeS2FeSFeS3C6H4C3H2C6H2CHC6H4C2HCHC7H4CHC3HCH7C3H3CHCH3C3H17CH5C2H3C3HCFeCHSCH3CH3CH7CHCH9NH3CH6CNFeHC4H2CH6CHNC12H31CHCH2NC10H26NH2NHC7HC2HC2HSCHSH5C2H2CH4CHCHCH2C5HC2H5NHC2HSHCHCHSH2C2HCH4CHCSC2H2CH2C2FeCH3CH6CHNCHCH6NC2HC3H2CH2CHCHCH7CHCH2C5HC2H6FeSH2SHFeSFeS2H4SHCSHC2HCFeS2FeS2FeHFeS4C4H3C2H5CSHC6H4C2H3C6H4CH2CH4C2HSCH8CH2CH2CH11CHFeH5C2NC5H2C5H11CH11CFeC2H15CHC2FeCH4C2HCHC2SCH3SNC4HNH3CSCH5CH2SC4HC3H3SHCFeS2FeS2FeSFeS3FeSFeS2FeSFeS3FeS2FeSFeSFeS3H3C2H2C6H4C6H4C2H2C2HC6H4C6H4C6H4C7H7CH9CHNC5HC4HCHCH2CH6CH6SH4C2H2CNC12H28CHCH2C3H6FeH2CH3SH3NC9H23NC11H23C2H3SHC3H2CH2CHCH3CHCSCH3CHCH5SC3HCHSH3NHCHCH3CN2H2C2HCH3CH2CH2C5HCH2C2H8CHSCH4CH5CH4CHCH2FeHC2H8C2H3S2H5C2H5CH3SFeS2Fe2S2FeS2FeS2FeSFeS3FeS2FeSHSFeSFeS2FeS3H3CNCHC6H4CHCHCHCH2C6H4C6H4C6H5C2H3CH4CHNC12H28CH6CHC3H5C3H3NC9HCH5CH8CH2CH9CN2C8H20C2HCH2C4H2CHC2HCH4C2H5CHC2FeH5CH2CSCHFeCHCH2CNH2C2H4C2H3C2H4CH3CFeCH12CH2C2HCHCSH5NH2CH2C2HCH3C2H3CHCH2C2H5FeHCH3CH3CHSH6CH2C5H2CH6CH15CHCHCNH4CFeSH2SHFeSFeCS2N2HFeSHFeS2FeSFeHS2FeCSHFeSHSH4C7H5CH2C3HCH3C3HCH2C2HCHCH5C2HCH6CHNCHCFeH4C2HSHC2H3SHC3SH4CHCH2CH4C2H3C4H2CSH2CH4CHSH7CH2C2HCH3CH2CH3CHC3H4CHCHC2H2CHCHCH2CH5CNH2NCH5CHCH4CH9CHCH4CH2C2H2CH4CH3C2SHFeS2FeS2FeS2FeS2FeSFeS3FeS2FeS2FeSFeS2FeS2CFeSCSHCSHCHC7H6SCHC6H4C6H4C6H4C6H4C2H3C7H4C3HSH3CNH6C4HCHSH3C3HNH3CH2C3H6C2HCHCH4C2HFeH3CH2NCHSH2CH4CHC2HCH3NC12H28C3H6C2HCH4NCH2CH4NC5H12NC9HC2H28FeH4C3H7C2H2CH2CH4SHCH4CH3CH7CH2C2H3CHSCH2CHC2H2CH3FeH4C2H2CH2SC2H12C2HCH4SH4CHCHSCHCH3C5H3CHCHFeCHFeS2CFeS2HFeS2FeSFeSH2S2HSHFeSHFeSFeCSCHCHC2HCH3C3H4C2HSHNC6H5CH3CH2C2HC2H3NCH2CH4CH4CH3CHC3HCHCH4CHC3H7FeHSH3CH2C2H7NH5C3H2CHFeCH4FeHCHSH2C2NCH3CH4CHC3H4SC3H5NC3H2CHCNH5CHCHC2H2C2H3C2HCH6CH7C2HCH2CH3
_chemical_formula_sum              "H3072 S384 Fe192 C1728 N96"
_cell_length_a       40.3971
_cell_length_b       40.5646
_cell_length_c       89.3081
_cell_angle_alpha    83.8759
_cell_angle_beta     83.8447
_cell_angle_gamma    88.6002

_space_group_name_H-M_alt    "P 1"
_space_group_IT_number       1

loop_
  _space_group_symop_operation_xyz
  'x, y, z'

loop_
  _atom_site_type_symbol
  _atom_site_label
  _atom_site_symmetry_multiplicity
  _atom_site_fract_x
  _atom_site_fract_y
  _atom_site_fract_z
  _atom_site_occupancy
  H   H1        1.0  0.08995  0.03498  0.18852  1.0000
  S   S1        1.0  0.43267  0.14420  0.03763  1.0000
  H   H2        1.0  0.25100  0.29560  0.98262  1.0000
  Fe  Fe1       1.0  0.10791  0.09346  0.06623  1.0000
  S   S2        1.0  0.15682  0.07654  0.07425  1.0000
  S   S3        1.0  0.10063  0.14578  0.05551  1.0000
  H   H3        1.0  0.41339  0.08302  0.00690  1.0000
  Fe  Fe2       1.0  0.12563  0.05526  0.09513  1.0000
  S   S4        1.0  0.13663  0.06688  0.11837  1.0000
  S   S5        1.0  0.07686  0.07526  0.08772  1.0000
  Fe  Fe3       1.0  0.26021  0.32724  0.02187  1.0000
  S   S6        1.0  0.29329  0.34494  0.03802  1.0000
  S   S7        1.0  0.24990  0.35720  0.00003  1.0000
  Fe  Fe4       1.0  0.25611  0.25784  0.03805  1.0000
  S   S8        1.0  0.28834  0.26938  0.05565  1.0000
  S   S9        1.0  0.24377  0.20505  0.03593  1.0000
  Fe  Fe5       1.0  0.25846  0.31685  0.05595  1.0000
  S   S10       1.0  0.24677  0.33453  0.07908  1.0000
  Fe  Fe6       1.0  0.32045  0.29618  0.03647  1.0000
  S   S11       1.0  0.37658  0.29169  0.03449  1.0000
  S   S12       1.0  0.22287  0.30279  0.03994  1.0000
  S   S13       1.0  0.29064  0.28109  0.01878  1.0000
  Fe  Fe7       1.0  0.26009  0.18397  0.14506  1.0000
  S   S14       1.0  0.21140  0.20917  0.15044  1.0000
  S   S15       1.0  0.26378  0.15013  0.12618  1.0000
  Fe  Fe8       1.0  0.29263  0.21981  0.16841  1.0000
  S   S16       1.0  0.24468  0.24639  0.17556  1.0000
  S   S17       1.0  0.33759  0.22947  0.18071  1.0000
  Fe  Fe9       1.0  0.22017  0.19742  0.17478  1.0000
  Fe  Fe10      1.0  0.24061  0.25479  0.15060  1.0000
  S   S18       1.0  0.22548  0.30015  0.13620  1.0000
  S   S19       1.0  0.26814  0.16968  0.16951  1.0000
  S   S20       1.0  0.28950  0.23091  0.14343  1.0000
  Fe  Fe11      1.0  0.13346  0.46667  0.11503  1.0000
  S   S21       1.0  0.08959  0.45269  0.13205  1.0000
  S   S22       1.0  0.13985  0.44830  0.09167  1.0000
  Fe  Fe12      1.0  0.12684  0.44864  0.14911  1.0000
  S   S23       1.0  0.13118  0.40551  0.16689  1.0000
  H   H4        1.0  0.23882  0.10081  0.15645  1.0000
  S   S24       1.0  0.17060  0.45839  0.13188  1.0000
  S   S25       1.0  0.45220  0.33611  0.15972  1.0000
  H   H5        1.0  0.31283  0.45300  0.15938  1.0000
  C   C1        1.0  0.14307  0.38112  0.98970  1.0000
  H   H6        1.0  0.27774  0.50810  0.15743  1.0000
  C   C2        1.0  0.21782  0.42403  0.16884  1.0000
  C   C3        1.0  0.21750  0.26086  0.99676  1.0000
  H   H7        1.0  0.40719  0.46689  0.17309  1.0000
  H   H8        1.0  0.48931  0.19193  0.98949  1.0000
  C   C4        1.0  0.15465  0.37379  0.15868  1.0000
  C   C5        1.0  0.15852  0.37362  0.14295  1.0000
  C   C6        1.0  0.17964  0.35024  0.13624  1.0000
  C   C7        1.0  0.19693  0.32685  0.14518  1.0000
  C   C8        1.0  0.19222  0.32612  0.16097  1.0000
  C   C9        1.0  0.17106  0.34964  0.16773  1.0000
  H   H9        1.0  0.14511  0.39145  0.13592  1.0000
  H   H10       1.0  0.18241  0.35015  0.12409  1.0000
  H   H11       1.0  0.20530  0.30792  0.16795  1.0000
  H   H12       1.0  0.16799  0.34963  0.17991  1.0000
  C   C10       1.0  0.36949  0.25895  0.17460  1.0000
  C   C11       1.0  0.37514  0.27280  0.15954  1.0000
  C   C12       1.0  0.40053  0.29630  0.15516  1.0000
  C   C13       1.0  0.42096  0.30587  0.16574  1.0000
  C   C14       1.0  0.41564  0.29161  0.18076  1.0000
  C   C15       1.0  0.39008  0.26831  0.18514  1.0000
  H   H13       1.0  0.36024  0.26490  0.15126  1.0000
  H   H14       1.0  0.40475  0.30678  0.14348  1.0000
  H   H15       1.0  0.43119  0.29854  0.18901  1.0000
  H   H16       1.0  0.38625  0.25747  0.19678  1.0000
  C   C16       1.0  0.20082  0.36914  0.98134  1.0000
  C   C17       1.0  0.15077  0.37732  0.00475  1.0000
  C   C18       1.0  0.18340  0.36946  0.00810  1.0000
  H   H17       1.0  0.13138  0.38053  0.01385  1.0000
  H   H18       1.0  0.18918  0.36679  0.01972  1.0000
  C   C19       1.0  0.21638  0.36557  0.08231  1.0000
  C   C20       1.0  0.19578  0.37766  0.07127  1.0000
  C   C21       1.0  0.17232  0.40306  0.07422  1.0000
  C   C22       1.0  0.16895  0.41599  0.08830  1.0000
  C   C23       1.0  0.18921  0.40337  0.09935  1.0000
  C   C24       1.0  0.21301  0.37849  0.09631  1.0000
  H   H19       1.0  0.19795  0.36751  0.06050  1.0000
  H   H20       1.0  0.15658  0.41255  0.06564  1.0000
  H   H21       1.0  0.18639  0.41259  0.11029  1.0000
  H   H22       1.0  0.22863  0.36892  0.10495  1.0000
  C   C25       1.0  0.13992  0.16317  0.04977  1.0000
  C   C26       1.0  0.16643  0.14285  0.04491  1.0000
  C   C27       1.0  0.19807  0.15620  0.04066  1.0000
  C   C28       1.0  0.20355  0.18986  0.04141  1.0000
  C   C29       1.0  0.17714  0.21038  0.04634  1.0000
  C   C30       1.0  0.14515  0.19709  0.05035  1.0000
  H   H23       1.0  0.16250  0.11678  0.04425  1.0000
  H   H24       1.0  0.21844  0.14025  0.03685  1.0000
  H   H25       1.0  0.18147  0.23627  0.04716  1.0000
  H   H26       1.0  0.12469  0.21279  0.05424  1.0000
  C   C31       1.0  0.17110  0.09248  0.11895  1.0000
  C   C32       1.0  0.20175  0.08687  0.11067  1.0000
  C   C33       1.0  0.22985  0.10507  0.11274  1.0000
  C   C34       1.0  0.22760  0.12891  0.12314  1.0000
  C   C35       1.0  0.19664  0.13511  0.13102  1.0000
  C   C36       1.0  0.16851  0.11725  0.12881  1.0000
  H   H27       1.0  0.20401  0.06780  0.10300  1.0000
  H   H28       1.0  0.25347  0.09996  0.10653  1.0000
  H   H29       1.0  0.19433  0.15302  0.13912  1.0000
  H   H30       1.0  0.14481  0.12217  0.13504  1.0000
  C   C37       1.0  0.41834  0.18558  0.03549  1.0000
  C   C38       1.0  0.38415  0.19170  0.03486  1.0000
  C   C39       1.0  0.37119  0.22418  0.03448  1.0000
  C   C40       1.0  0.39239  0.25079  0.03471  1.0000
  C   C41       1.0  0.42667  0.24474  0.03516  1.0000
  C   C42       1.0  0.43969  0.21220  0.03547  1.0000
  H   H31       1.0  0.36749  0.17119  0.03490  1.0000
  H   H32       1.0  0.34474  0.22858  0.03410  1.0000
  H   H33       1.0  0.44311  0.26527  0.03545  1.0000
  H   H34       1.0  0.46600  0.20759  0.03616  1.0000
  H   H35       1.0  0.23186  0.50631  0.19449  1.0000
  H   H36       1.0  0.03907  0.48829  0.08265  1.0000
  C   C43       1.0  0.45774  0.50155  0.20228  1.0000
  C   C44       1.0  0.18522  0.27320  0.98974  1.0000
  N   N1        1.0  0.17407  0.24811  0.10138  1.0000
  C   C45       1.0  0.16672  0.23774  0.11813  1.0000
  C   C46       1.0  0.21006  0.25828  0.09818  1.0000
  C   C47       1.0  0.15301  0.27859  0.09761  1.0000
  C   C48       1.0  0.16629  0.22155  0.09166  1.0000
  C   C49       1.0  0.17151  0.18492  0.09809  1.0000
  C   C50       1.0  0.12942  0.23269  0.12396  1.0000
  C   C51       1.0  0.15767  0.29450  0.08094  1.0000
  C   C52       1.0  0.23671  0.23142  0.10190  1.0000
  C   C53       1.0  0.27090  0.24689  0.10138  1.0000
  C   C54       1.0  0.16686  0.16135  0.08627  1.0000
  C   C55       1.0  0.12521  0.21358  0.13970  1.0000
  C   C56       1.0  0.13213  0.32240  0.07830  1.0000
  H   H37       1.0  0.17626  0.25658  0.12479  1.0000
  H   H38       1.0  0.18017  0.21450  0.12153  1.0000
  H   H39       1.0  0.21630  0.26669  0.08597  1.0000
  H   H40       1.0  0.21431  0.28009  0.10437  1.0000
  H   H41       1.0  0.15755  0.29818  0.10503  1.0000
  H   H42       1.0  0.12610  0.27267  0.09991  1.0000
  H   H43       1.0  0.13979  0.22351  0.08921  1.0000
  H   H44       1.0  0.18117  0.22547  0.08037  1.0000
  H   H45       1.0  0.15305  0.17803  0.10798  1.0000
  H   H46       1.0  0.19655  0.18026  0.10181  1.0000
  H   H47       1.0  0.11678  0.25716  0.12486  1.0000
  H   H48       1.0  0.11653  0.21908  0.11618  1.0000
  H   H49       1.0  0.15473  0.27598  0.07292  1.0000
  H   H50       1.0  0.18259  0.30556  0.07816  1.0000
  H   H51       1.0  0.23146  0.21806  0.11334  1.0000
  H   H52       1.0  0.23857  0.21337  0.09333  1.0000
  H   H53       1.0  0.28962  0.22723  0.10405  1.0000
  H   H54       1.0  0.27848  0.25990  0.09000  1.0000
  H   H55       1.0  0.27022  0.26492  0.10994  1.0000
  H   H56       1.0  0.17081  0.13542  0.09109  1.0000
  H   H57       1.0  0.14119  0.16362  0.08287  1.0000
  H   H58       1.0  0.18511  0.16656  0.07613  1.0000
  H   H59       1.0  0.13668  0.22726  0.14794  1.0000
  H   H60       1.0  0.09829  0.21065  0.14356  1.0000
  H   H61       1.0  0.13698  0.18857  0.13948  1.0000
  H   H62       1.0  0.13729  0.33504  0.06667  1.0000
  H   H63       1.0  0.10652  0.31237  0.07964  1.0000
  H   H64       1.0  0.13362  0.34113  0.08643  1.0000
  N   N2        1.0  0.31111  0.35614  0.13851  1.0000
  C   C57       1.0  0.28973  0.37806  0.12855  1.0000
  C   C58       1.0  0.31763  0.32302  0.13231  1.0000
  C   C59       1.0  0.29169  0.35012  0.15400  1.0000
  C   C60       1.0  0.34339  0.37236  0.14044  1.0000
  C   C61       1.0  0.36680  0.38163  0.12584  1.0000
  C   C62       1.0  0.28191  0.41336  0.13324  1.0000
  C   C63       1.0  0.30579  0.32297  0.16534  1.0000
  C   C64       1.0  0.32133  0.32262  0.11481  1.0000
  C   C65       1.0  0.33859  0.29085  0.11010  1.0000
  C   C66       1.0  0.39710  0.40032  0.12923  1.0000
  C   C67       1.0  0.25799  0.43192  0.12307  1.0000
  C   C68       1.0  0.28581  0.32177  0.18091  1.0000
  H   H65       1.0  0.26565  0.36551  0.12797  1.0000
  H   H66       1.0  0.30123  0.38192  0.11669  1.0000
  H   H67       1.0  0.34004  0.31089  0.13679  1.0000
  H   H68       1.0  0.29677  0.30578  0.13638  1.0000
  H   H69       1.0  0.26561  0.34305  0.15291  1.0000
  H   H70       1.0  0.28981  0.37317  0.15974  1.0000
  H   H71       1.0  0.33857  0.39489  0.14648  1.0000
  H   H72       1.0  0.35843  0.35572  0.14786  1.0000
  H   H73       1.0  0.35394  0.39756  0.11732  1.0000
  H   H74       1.0  0.37646  0.35878  0.12098  1.0000
  H   H75       1.0  0.26994  0.41253  0.14497  1.0000
  H   H76       1.0  0.30502  0.42802  0.13225  1.0000
  H   H77       1.0  0.33197  0.32768  0.16698  1.0000
  H   H78       1.0  0.30457  0.29804  0.16139  1.0000
  H   H79       1.0  0.29615  0.32409  0.11075  1.0000
  H   H80       1.0  0.33587  0.34357  0.10871  1.0000
  H   H81       1.0  0.33688  0.28947  0.09786  1.0000
  H   H82       1.0  0.36526  0.29072  0.11212  1.0000
  H   H83       1.0  0.32663  0.26865  0.11658  1.0000
  H   H84       1.0  0.41381  0.40633  0.11863  1.0000
  H   H85       1.0  0.38936  0.42379  0.13403  1.0000
  H   H86       1.0  0.41140  0.38477  0.13741  1.0000
  H   H87       1.0  0.23398  0.41864  0.12423  1.0000
  H   H88       1.0  0.25295  0.45727  0.12650  1.0000
  H   H89       1.0  0.26868  0.43404  0.11103  1.0000
  H   H90       1.0  0.32291  0.35962  0.07600  1.0000
  H   H91       1.0  0.28863  0.34519  0.18603  1.0000
  H   H92       1.0  0.31450  0.05965  0.05947  1.0000
  H   H93       1.0  0.23638  0.42592  0.06006  1.0000
  C   C69       1.0  0.13813  0.02807  0.16554  1.0000
  H   H94       1.0  0.25901  0.31784  0.18004  1.0000
  C   C70       1.0  0.29598  0.40534  0.07029  1.0000
  C   C71       1.0  0.12661  0.48528  0.98749  1.0000
  H   H95       1.0  0.26072  0.46471  0.02956  1.0000
  H   H96       1.0  0.34536  0.39658  0.07789  1.0000
  H   H97       1.0  0.26198  0.05888  0.07663  1.0000
  C   C72       1.0  0.11569  0.08446  0.16774  1.0000
  H   H98       1.0  0.25339  0.06271  0.05713  1.0000
  H   H99       1.0  0.33528  0.49447  0.04719  1.0000
  C   C73       1.0  0.14714  0.23061  0.00228  1.0000
  H   H100      1.0  0.39159  0.05898  0.07341  1.0000
  H   H101      1.0  0.12487  0.12171  0.18333  1.0000
  C   C74       1.0  0.17163  0.15820  0.20701  1.0000
  H   H102      1.0  0.41776  0.27321  0.00405  1.0000
  C   C75       1.0  0.16816  0.37688  0.97800  1.0000
  H   H103      1.0  0.44264  0.28675  0.97858  1.0000
  H   H104      1.0  0.04632  0.10933  0.02422  1.0000
  C   C76       1.0  0.16892  0.06520  0.17858  1.0000
  C   C77       1.0  0.22207  0.09533  0.16710  1.0000
  H   H105      1.0  0.24388  0.45052  0.19160  1.0000
  H   H106      1.0  0.32893  0.44323  0.18687  1.0000
  C   C78       1.0  0.11520  0.04291  0.19040  1.0000
  H   H107      1.0  0.18513  0.26066  0.97926  1.0000
  C   C79       1.0  0.26363  0.04591  0.06623  1.0000
  H   H108      1.0  0.27081  0.25826  0.99036  1.0000
  H   H109      1.0  0.15132  0.03686  0.15425  1.0000
  N   N3        1.0  0.35281  0.15221  0.08277  1.0000
  C   C80       1.0  0.36543  0.12436  0.07361  1.0000
  C   C81       1.0  0.31811  0.16326  0.07917  1.0000
  C   C82       1.0  0.37586  0.18114  0.07808  1.0000
  C   C83       1.0  0.35344  0.14305  0.09958  1.0000
  C   C84       1.0  0.33671  0.11012  0.10635  1.0000
  C   C85       1.0  0.40094  0.11077  0.07608  1.0000
  C   C86       1.0  0.36596  0.21375  0.08521  1.0000
  C   C87       1.0  0.20848  0.36536  0.99638  1.0000
  C   C88       1.0  0.34252  0.10209  0.12299  1.0000
  C   C89       1.0  0.40860  0.07919  0.06831  1.0000
  H   H110      1.0  0.11397  0.46267  0.98513  1.0000
  H   H111      1.0  0.36537  0.13258  0.06128  1.0000
  H   H112      1.0  0.34859  0.10284  0.07582  1.0000
  H   H113      1.0  0.30495  0.17584  0.08866  1.0000
  H   H114      1.0  0.31946  0.18232  0.06913  1.0000
  H   H115      1.0  0.37812  0.18703  0.06556  1.0000
  H   H116      1.0  0.40151  0.17476  0.08097  1.0000
  H   H117      1.0  0.37950  0.14226  0.10263  1.0000
  H   H118      1.0  0.34078  0.16262  0.10606  1.0000
  H   H119      1.0  0.34650  0.08882  0.10034  1.0000
  H   H120      1.0  0.30954  0.11234  0.10591  1.0000
  H   H121      1.0  0.42002  0.12925  0.07122  1.0000
  H   H122      1.0  0.40384  0.10458  0.08826  1.0000
  H   H123      1.0  0.36645  0.21020  0.09768  1.0000
  H   H124      1.0  0.34071  0.22255  0.08272  1.0000
  C   C90       1.0  0.31176  0.50019  0.04195  1.0000
  H   H125      1.0  0.33323  0.12267  0.12966  1.0000
  H   H126      1.0  0.20482  0.05000  0.16026  1.0000
  H   H127      1.0  0.40609  0.08392  0.05601  1.0000
  H   H128      1.0  0.09587  0.14505  0.15354  1.0000
  H   H129      1.0  0.16686  0.44615  0.96912  1.0000
  C   C91       1.0  0.12371  0.12000  0.17115  1.0000
  C   C92       1.0  0.10898  0.06735  0.20264  1.0000
  C   C93       1.0  0.39037  0.24130  0.07893  1.0000
  C   C94       1.0  0.23114  0.42125  0.03107  1.0000
  C   C95       1.0  0.32848  0.38535  0.07087  1.0000
  H   H130      1.0  0.28100  0.42654  0.03636  1.0000
  H   H131      1.0  0.28000  0.39252  0.06347  1.0000
  H   H132      1.0  0.23881  0.41749  0.01906  1.0000
  H   H133      1.0  0.22838  0.39645  0.03763  1.0000
  H   H134      1.0  0.24836  0.46250  0.15655  1.0000
  H   H135      1.0  0.22643  0.47359  0.98838  1.0000
  H   H136      1.0  0.41625  0.23375  0.08098  1.0000
  H   H137      1.0  0.10834  0.17447  0.00070  1.0000
  H   H138      1.0  0.03751  0.42158  0.11592  1.0000
  C   C96       1.0  0.25751  0.44121  0.03712  1.0000
  H   H139      1.0  0.11474  0.24931  0.97631  1.0000
  H   H140      1.0  0.22167  0.06069  0.20154  1.0000
  H   H141      1.0  0.28396  0.40451  0.08208  1.0000
  H   H142      1.0  0.34120  0.38402  0.05928  1.0000
  H   H143      1.0  0.01993  0.41675  0.09864  1.0000
  H   H144      1.0  0.29517  0.30088  0.18850  1.0000
  C   C97       1.0  0.29460  0.13645  0.07521  1.0000
  H   H145      1.0  0.30992  0.48268  0.03340  1.0000
  H   H146      1.0  0.24641  0.44304  0.08334  1.0000
  C   C98       1.0  0.24630  0.44892  0.05350  1.0000
  H   H147      1.0  0.31623  0.43914  0.05181  1.0000
  C   C99       1.0  0.30237  0.44142  0.06306  1.0000
  H   H148      1.0  0.20476  0.48304  0.07463  1.0000
  Fe  Fe13      1.0  0.14781  0.02847  0.06495  1.0000
  C   C100      1.0  0.23458  0.45765  0.16797  1.0000
  H   H149      1.0  0.45384  0.20132  0.00162  1.0000
  H   H150      1.0  0.29415  0.11388  0.08332  1.0000
  H   H151      1.0  0.24857  0.15534  0.08647  1.0000
  S   S26       1.0  0.48959  0.10093  0.00994  1.0000
  H   H152      1.0  0.27847  0.42343  0.99597  1.0000
  C   C101      1.0  0.29520  0.50189  0.16615  1.0000
  H   H153      1.0  0.47157  0.51108  0.21057  1.0000
  C   C102      1.0  0.02556  0.12592  0.02081  1.0000
  C   C103      1.0  0.12075  0.27598  0.97575  1.0000
  H   H154      1.0  0.30300  0.12914  0.06374  1.0000
  S   S27       1.0  0.51180  0.08733  0.04420  1.0000
  H   H155      1.0  0.25780  0.17228  0.06691  1.0000
  C   C104      1.0  0.31617  0.45268  0.19716  1.0000
  H   H156      1.0  0.10458  0.17028  0.16814  1.0000
  C   C105      1.0  0.34204  0.45488  0.20830  1.0000
  H   H157      1.0  0.13236  0.16827  0.01678  1.0000
  C   C106      1.0  0.25883  0.14957  0.07499  1.0000
  H   H158      1.0  0.42828  0.25098  0.97178  1.0000
  H   H159      1.0  0.02830  0.14994  0.02547  1.0000
  C   C107      1.0  0.25847  0.45787  0.18047  1.0000
  C   C108      1.0  0.46503  0.20556  0.98962  1.0000
  H   H160      1.0  0.02608  0.12515  0.04970  1.0000
  H   H161      1.0  0.27561  0.47444  0.08483  1.0000
  H   H162      1.0  0.38388  0.26408  0.08451  1.0000
  H   H163      1.0  0.27649  0.43726  0.17870  1.0000
  S   S28       1.0  0.17328  0.17581  0.18809  1.0000
  H   H164      1.0  0.20917  0.47219  0.10233  1.0000
  H   H165      1.0  0.03725  0.13791  0.07493  1.0000
  C   C109      1.0  0.37799  0.04874  0.01974  1.0000
  H   H166      1.0  0.38919  0.24733  0.06658  1.0000
  H   H167      1.0  0.03335  0.05516  0.02162  1.0000
  C   C110      1.0  0.24816  0.26838  0.98540  1.0000
  H   H168      1.0  0.24292  0.13050  0.07141  1.0000
  H   H169      1.0  0.21199  0.11925  0.17077  1.0000
  N   N4        1.0  0.13439  0.05601  0.17558  1.0000
  H   H170      1.0  0.19985  0.42019  0.17918  1.0000
  H   H171      1.0  0.10112  0.28306  0.99849  1.0000
  C   C111      1.0  0.44220  0.15029  0.98475  1.0000
  C   C112      1.0  0.35191  0.04665  0.03393  1.0000
  H   H172      1.0  0.27923  0.43779  0.96828  1.0000
  C   C113      1.0  0.39671  0.08141  0.01767  1.0000
  H   H173      1.0  0.46865  0.25120  0.00823  1.0000
  H   H174      1.0  0.22083  0.27312  0.00701  1.0000
  H   H175      1.0  0.17578  0.50306  0.98846  1.0000
  H   H176      1.0  0.18823  0.30016  0.98597  1.0000
  H   H177      1.0  0.21435  0.47647  0.16910  1.0000
  H   H178      1.0  0.35624  0.47444  0.13941  1.0000
  H   H179      1.0  0.36332  0.05706  0.04318  1.0000
  H   H180      1.0  0.18026  0.04451  0.18562  1.0000
  H   H181      1.0  0.37983  0.29753  0.98547  1.0000
  H   H182      1.0  0.20668  0.43444  0.03173  1.0000
  H   H183      1.0  0.21726  0.23368  0.99992  1.0000
  C   C114      1.0  0.09218  0.29604  0.96913  1.0000
  H   H184      1.0  0.10650  0.31338  0.04455  1.0000
  Fe  Fe14      1.0  0.08718  0.50653  0.13591  1.0000
  H   H185      1.0  0.17304  0.30305  0.01271  1.0000
  H   H186      1.0  0.14912  0.32308  0.03781  1.0000
  H   H187      1.0  0.20392  0.42336  0.15882  1.0000
  H   H188      1.0  0.36848  0.25608  0.98217  1.0000
  H   H189      1.0  0.03495  0.48240  0.11073  1.0000
  Fe  Fe15      1.0  0.48573  0.12801  0.03066  1.0000
  H   H190      1.0  0.34364  0.47683  0.16673  1.0000
  H   H191      1.0  0.17032  0.45955  0.99436  1.0000
  H   H192      1.0  0.11800  0.49041  0.99925  1.0000
  C   C115      1.0  0.33612  0.49124  0.14366  1.0000
  H   H193      1.0  0.31802  0.50618  0.19159  1.0000
  C   C116      1.0  0.28175  0.49784  0.05442  1.0000
  H   H194      1.0  0.16802  0.26293  0.02244  1.0000
  H   H195      1.0  0.48397  0.28482  0.99547  1.0000
  S   S29       1.0  0.12202  0.50157  0.15438  1.0000
  H   H196      1.0  0.50661  0.50039  0.16498  1.0000
  H   H197      1.0  0.28135  0.48129  0.97071  1.0000
  H   H198      1.0  0.22426  0.46575  0.05274  1.0000
  H   H199      1.0  0.13806  0.28136  0.04587  1.0000
  C   C117      1.0  0.12989  0.30364  0.03881  1.0000
  C   C118      1.0  0.15601  0.28151  0.01458  1.0000
  C   C119      1.0  0.46412  0.46921  0.19841  1.0000
  H   H200      1.0  0.40679  0.23216  0.00071  1.0000
  H   H201      1.0  0.37917  0.10294  0.01733  1.0000
  S   S30       1.0  0.10163  0.38964  0.98605  1.0000
  N   N5        1.0  0.15281  0.26750  0.99974  1.0000
  C   C120      1.0  0.12372  0.29481  0.02315  1.0000
  H   H202      1.0  0.16732  0.21799  0.00838  1.0000
  C   C121      1.0  0.43831  0.25982  0.98176  1.0000
  H   H203      1.0  0.46918  0.03519  0.00331  1.0000
  S   S31       1.0  0.48796  0.34932  0.19925  1.0000
  C   C122      1.0  0.42140  0.47673  0.18116  1.0000
  C   C123      1.0  0.29855  0.48672  0.19372  1.0000
  H   H204      1.0  0.31615  0.49255  0.13596  1.0000
  Fe  Fe16      1.0  0.49282  0.35034  0.17389  1.0000
  H   H205      1.0  0.11485  0.31776  0.01677  1.0000
  H   H206      1.0  0.11489  0.22446  0.02364  1.0000
  H   H207      1.0  0.41698  0.19688  0.98115  1.0000
  C   C124      1.0  0.03513  0.43324  0.10425  1.0000
  C   C125      1.0  0.16438  0.48019  0.98578  1.0000
  H   H208      1.0  0.29760  0.43398  0.20243  1.0000
  H   H209      1.0  0.41239  0.08251  0.02708  1.0000
  H   H210      1.0  0.45057  0.43193  0.18482  1.0000
  H   H211      1.0  0.46742  0.13916  0.98253  1.0000
  H   H212      1.0  0.32883  0.07931  0.12780  1.0000
  H   H213      1.0  0.23628  0.40333  0.16893  1.0000
  C   C126      1.0  0.44610  0.45696  0.18773  1.0000
  H   H214      1.0  0.14820  0.12791  0.16516  1.0000
  H   H215      1.0  0.16234  0.37926  0.96639  1.0000
  C   C127      1.0  0.01858  0.46743  0.10495  1.0000
  H   H216      1.0  0.28414  0.49131  0.20469  1.0000
  H   H217      1.0  0.43464  0.07093  0.06966  1.0000
  C   C128      1.0  0.48461  0.25726  0.99741  1.0000
  H   H218      1.0  0.18090  0.08613  0.15497  1.0000
  N   N6        1.0  0.27195  0.46363  0.06183  1.0000
  C   C129      1.0  0.21628  0.49641  0.09599  1.0000
  H   H219      1.0  0.03581  0.06963  0.04683  1.0000
  C   C130      1.0  0.11443  0.21906  0.01176  1.0000
  C   C131      1.0  0.09753  0.14511  0.16588  1.0000
  H   H220      1.0  0.13246  0.07783  0.20528  1.0000
  H   H221      1.0  0.43332  0.14540  0.99699  1.0000
  S   S32       1.0  0.49450  0.44440  0.20710  1.0000
  H   H222      1.0  0.09206  0.08777  0.19882  1.0000
  C   C132      1.0  0.22675  0.49215  0.07935  1.0000
  H   H223      1.0  0.22387  0.43326  0.98323  1.0000
  H   H224      1.0  0.07278  0.13931  0.17217  1.0000
  C   C133      1.0  0.25638  0.46713  0.07777  1.0000
  H   H225      1.0  0.36945  0.09782  0.12413  1.0000
  S   S33       1.0  0.10103  0.04751  0.05519  1.0000
  Fe  Fe17      1.0  0.07346  0.02747  0.07743  1.0000
  H   H226      1.0  0.18458  0.24446  0.21003  1.0000
  H   H227      1.0  0.05373  0.14424  0.99961  1.0000
  H   H228      1.0  0.12018  0.08470  0.15519  1.0000
  H   H229      1.0  0.23694  0.08279  0.17583  1.0000
  H   H230      1.0  0.35874  0.27037  0.00057  1.0000
  C   C134      1.0  0.12568  0.28581  0.99168  1.0000
  H   H231      1.0  0.19026  0.07762  0.21463  1.0000
  H   H232      1.0  0.28021  0.46698  0.99864  1.0000
  C   C135      1.0  0.19377  0.07331  0.16424  1.0000
  H   H233      1.0  0.31440  0.44721  0.98818  1.0000
  H   H234      1.0  0.09227  0.23104  0.00709  1.0000
  C   C136      1.0  0.44306  0.18752  0.97988  1.0000
  H   H235      1.0  0.10325  0.27680  0.02464  1.0000
  H   H236      1.0  0.12004  0.14509  0.20776  1.0000
  H   H237      1.0  0.16823  0.08651  0.18543  1.0000
  H   H238      1.0  0.33173  0.06465  0.03097  1.0000
  H   H239      1.0  0.26000  0.51070  0.04956  1.0000
  H   H240      1.0  0.08709  0.03178  0.15860  1.0000
  N   N7        1.0  0.27604  0.49007  0.18110  1.0000
  H   H241      1.0  0.31173  0.03107  0.01241  1.0000
  N   N8        1.0  0.47052  0.24206  0.98480  1.0000
  C   C137      1.0  0.11062  0.18156  0.01221  1.0000
  H   H242      1.0  0.32017  0.45272  0.06969  1.0000
  H   H243      1.0  0.08795  0.17357  0.01976  1.0000
  H   H244      1.0  0.08834  0.08082  0.17032  1.0000
  H   H245      1.0  0.06046  0.43549  0.09803  1.0000
  C   C138      1.0  0.23257  0.45863  0.97876  1.0000
  C   C139      1.0  0.32242  0.47821  0.15977  1.0000
  H   H246      1.0  0.14872  0.21982  0.99128  1.0000
  C   C140      1.0  0.41076  0.25786  0.99534  1.0000
  C   C141      1.0  0.29990  0.03650  0.06154  1.0000
  C   C142      1.0  0.28687  0.44817  0.99061  1.0000
  C   C143      1.0  0.49426  0.24537  0.97047  1.0000
  H   H247      1.0  0.12796  0.02036  0.19544  1.0000
  H   H248      1.0  0.13066  0.31293  0.99034  1.0000
  H   H249      1.0  0.30887  0.02082  0.07130  1.0000
  C   C144      1.0  0.37748  0.27132  0.99049  1.0000
  C   C145      1.0  0.27112  0.45708  0.97586  1.0000
  H   H250      1.0  0.09737  0.32304  0.96810  1.0000
  H   H251      1.0  0.36567  0.04698  0.00934  1.0000
  S   S34       1.0  0.51241  0.40257  0.16978  1.0000
  H   H252      1.0  0.11931  0.50663  0.97961  1.0000
  Fe  Fe18      1.0  0.51092  0.39982  0.19501  1.0000
  H   H253      1.0  0.24617  0.25671  0.97484  1.0000
  H   H254      1.0  0.22249  0.16826  0.20986  1.0000
  H   H255      1.0  0.39672  0.02858  0.02037  1.0000
  H   H256      1.0  0.06834  0.29117  0.97638  1.0000
  H   H257      1.0  0.36140  0.47320  0.20359  1.0000
  H   H258      1.0  0.23673  0.50706  0.10125  1.0000
  H   H259      1.0  0.22018  0.36572  0.97227  1.0000
  H   H260      1.0  0.28667  0.03065  0.03933  1.0000
  H   H261      1.0  0.24803  0.02338  0.06863  1.0000
  C   C146      1.0  0.02928  0.13268  0.00355  1.0000
  H   H262      1.0  0.45259  0.19100  0.96772  1.0000
  H   H263      1.0  0.42500  0.13821  0.97817  1.0000
  H   H264      1.0  0.02818  0.10916  0.99829  1.0000
  H   H265      1.0  0.23315  0.09037  0.21356  1.0000
  H   H266      1.0  0.35447  0.43036  0.21047  1.0000
  H   H267      1.0  0.14329  0.28121  0.96768  1.0000
  C   C147      1.0  0.17713  0.47120  0.96970  1.0000
  C   C148      1.0  0.21664  0.06914  0.21297  1.0000
  Fe  Fe19      1.0  0.16377  0.51201  0.13567  1.0000
  C   C149      1.0  0.01561  0.04254  0.03065  1.0000
  H   H268      1.0  0.51410  0.25038  0.02469  1.0000
  C   C150      1.0  0.14152  0.14469  0.21404  1.0000
  C   C151      1.0  0.19920  0.15788  0.21522  1.0000
  C   C152      1.0  0.30293  0.01719  0.04732  1.0000
  C   C153      1.0  0.41477  0.50894  0.18513  1.0000
  C   C154      1.0  0.10529  0.01242  0.16225  1.0000
  H   H269      1.0  0.51430  0.29473  0.97297  1.0000
  N   N9        1.0  0.33772  0.01284  0.03955  1.0000
  C   C155      1.0  0.24016  0.19524  0.43138  1.0000
  S   S35       1.0  0.28892  0.09590  0.42212  1.0000
  H   H270      1.0  0.08336  0.22141  0.22727  1.0000
  Fe  Fe20      1.0  0.36652  0.07122  0.44262  1.0000
  S   S36       1.0  0.36674  0.07228  0.41745  1.0000
  C   C156      1.0  0.26098  0.01903  0.25291  1.0000
  Fe  Fe21      1.0  0.33901  0.12051  0.41901  1.0000
  S   S37       1.0  0.34924  0.16544  0.40172  1.0000
  Fe  Fe22      1.0  0.31694  0.04726  0.42292  1.0000
  H   H271      1.0  0.28449  0.45380  0.39415  1.0000
  S   S38       1.0  0.34241  0.12155  0.44388  1.0000
  C   C157      1.0  0.23116  0.16186  0.42661  1.0000
  H   H272      1.0  0.50837  0.44590  0.40701  1.0000
  Fe  Fe23      1.0  0.11426  0.09330  0.26712  1.0000
  S   S39       1.0  0.10968  0.07479  0.29193  1.0000
  S   S40       1.0  0.16272  0.11684  0.25688  1.0000
  Fe  Fe24      1.0  0.04539  0.07037  0.26312  1.0000
  S   S41       1.0  0.03556  0.05003  0.28742  1.0000
  H   H273      1.0  0.22339  0.19947  0.44171  1.0000
  Fe  Fe25      1.0  0.05795  0.09745  0.29233  1.0000
  H   H274      1.0  0.50895  0.45900  0.35819  1.0000
  H   H275      1.0  0.06788  0.03940  0.21564  1.0000
  S   S42       1.0  0.06436  0.11903  0.26806  1.0000
  H   H276      1.0  0.44866  0.12049  0.44005  1.0000
  S   S43       1.0  0.09591  0.04653  0.25973  1.0000
  H   H277      1.0  0.28729  0.22049  0.40506  1.0000
  Fe  Fe26      1.0  0.49189  0.30203  0.38860  1.0000
  H   H278      1.0  0.50773  0.10538  0.41681  1.0000
  S   S44       1.0  0.46897  0.26169  0.40608  1.0000
  Fe  Fe27      1.0  0.49121  0.37636  0.37636  1.0000
  S   S45       1.0  0.46014  0.42323  0.38061  1.0000
  S   S46       1.0  0.47371  0.32972  0.36773  1.0000
  H   H279      1.0  0.33935  0.25020  0.43692  1.0000
  C   C158      1.0  0.47031  0.46587  0.37617  1.0000
  C   C159      1.0  0.45230  0.48954  0.38431  1.0000
  C   C160      1.0  0.50950  0.08693  0.44100  1.0000
  H   H280      1.0  0.43325  0.48131  0.39328  1.0000
  C   C161      1.0  0.09399  0.25982  0.25333  1.0000
  H   H281      1.0  0.10042  0.17662  0.29911  1.0000
  H   H282      1.0  0.13281  0.25785  0.22624  1.0000
  C   C162      1.0  0.14542  0.22617  0.24675  1.0000
  H   H283      1.0  0.25713  0.06340  0.27378  1.0000
  H   H284      1.0  0.03670  0.47075  0.28440  1.0000
  H   H285      1.0  0.50828  0.15666  0.35157  1.0000
  C   C163      1.0  0.05183  0.17915  0.23280  1.0000
  H   H286      1.0  0.29932  0.27742  0.42417  1.0000
  C   C164      1.0  0.27055  0.24200  0.45034  1.0000
  H   H287      1.0  0.50446  0.25015  0.35821  1.0000
  H   H288      1.0  0.06820  0.32081  0.26117  1.0000
  C   C165      1.0  0.28646  0.25396  0.42309  1.0000
  H   H289      1.0  0.49373  0.35400  0.24232  1.0000
  C   C166      1.0  0.19632  0.14493  0.23055  1.0000
  C   C167      1.0  0.16609  0.13172  0.23758  1.0000
  H   H290      1.0  0.10829  0.03031  0.22232  1.0000
  H   H291      1.0  0.25994  0.26146  0.42244  1.0000
  C   C168      1.0  0.13886  0.13110  0.22924  1.0000
  C   C169      1.0  0.33534  0.20860  0.45430  1.0000
  H   H292      1.0  0.11557  0.12072  0.23459  1.0000
  C   C170      1.0  0.11499  0.21863  0.27202  1.0000
  H   H293      1.0  0.11584  0.16379  0.27275  1.0000
  H   H294      1.0  0.20715  0.01985  0.22346  1.0000
  C   C171      1.0  0.30062  0.24248  0.40764  1.0000
  C   C172      1.0  0.45980  0.11392  0.42882  1.0000
  C   C173      1.0  0.38312  0.19159  0.40272  1.0000
  C   C174      1.0  0.38955  0.21863  0.39165  1.0000
  C   C175      1.0  0.41566  0.24054  0.39252  1.0000
  C   C176      1.0  0.43557  0.23541  0.40446  1.0000
  C   C177      1.0  0.42910  0.20834  0.41551  1.0000
  C   C178      1.0  0.40314  0.18640  0.41458  1.0000
  H   H295      1.0  0.37406  0.22283  0.38245  1.0000
  H   H296      1.0  0.42029  0.26144  0.38401  1.0000
  H   H297      1.0  0.44441  0.20421  0.42478  1.0000
  H   H298      1.0  0.39847  0.16552  0.42308  1.0000
  H   H299      1.0  0.23465  0.21431  0.42213  1.0000
  S   S47       1.0  0.31878  0.04345  0.44803  1.0000
  C   C179      1.0  0.11265  0.28968  0.25781  1.0000
  H   H300      1.0  0.24981  0.03267  0.22241  1.0000
  C   C180      1.0  0.14744  0.23523  0.22940  1.0000
  H   H301      1.0  0.29292  0.18418  0.42561  1.0000
  H   H302      1.0  0.10685  0.34300  0.25799  1.0000
  H   H303      1.0  0.19070  0.06065  0.24256  1.0000
  H   H304      1.0  0.48880  0.39451  0.42190  1.0000
  H   H305      1.0  0.21750  0.14539  0.23698  1.0000
  C   C181      1.0  0.28189  0.27567  0.45469  1.0000
  C   C182      1.0  0.49508  0.47683  0.36466  1.0000
  H   H306      1.0  0.11566  0.28692  0.27008  1.0000
  H   H307      1.0  0.50670  0.13718  0.42936  1.0000
  H   H308      1.0  0.15602  0.18185  0.27258  1.0000
  H   H309      1.0  0.44993  0.09462  0.39155  1.0000
  H   H310      1.0  0.21177  0.01996  0.27817  1.0000
  C   C183      1.0  0.12688  0.17676  0.29418  1.0000
  H   H311      1.0  0.22959  0.09105  0.26382  1.0000
  H   H312      1.0  0.38482  0.23005  0.45281  1.0000
  H   H313      1.0  0.15705  0.20104  0.24830  1.0000
  H   H314      1.0  0.27532  0.29610  0.44617  1.0000
  H   H315      1.0  0.03615  0.18695  0.22353  1.0000
  C   C184      1.0  0.21537  0.08105  0.28765  1.0000
  H   H316      1.0  0.31660  0.48800  0.37353  1.0000
  H   H317      1.0  0.30758  0.26071  0.38383  1.0000
  N   N10       1.0  0.22399  0.02603  0.25388  1.0000
  H   H318      1.0  0.46540  0.33213  0.29926  1.0000
  C   C185      1.0  0.27713  0.19577  0.43469  1.0000
  H   H319      1.0  0.16122  0.01418  0.24309  1.0000
  H   H320      1.0  0.09024  0.32696  0.24233  1.0000
  H   H321      1.0  0.21659  0.06077  0.29699  1.0000
  H   H322      1.0  0.13754  0.29244  0.25126  1.0000
  H   H323      1.0  0.49292  0.34156  0.31293  1.0000
  C   C186      1.0  0.02106  0.16840  0.30854  1.0000
  H   H324      1.0  0.41148  0.10185  0.38309  1.0000
  H   H325      1.0  0.50105  0.21922  0.38680  1.0000
  H   H326      1.0  0.46152  0.23156  0.33408  1.0000
  H   H327      1.0  0.13828  0.21422  0.22404  1.0000
  H   H328      1.0  0.51327  0.30477  0.28579  1.0000
  C   C187      1.0  0.04389  0.42595  0.29878  1.0000
  C   C188      1.0  0.09320  0.32202  0.25460  1.0000
  H   H329      1.0  0.27015  0.22304  0.46035  1.0000
  H   H330      1.0  0.01802  0.49854  0.36367  1.0000
  H   H331      1.0  0.22930  0.10258  0.29032  1.0000
  H   H332      1.0  0.18897  0.08886  0.28696  1.0000
  C   C189      1.0  0.23061  0.06969  0.27261  1.0000
  H   H333      1.0  0.08673  0.06861  0.22579  1.0000
  H   H334      1.0  0.19266  0.26458  0.22631  1.0000
  C   C190      1.0  0.29726  0.26980  0.39471  1.0000
  S   S48       1.0  0.24928  0.10349  0.46358  1.0000
  H   H335      1.0  0.13797  0.15198  0.29731  1.0000
  H   H336      1.0  0.41967  0.12471  0.39842  1.0000
  H   H337      1.0  0.19991  0.22049  0.22606  1.0000
  H   H338      1.0  0.30910  0.27626  0.45530  1.0000
  H   H339      1.0  0.31140  0.29204  0.39637  1.0000
  C   C191      1.0  0.12932  0.18372  0.27694  1.0000
  H   H340      1.0  0.38417  0.18917  0.44647  1.0000
  H   H341      1.0  0.24391  0.24566  0.44838  1.0000
  H   H342      1.0  0.24623  0.15699  0.41590  1.0000
  H   H343      1.0  0.32522  0.22279  0.46373  1.0000
  H   H344      1.0  0.32300  0.01680  0.26449  1.0000
  H   H345      1.0  0.44969  0.08981  0.42669  1.0000
  C   C192      1.0  0.32686  0.22571  0.43879  1.0000
  Fe  Fe28      1.0  0.29432  0.09382  0.44707  1.0000
  H   H346      1.0  0.48511  0.26880  0.33364  1.0000
  C   C193      1.0  0.31190  0.49788  0.38472  1.0000
  C   C194      1.0  0.49771  0.11199  0.42818  1.0000
  N   N11       1.0  0.11116  0.22636  0.25533  1.0000
  H   H347      1.0  0.14053  0.19570  0.29911  1.0000
  H   H348      1.0  0.48893  0.14029  0.39029  1.0000
  C   C195      1.0  0.47493  0.15918  0.38352  1.0000
  H   H349      1.0  0.27906  0.17824  0.44504  1.0000
  C   C196      1.0  0.47643  0.20366  0.36282  1.0000
  H   H350      1.0  0.09051  0.22153  0.27886  1.0000
  H   H351      1.0  0.46935  0.37423  0.30350  1.0000
  C   C197      1.0  0.44761  0.14097  0.37673  1.0000
  H   H352      1.0  0.13200  0.23640  0.27583  1.0000
  H   H353      1.0  0.23222  0.07406  0.24113  1.0000
  C   C198      1.0  0.21696  0.05164  0.24104  1.0000
  C   C199      1.0  0.02529  0.44599  0.28674  1.0000
  C   C200      1.0  0.43135  0.11388  0.38819  1.0000
  C   C201      1.0  0.47137  0.24905  0.34122  1.0000
  H   H354      1.0  0.46179  0.17454  0.39198  1.0000
  N   N12       1.0  0.49794  0.18060  0.37226  1.0000
  H   H355      1.0  0.33981  0.21107  0.42998  1.0000
  H   H356      1.0  0.49182  0.06598  0.44309  1.0000
  H   H357      1.0  0.45747  0.21633  0.37028  1.0000
  H   H358      1.0  0.46219  0.18936  0.35575  1.0000
  H   H359      1.0  0.08885  0.26649  0.24144  1.0000
  H   H360      1.0  0.20443  0.16198  0.42472  1.0000
  C   C202      1.0  0.48310  0.35055  0.30204  1.0000
  H   H361      1.0  0.07056  0.42334  0.29449  1.0000
  H   H362      1.0  0.42755  0.15882  0.37357  1.0000
  H   H363      1.0  0.45794  0.12957  0.36645  1.0000
  H   H364      1.0  0.27067  0.27673  0.39395  1.0000
  H   H365      1.0  0.32740  0.23611  0.40765  1.0000
  H   H366      1.0  0.27571  0.48917  0.40462  1.0000
  S   S49       1.0  0.50562  0.34852  0.39787  1.0000
  N   N13       1.0  0.29023  0.22938  0.43675  1.0000
  C   C203      1.0  0.50159  0.51104  0.36135  1.0000
  C   C204      1.0  0.28073  0.48114  0.39307  1.0000
  H   H367      1.0  0.18500  0.04761  0.26850  1.0000
  H   H368      1.0  0.10522  0.17770  0.24805  1.0000
  H   H369      1.0  0.33005  0.46234  0.21924  1.0000
  H   H370      1.0  0.45251  0.13322  0.41998  1.0000
  C   C205      1.0  0.21156  0.03960  0.26857  1.0000
  S   S50       1.0  0.03224  0.12576  0.31114  1.0000
  H   H371      1.0  0.32485  0.18350  0.45633  1.0000
  H   H372      1.0  0.50126  0.04943  0.41704  1.0000
  C   C206      1.0  0.08969  0.19980  0.25075  1.0000
  H   H373      1.0  0.45031  0.26082  0.34785  1.0000
  H   H374      1.0  0.33316  0.49011  0.39115  1.0000
  H   H375      1.0  0.16232  0.24259  0.25153  1.0000
  Fe  Fe29      1.0  0.08793  0.02927  0.28460  1.0000
  H   H376      1.0  0.02651  0.23611  0.28233  1.0000
  C   C207      1.0  0.37292  0.20535  0.45496  1.0000
  H   H377      1.0  0.50055  0.30920  0.26263  1.0000
  C   C208      1.0  0.02035  0.22150  0.29307  1.0000
  C   C209      1.0  0.50836  0.33138  0.23975  1.0000
  C   C210      1.0  0.09198  0.05019  0.21746  1.0000
  S   S51       1.0  0.41068  0.05514  0.45520  1.0000
  H   H378      1.0  0.06903  0.25878  0.26006  1.0000
  C   C211      1.0  0.06842  0.20945  0.23740  1.0000
  H   H379      1.0  0.07121  0.19090  0.26041  1.0000
  H   H380      1.0  0.04815  0.22698  0.24088  1.0000
  H   H381      1.0  0.23537  0.14160  0.43560  1.0000
  C   C212      1.0  0.49486  0.23108  0.35181  1.0000
  C   C213      1.0  0.51161  0.35623  0.28936  1.0000
  H   H382      1.0  0.50054  0.36570  0.27887  1.0000
  H   H383      1.0  0.27508  0.04260  0.25161  1.0000
  C   C214      1.0  0.18337  0.24155  0.22260  1.0000
  H   H384      1.0  0.04230  0.43875  0.30924  1.0000
  C   C215      1.0  0.22352  0.04061  0.22489  1.0000
  H   H385      1.0  0.07084  0.16113  0.22865  1.0000
  H   H386      1.0  0.25879  0.48733  0.38674  1.0000
  H   H387      1.0  0.03322  0.40077  0.30162  1.0000
  C   C216      1.0  0.02865  0.18748  0.29466  1.0000
  H   H388      1.0  0.40492  0.02073  0.42895  1.0000
  H   H389      1.0  0.04123  0.17605  0.28523  1.0000
  C   C217      1.0  0.42937  0.01849  0.44926  1.0000
  H   H390      1.0  0.50591  0.09932  0.45163  1.0000
  H   H391      1.0  0.50370  0.40818  0.43859  1.0000
  H   H392      1.0  0.49185  0.31410  0.23528  1.0000
  H   H393      1.0  0.50798  0.01916  0.43238  1.0000
  H   H394      1.0  0.02495  0.48181  0.33279  1.0000
  H   H395      1.0  0.03567  0.16680  0.24252  1.0000
  H   H396      1.0  0.02942  0.43333  0.27624  1.0000
  H   H397      1.0  0.50751  0.03783  0.46402  1.0000
  C   C218      1.0  0.51058  0.39461  0.42852  1.0000
  H   H398      1.0  0.51119  0.10841  0.36971  1.0000
  H   H399      1.0  0.01819  0.33396  0.38637  1.0000
  H   H400      1.0  0.51144  0.51105  0.41709  1.0000
  Fe  Fe30      1.0  0.19808  0.22852  0.52173  1.0000
  S   S52       1.0  0.15367  0.19602  0.52881  1.0000
  S   S53       1.0  0.24480  0.21929  0.50621  1.0000
  Fe  Fe31      1.0  0.17145  0.28164  0.54171  1.0000
  S   S54       1.0  0.12507  0.25372  0.55063  1.0000
  S   S55       1.0  0.17859  0.33397  0.54672  1.0000
  Fe  Fe32      1.0  0.15951  0.20912  0.55228  1.0000
  S   S56       1.0  0.15428  0.17284  0.57347  1.0000
  Fe  Fe33      1.0  0.12293  0.24332  0.52658  1.0000
  S   S57       1.0  0.07841  0.25218  0.51303  1.0000
  S   S58       1.0  0.20606  0.23835  0.54540  1.0000
  S   S59       1.0  0.16723  0.27448  0.51752  1.0000
  Fe  Fe34      1.0  0.27958  0.45747  0.60317  1.0000
  S   S60       1.0  0.32941  0.43277  0.59917  1.0000
  S   S61       1.0  0.25077  0.44996  0.62638  1.0000
  S   S62       1.0  0.33137  0.46568  0.56367  1.0000
  Fe  Fe35      1.0  0.31115  0.41986  0.57774  1.0000
  S   S63       1.0  0.31267  0.36700  0.57218  1.0000
  H   H401      1.0  0.47819  0.14285  0.61098  1.0000
  S   S64       1.0  0.26034  0.44122  0.58276  1.0000
  Fe  Fe36      1.0  0.15788  0.23054  0.68103  1.0000
  S   S65       1.0  0.11981  0.25145  0.66603  1.0000
  S   S66       1.0  0.17180  0.17637  0.68115  1.0000
  Fe  Fe37      1.0  0.15810  0.29311  0.69733  1.0000
  S   S67       1.0  0.11962  0.31908  0.68362  1.0000
  Fe  Fe38      1.0  0.09299  0.27017  0.68674  1.0000
  S   S68       1.0  0.03821  0.26345  0.69524  1.0000
  Fe  Fe39      1.0  0.14968  0.29813  0.66400  1.0000
  S   S69       1.0  0.15978  0.32301  0.64012  1.0000
  S   S70       1.0  0.12910  0.24595  0.70196  1.0000
  S   S71       1.0  0.19024  0.27549  0.67746  1.0000
  Fe  Fe40      1.0  0.28117  0.05247  0.61031  1.0000
  S   S72       1.0  0.32960  0.06735  0.61754  1.0000
  S   S73       1.0  0.27189  0.07051  0.58614  1.0000
  Fe  Fe41      1.0  0.29912  0.08017  0.63861  1.0000
  S   S74       1.0  0.30670  0.13016  0.64659  1.0000
  H   H402      1.0  0.02423  0.42998  0.52343  1.0000
  S   S75       1.0  0.25045  0.06909  0.63051  1.0000
  H   H403      1.0  0.07566  0.29577  0.58156  1.0000
  C   C219      1.0  0.06793  0.17893  0.71228  1.0000
  H   H404      1.0  0.08218  0.31517  0.54714  1.0000
  H   H405      1.0  0.05287  0.16073  0.65283  1.0000
  C   C220      1.0  0.21086  0.16445  0.67261  1.0000
  C   C221      1.0  0.21724  0.13069  0.67149  1.0000
  C   C222      1.0  0.24690  0.12013  0.66372  1.0000
  C   C223      1.0  0.27085  0.14323  0.65740  1.0000
  C   C224      1.0  0.26534  0.17698  0.65916  1.0000
  C   C225      1.0  0.23510  0.18768  0.66659  1.0000
  H   H406      1.0  0.19903  0.11255  0.67642  1.0000
  H   H407      1.0  0.25120  0.09402  0.66261  1.0000
  H   H408      1.0  0.28402  0.19488  0.65439  1.0000
  H   H409      1.0  0.23051  0.21375  0.66760  1.0000
  H   H410      1.0  0.17148  0.04959  0.68203  1.0000
  C   C226      1.0  0.48041  0.45772  0.58205  1.0000
  H   H411      1.0  0.28558  0.04755  0.52417  1.0000
  H   H412      1.0  0.10127  0.39279  0.58166  1.0000
  H   H413      1.0  0.14329  0.46795  0.53425  1.0000
  H   H414      1.0  0.08655  0.07413  0.67080  1.0000
  H   H415      1.0  0.23796  0.29772  0.50140  1.0000
  C   C227      1.0  0.22766  0.41310  0.63038  1.0000
  C   C228      1.0  0.22000  0.39517  0.61871  1.0000
  C   C229      1.0  0.19965  0.36726  0.62190  1.0000
  C   C230      1.0  0.18729  0.35660  0.63684  1.0000
  C   C231      1.0  0.19597  0.37362  0.64865  1.0000
  C   C232      1.0  0.21578  0.40212  0.64539  1.0000
  H   H416      1.0  0.22914  0.40301  0.60716  1.0000
  H   H417      1.0  0.19334  0.35397  0.61274  1.0000
  H   H418      1.0  0.18648  0.36551  0.66022  1.0000
  H   H419      1.0  0.22160  0.41580  0.65452  1.0000
  C   C233      1.0  0.21570  0.34244  0.55407  1.0000
  C   C234      1.0  0.23340  0.31758  0.56207  1.0000
  C   C235      1.0  0.26272  0.32540  0.56803  1.0000
  C   C236      1.0  0.27477  0.35783  0.56568  1.0000
  C   C237      1.0  0.25720  0.38251  0.55755  1.0000
  C   C238      1.0  0.22757  0.37490  0.55190  1.0000
  H   H420      1.0  0.22443  0.29248  0.56378  1.0000
  H   H421      1.0  0.27608  0.30638  0.57448  1.0000
  H   H422      1.0  0.26674  0.40745  0.55536  1.0000
  H   H423      1.0  0.21415  0.39417  0.54562  1.0000
  C   C239      1.0  0.24538  0.18777  0.49405  1.0000
  C   C240      1.0  0.21611  0.17273  0.49140  1.0000
  C   C241      1.0  0.21759  0.14705  0.48192  1.0000
  H   H424      1.0  0.19235  0.18092  0.49662  1.0000
  H   H425      1.0  0.19486  0.13554  0.47985  1.0000
  C   C242      1.0  0.18738  0.14493  0.57699  1.0000
  C   C243      1.0  0.21755  0.14671  0.56770  1.0000
  C   C244      1.0  0.24348  0.12406  0.57079  1.0000
  C   C245      1.0  0.23954  0.09969  0.58320  1.0000
  C   C246      1.0  0.20957  0.09823  0.59263  1.0000
  C   C247      1.0  0.18349  0.12068  0.58947  1.0000
  H   H426      1.0  0.22082  0.16542  0.55812  1.0000
  H   H427      1.0  0.26683  0.12551  0.56362  1.0000
  H   H428      1.0  0.20632  0.07944  0.60220  1.0000
  H   H429      1.0  0.16019  0.11918  0.59670  1.0000
  C   C248      1.0  0.33341  0.43506  0.67414  1.0000
  H   H430      1.0  0.21218  0.35525  0.69547  1.0000
  H   H431      1.0  0.23714  0.28335  0.47001  1.0000
  C   C249      1.0  0.32657  0.25398  0.50671  1.0000
  H   H432      1.0  0.29518  0.32169  0.50172  1.0000
  C   C250      1.0  0.24829  0.13622  0.47510  1.0000
  Fe  Fe42      1.0  0.33275  0.01592  0.62945  1.0000
  H   H433      1.0  0.37922  0.41889  0.66266  1.0000
  H   H434      1.0  0.10481  0.48004  0.59668  1.0000
  H   H435      1.0  0.27927  0.36022  0.64346  1.0000
  H   H436      1.0  0.50985  0.19443  0.60643  1.0000
  H   H437      1.0  0.42849  0.44983  0.57953  1.0000
  N   N14       1.0  0.31474  0.29087  0.52908  1.0000
  C   C251      1.0  0.28003  0.29542  0.52430  1.0000
  C   C252      1.0  0.31320  0.26804  0.54365  1.0000
  C   C253      1.0  0.32611  0.32437  0.53239  1.0000
  C   C254      1.0  0.33956  0.27816  0.51705  1.0000
  C   C255      1.0  0.27570  0.32339  0.51136  1.0000
  C   C256      1.0  0.35895  0.32467  0.53996  1.0000
  C   C257      1.0  0.30175  0.23205  0.54310  1.0000
  C   C258      1.0  0.29385  0.21444  0.55907  1.0000
  C   C259      1.0  0.24153  0.32202  0.50563  1.0000
  C   C260      1.0  0.37321  0.35958  0.53852  1.0000
  H   H438      1.0  0.26212  0.30111  0.53409  1.0000
  H   H439      1.0  0.27076  0.27221  0.52086  1.0000
  H   H440      1.0  0.33802  0.26536  0.54798  1.0000
  H   H441      1.0  0.29659  0.27918  0.55256  1.0000
  H   H442      1.0  0.30652  0.33632  0.53983  1.0000
  H   H443      1.0  0.32972  0.34151  0.52177  1.0000
  H   H444      1.0  0.36093  0.26573  0.52237  1.0000
  H   H445      1.0  0.27732  0.34807  0.51555  1.0000
  H   H446      1.0  0.37822  0.30819  0.53479  1.0000
  H   H447      1.0  0.35406  0.31623  0.55224  1.0000
  H   H448      1.0  0.27913  0.23095  0.53723  1.0000
  H   H449      1.0  0.32206  0.21774  0.53725  1.0000
  H   H450      1.0  0.31590  0.21420  0.56553  1.0000
  H   H451      1.0  0.27263  0.22697  0.56526  1.0000
  H   H452      1.0  0.28679  0.18840  0.55840  1.0000
  C   C261      1.0  0.01593  0.23180  0.67223  1.0000
  H   H453      1.0  0.13965  0.36750  0.59883  1.0000
  H   H454      1.0  0.22164  0.32589  0.51491  1.0000
  H   H455      1.0  0.39505  0.35951  0.54509  1.0000
  H   H456      1.0  0.38133  0.36815  0.52649  1.0000
  H   H457      1.0  0.35434  0.37735  0.54306  1.0000
  H   H458      1.0  0.13661  0.49451  0.54918  1.0000
  H   H459      1.0  0.29883  0.18786  0.48954  1.0000
  H   H460      1.0  0.19337  0.45922  0.59703  1.0000
  H   H461      1.0  0.06710  0.18852  0.66508  1.0000
  C   C262      1.0  0.26464  0.28291  0.47008  1.0000
  C   C263      1.0  0.17396  0.47489  0.59164  1.0000
  H   H462      1.0  0.14128  0.04055  0.66981  1.0000
  H   H463      1.0  0.10998  0.14201  0.69367  1.0000
  H   H464      1.0  0.11948  0.50478  0.48334  1.0000
  C   C264      1.0  0.15555  0.45286  0.58206  1.0000
  H   H465      1.0  0.23137  0.22014  0.70234  1.0000
  H   H466      1.0  0.04685  0.40128  0.58241  1.0000
  C   C265      1.0  0.13206  0.43706  0.61894  1.0000
  C   C266      1.0  0.12392  0.42148  0.63524  1.0000
  C   C267      1.0  0.17995  0.43433  0.57156  1.0000
  H   H467      1.0  0.07790  0.50315  0.54514  1.0000
  C   C268      1.0  0.09178  0.34353  0.51816  1.0000
  H   H468      1.0  0.36901  0.42599  0.69094  1.0000
  H   H469      1.0  0.35619  0.46900  0.68732  1.0000
  C   C269      1.0  0.43728  0.42798  0.62268  1.0000
  H   H470      1.0  0.31026  0.41616  0.63376  1.0000
  Fe  Fe43      1.0  0.25788  0.01730  0.64166  1.0000
  C   C270      1.0  0.50489  0.14153  0.61292  1.0000
  H   H471      1.0  0.05609  0.20347  0.71387  1.0000
  H   H472      1.0  0.13965  0.43433  0.58919  1.0000
  C   C271      1.0  0.03141  0.27090  0.53562  1.0000
  H   H473      1.0  0.13768  0.09470  0.69154  1.0000
  S   S76       1.0  0.30517  0.02984  0.65133  1.0000
  C   C272      1.0  0.41183  0.08617  0.62637  1.0000
  H   H474      1.0  0.14938  0.41977  0.61306  1.0000
  H   H475      1.0  0.10390  0.43587  0.64125  1.0000
  H   H476      1.0  0.11536  0.39564  0.63527  1.0000
  C   C273      1.0  0.01968  0.28659  0.50983  1.0000
  H   H477      1.0  0.16608  0.42064  0.56416  1.0000
  H   H478      1.0  0.49220  0.02909  0.59831  1.0000
  H   H479      1.0  0.19490  0.41608  0.57828  1.0000
  H   H480      1.0  0.34152  0.37285  0.65923  1.0000
  H   H481      1.0  0.19603  0.05983  0.51649  1.0000
  H   H482      1.0  0.11177  0.46163  0.48157  1.0000
  C   C274      1.0  0.04088  0.27129  0.52008  1.0000
  H   H483      1.0  0.02688  0.07176  0.69170  1.0000
  C   C275      1.0  0.03495  0.40563  0.57178  1.0000
  H   H484      1.0  0.04546  0.33729  0.54245  1.0000
  H   H485      1.0  0.04319  0.02056  0.67451  1.0000
  H   H486      1.0  0.11781  0.36227  0.53499  1.0000
  C   C276      1.0  0.27755  0.15091  0.47795  1.0000
  H   H487      1.0  0.03828  0.39279  0.54923  1.0000
  C   C277      1.0  0.07517  0.16990  0.65729  1.0000
  C   C278      1.0  0.09684  0.18719  0.64375  1.0000
  C   C279      1.0  0.44610  0.46588  0.58337  1.0000
  H   H488      1.0  0.11820  0.15143  0.66800  1.0000
  H   H489      1.0  0.10180  0.12416  0.65643  1.0000
  H   H490      1.0  0.07659  0.40694  0.55423  1.0000
  H   H491      1.0  0.05613  0.28401  0.56576  1.0000
  H   H492      1.0  0.48890  0.43526  0.57723  1.0000
  H   H493      1.0  0.14408  0.10048  0.67121  1.0000
  N   N15       1.0  0.07896  0.47578  0.51036  1.0000
  H   H494      1.0  0.28826  0.47440  0.64959  1.0000
  H   H495      1.0  0.12047  0.19569  0.64727  1.0000
  H   H496      1.0  0.10279  0.17008  0.63488  1.0000
  H   H497      1.0  0.08325  0.20915  0.63880  1.0000
  H   H498      1.0  0.02832  0.14336  0.67620  1.0000
  C   C280      1.0  0.08304  0.13714  0.69352  1.0000
  C   C281      1.0  0.26077  0.04871  0.51973  1.0000
  H   H499      1.0  0.01823  0.33488  0.56681  1.0000
  C   C282      1.0  0.29545  0.03994  0.49487  1.0000
  C   C283      1.0  0.35524  0.24019  0.49650  1.0000
  N   N16       1.0  0.34873  0.43699  0.64480  1.0000
  H   H500      1.0  0.06110  0.45173  0.49215  1.0000
  H   H501      1.0  0.01791  0.44875  0.55771  1.0000
  H   H502      1.0  0.07479  0.42408  0.50680  1.0000
  C   C284      1.0  0.06502  0.17043  0.69620  1.0000
  H   H503      1.0  0.02131  0.29151  0.59754  1.0000
  H   H504      1.0  0.20443  0.03039  0.54005  1.0000
  C   C285      1.0  0.37711  0.42385  0.63452  1.0000
  C   C286      1.0  0.15243  0.11122  0.51846  1.0000
  C   C287      1.0  0.14900  0.47103  0.61852  1.0000
  C   C288      1.0  0.31956  0.41423  0.64513  1.0000
  N   N17       1.0  0.23677  0.06970  0.52904  1.0000
  C   C289      1.0  0.20813  0.08159  0.52018  1.0000
  Fe  Fe44      1.0  0.28074  0.48817  0.57019  1.0000
  C   C290      1.0  0.22250  0.04831  0.54307  1.0000
  C   C291      1.0  0.25434  0.09811  0.53424  1.0000
  C   C292      1.0  0.27126  0.12328  0.52179  1.0000
  C   C293      1.0  0.18053  0.10239  0.52844  1.0000
  H   H505      1.0  0.07684  0.19081  0.68833  1.0000
  H   H506      1.0  0.13528  0.48519  0.62734  1.0000
  C   C294      1.0  0.28363  0.15316  0.52857  1.0000
  C   C295      1.0  0.01971  0.09842  0.69106  1.0000
  H   H507      1.0  0.11250  0.32808  0.56660  1.0000
  C   C296      1.0  0.09242  0.08726  0.68052  1.0000
  H   H508      1.0  0.21687  0.09704  0.50955  1.0000
  S   S77       1.0  0.24858  0.50898  0.55185  1.0000
  C   C297      1.0  0.04357  0.01988  0.64368  1.0000
  H   H509      1.0  0.20825  0.06383  0.55118  1.0000
  H   H510      1.0  0.23680  0.11193  0.54179  1.0000
  H   H511      1.0  0.27435  0.08884  0.54126  1.0000
  H   H512      1.0  0.25374  0.13254  0.51359  1.0000
  H   H513      1.0  0.29330  0.11163  0.51582  1.0000
  H   H514      1.0  0.16912  0.08860  0.53904  1.0000
  H   H515      1.0  0.19069  0.12596  0.53116  1.0000
  H   H516      1.0  0.15828  0.36479  0.57968  1.0000
  H   H517      1.0  0.13966  0.32885  0.59071  1.0000
  C   C298      1.0  0.31076  0.48968  0.64650  1.0000
  H   H518      1.0  0.27020  0.08539  0.49930  1.0000
  H   H519      1.0  0.26227  0.16708  0.53389  1.0000
  H   H520      1.0  0.30094  0.14515  0.53716  1.0000
  H   H521      1.0  0.29711  0.17009  0.51948  1.0000
  H   H522      1.0  0.13261  0.12543  0.52470  1.0000
  H   H523      1.0  0.27254  0.30739  0.47283  1.0000
  H   H524      1.0  0.36836  0.41870  0.62362  1.0000
  H   H525      1.0  0.16873  0.47751  0.47124  1.0000
  H   H526      1.0  0.34096  0.36617  0.63971  1.0000
  N   N18       1.0  0.21976  0.20431  0.61656  1.0000
  C   C299      1.0  0.20611  0.17989  0.62954  1.0000
  C   C300      1.0  0.23877  0.23044  0.62279  1.0000
  C   C301      1.0  0.19111  0.21933  0.60854  1.0000
  C   C302      1.0  0.24332  0.18747  0.60537  1.0000
  C   C303      1.0  0.27114  0.16545  0.61222  1.0000
  C   C304      1.0  0.18702  0.15025  0.62519  1.0000
  C   C305      1.0  0.19982  0.24806  0.59591  1.0000
  C   C306      1.0  0.21800  0.25404  0.63284  1.0000
  C   C307      1.0  0.24060  0.27917  0.63818  1.0000
  C   C308      1.0  0.29784  0.15597  0.59993  1.0000
  C   C309      1.0  0.17586  0.12642  0.63912  1.0000
  C   C310      1.0  0.16838  0.26133  0.58907  1.0000
  H   H527      1.0  0.18855  0.19248  0.63762  1.0000
  H   H528      1.0  0.22638  0.16974  0.63623  1.0000
  H   H529      1.0  0.25756  0.21862  0.62993  1.0000
  H   H530      1.0  0.25336  0.24600  0.61346  1.0000
  H   H531      1.0  0.17116  0.22814  0.61685  1.0000
  H   H532      1.0  0.17925  0.20016  0.60291  1.0000
  H   H533      1.0  0.22951  0.17178  0.59871  1.0000
  H   H534      1.0  0.25586  0.20633  0.59681  1.0000
  H   H535      1.0  0.26053  0.14222  0.61835  1.0000
  H   H536      1.0  0.28393  0.17817  0.62028  1.0000
  H   H537      1.0  0.16430  0.15888  0.61991  1.0000
  H   H538      1.0  0.20293  0.13599  0.61725  1.0000
  H   H539      1.0  0.21720  0.23935  0.58662  1.0000
  H   H540      1.0  0.21139  0.26906  0.60032  1.0000
  H   H541      1.0  0.19905  0.26812  0.62657  1.0000
  H   H542      1.0  0.20507  0.24014  0.64308  1.0000
  H   H543      1.0  0.26005  0.26631  0.64463  1.0000
  H   H544      1.0  0.25258  0.29535  0.62837  1.0000
  H   H545      1.0  0.22569  0.29518  0.64576  1.0000
  H   H546      1.0  0.28681  0.14241  0.59160  1.0000
  H   H547      1.0  0.31051  0.17840  0.59399  1.0000
  H   H548      1.0  0.31677  0.13958  0.60519  1.0000
  H   H549      1.0  0.16232  0.14002  0.64808  1.0000
  H   H550      1.0  0.15924  0.10748  0.63598  1.0000
  H   H551      1.0  0.19773  0.11351  0.64366  1.0000
  H   H552      1.0  0.15695  0.24170  0.58361  1.0000
  H   H553      1.0  0.14996  0.27007  0.59798  1.0000
  H   H554      1.0  0.17461  0.28245  0.58034  1.0000
  H   H555      1.0  0.10262  0.31813  0.51972  1.0000
  H   H556      1.0  0.46684  0.04480  0.62030  1.0000
  C   C311      1.0  0.44780  0.08771  0.63007  1.0000
  C   C312      1.0  0.06116  0.44804  0.50462  1.0000
  H   H557      1.0  0.15650  0.04611  0.63540  1.0000
  H   H558      1.0  0.50742  0.14480  0.62490  1.0000
  C   C313      1.0  0.33928  0.47103  0.63779  1.0000
  C   C314      1.0  0.29432  0.35745  0.65325  1.0000
  H   H559      1.0  0.34533  0.22334  0.48912  1.0000
  H   H560      1.0  0.13937  0.46825  0.57480  1.0000
  C   C315      1.0  0.50384  0.47847  0.58679  1.0000
  H   H561      1.0  0.25201  0.02261  0.52087  1.0000
  C   C316      1.0  0.47229  0.07179  0.61814  1.0000
  H   H562      1.0  0.25441  0.27314  0.70672  1.0000
  H   H563      1.0  0.02670  0.28675  0.49779  1.0000
  H   H564      1.0  0.40488  0.06019  0.62546  1.0000
  H   H565      1.0  0.25255  0.39941  0.69785  1.0000
  C   C317      1.0  0.14437  0.05001  0.68078  1.0000
  H   H566      1.0  0.29190  0.01273  0.49715  1.0000
  C   C318      1.0  0.49239  0.50717  0.59320  1.0000
  C   C319      1.0  0.04060  0.11862  0.67775  1.0000
  H   H567      1.0  0.30131  0.14159  0.47330  1.0000
  H   H568      1.0  0.10486  0.02610  0.65179  1.0000
  H   H569      1.0  0.08432  0.35424  0.59111  1.0000
  H   H570      1.0  0.36858  0.26059  0.48917  1.0000
  H   H571      1.0  0.34645  0.33799  0.70116  1.0000
  H   H572      1.0  0.09449  0.18011  0.71434  1.0000
  H   H573      1.0  0.01925  0.39563  0.50209  1.0000
  C   C320      1.0  0.34777  0.44290  0.68849  1.0000
  C   C321      1.0  0.05525  0.39039  0.55838  1.0000
  H   H574      1.0  0.40222  0.46807  0.62244  1.0000
  H   H575      1.0  0.30008  0.33070  0.65593  1.0000
  H   H576      1.0  0.21767  0.02710  0.57411  1.0000
  C   C322      1.0  0.07552  0.47005  0.52746  1.0000
  H   H577      1.0  0.20205  0.50863  0.62384  1.0000
  H   H578      1.0  0.38629  0.39958  0.63966  1.0000
  H   H579      1.0  0.14625  0.42074  0.64150  1.0000
  H   H580      1.0  0.30903  0.26692  0.49926  1.0000
  C   C323      1.0  0.07066  0.34036  0.54609  1.0000
  H   H581      1.0  0.03280  0.25348  0.58946  1.0000
  H   H582      1.0  0.16959  0.44706  0.48746  1.0000
  C   C324      1.0  0.32667  0.37684  0.64943  1.0000
  H   H583      1.0  0.18817  0.49321  0.58332  1.0000
  N   N19       1.0  0.50915  0.07741  0.61839  1.0000
  H   H584      1.0  0.08226  0.44397  0.53121  1.0000
  H   H585      1.0  0.13175  0.03334  0.69024  1.0000
  C   C325      1.0  0.40801  0.44642  0.63050  1.0000
  C   C326      1.0  0.13085  0.08548  0.68103  1.0000
  H   H586      1.0  0.27934  0.36639  0.66323  1.0000
  H   H587      1.0  0.06509  0.50472  0.48112  1.0000
  C   C327      1.0  0.13743  0.35612  0.58821  1.0000
  Fe  Fe45      1.0  0.34568  0.48075  0.58577  1.0000
  H   H588      1.0  0.04889  0.04143  0.64974  1.0000
  C   C328      1.0  0.11853  0.50195  0.59897  1.0000
  H   H589      1.0  0.29799  0.42185  0.65281  1.0000
  H   H590      1.0  0.16187  0.12675  0.50795  1.0000
  H   H591      1.0  0.44924  0.07393  0.64143  1.0000
  H   H592      1.0  0.50383  0.09898  0.63987  1.0000
  H   H593      1.0  0.04719  0.02921  0.63145  1.0000
  C   C329      1.0  0.10374  0.36537  0.58248  1.0000
  N   N20       1.0  0.06758  0.35492  0.56110  1.0000
  H   H594      1.0  0.32411  0.40929  0.67625  1.0000
  H   H595      1.0  0.04715  0.25844  0.54356  1.0000
  H   H596      1.0  0.31335  0.23275  0.51328  1.0000
  H   H597      1.0  0.10717  0.35793  0.50876  1.0000
  H   H598      1.0  0.04897  0.47287  0.53205  1.0000
  H   H599      1.0  0.13002  0.49203  0.50966  1.0000
  H   H600      1.0  0.50759  0.05554  0.64152  1.0000
  H   H601      1.0  0.37304  0.22584  0.50340  1.0000
  H   H602      1.0  0.10844  0.43890  0.61367  1.0000
  C   C330      1.0  0.27608  0.17688  0.48725  1.0000
  H   H603      1.0  0.35071  0.29913  0.50920  1.0000
  H   H604      1.0  0.35119  0.37285  0.71168  1.0000
  H   H605      1.0  0.11928  0.36933  0.55882  1.0000
  H   H606      1.0  0.06609  0.34198  0.51493  1.0000
  N   N21       1.0  0.07720  0.12179  0.67936  1.0000
  H   H607      1.0  0.33263  0.46944  0.62609  1.0000
  C   C331      1.0  0.12448  0.47668  0.54299  1.0000
  C   C332      1.0  0.09498  0.49385  0.53584  1.0000
  H   H608      1.0  0.45334  0.11391  0.63097  1.0000
  N   N22       1.0  0.15272  0.49230  0.60349  1.0000
  H   H609      1.0  0.08725  0.01250  0.67502  1.0000
  C   C333      1.0  0.43477  0.49501  0.58944  1.0000
  H   H610      1.0  0.27150  0.26366  0.47906  1.0000
  H   H611      1.0  0.46467  0.07972  0.60666  1.0000
  H   H612      1.0  0.23924  0.34193  0.49625  1.0000
  H   H613      1.0  0.29760  0.04676  0.48242  1.0000
  H   H614      1.0  0.17707  0.49030  0.48916  1.0000
  H   H615      1.0  0.08128  0.38565  0.53034  1.0000
  C   C334      1.0  0.05242  0.29766  0.57590  1.0000
  H   H616      1.0  0.24340  0.05230  0.49708  1.0000
  H   H617      1.0  0.32832  0.43954  0.69826  1.0000
  C   C335      1.0  0.04252  0.33446  0.57174  1.0000
  C   C336      1.0  0.09158  0.36034  0.53267  1.0000
  H   H618      1.0  0.14123  0.08843  0.51541  1.0000
  H   H619      1.0  0.03694  0.34514  0.58265  1.0000
  H   H620      1.0  0.37359  0.46237  0.66044  1.0000
  H   H621      1.0  0.43015  0.41875  0.61221  1.0000
  H   H622      1.0  0.08158  0.07215  0.69094  1.0000
  C   C337      1.0  0.10158  0.35356  0.56671  1.0000
  C   C338      1.0  0.26590  0.05861  0.50231  1.0000
  C   C339      1.0  0.09456  0.14101  0.66534  1.0000
  H   H623      1.0  0.22113  0.50396  0.60493  1.0000
  C   C340      1.0  0.02524  0.27979  0.58679  1.0000
  H   H624      1.0  0.26681  0.04382  0.55591  1.0000
  H   H625      1.0  0.40843  0.10140  0.61554  1.0000
  C   C341      1.0  0.11558  0.47332  0.50496  1.0000
  H   H626      1.0  0.39467  0.09586  0.63551  1.0000
  C   C342      1.0  0.36032  0.43868  0.66026  1.0000
  H   H627      1.0  0.05481  0.45558  0.56670  1.0000
  S   S78       1.0  0.29623  0.50687  0.59124  1.0000
  H   H628      1.0  0.12577  0.44870  0.50923  1.0000
  H   H629      1.0  0.07655  0.11928  0.70372  1.0000
  H   H630      1.0  0.03746  0.10698  0.66724  1.0000
  H   H631      1.0  0.45849  0.44513  0.61942  1.0000
  C   C343      1.0  0.24057  0.38559  0.70792  1.0000
  H   H632      1.0  0.03715  0.24233  0.66504  1.0000
  C   C344      1.0  0.21769  0.36067  0.70654  1.0000
  H   H633      1.0  0.02288  0.10778  0.70203  1.0000
  C   C345      1.0  0.24796  0.02782  0.55232  1.0000
  H   H634      1.0  0.44560  0.40678  0.63036  1.0000
  H   H635      1.0  0.03812  0.16986  0.69489  1.0000
  H   H636      1.0  0.15981  0.04080  0.61549  1.0000
  H   H637      1.0  0.17378  0.46469  0.62248  1.0000
  H   H638      1.0  0.19691  0.45192  0.56421  1.0000
  C   C346      1.0  0.12509  0.47877  0.48764  1.0000
  H   H639      1.0  0.31897  0.04670  0.49911  1.0000
  C   C347      1.0  0.15183  0.02881  0.62704  1.0000
  H   H640      1.0  0.31220  0.36694  0.70437  1.0000
  H   H641      1.0  0.10085  0.04305  0.62504  1.0000
  C   C348      1.0  0.02472  0.44230  0.51168  1.0000
  H   H642      1.0  0.41617  0.45552  0.64078  1.0000
  H   H643      1.0  0.40592  0.01421  0.65107  1.0000
  H   H644      1.0  0.31158  0.45153  0.67259  1.0000
  H   H645      1.0  0.11593  0.45530  0.55117  1.0000
  C   C349      1.0  0.06499  0.50987  0.50569  1.0000
  C   C350      1.0  0.16241  0.47300  0.48370  1.0000
  H   H646      1.0  0.37809  0.19387  0.46634  1.0000
  H   H647      1.0  0.44568  0.48982  0.55211  1.0000
  H   H648      1.0  0.36069  0.48812  0.63658  1.0000
  H   H649      1.0  0.02478  0.50249  0.49161  1.0000
  C   C351      1.0  0.03037  0.44307  0.56819  1.0000
  C   C352      1.0  0.33353  0.35390  0.70940  1.0000
  C   C353      1.0  0.11494  0.02003  0.62831  1.0000
  H   H650      1.0  0.08033  0.50480  0.57412  1.0000
  S   S79       1.0  0.39209  0.50758  0.59069  1.0000
  H   H651      1.0  0.30307  0.29736  0.71107  1.0000
  H   H652      1.0  0.31936  0.49766  0.65693  1.0000
  H   H653      1.0  0.28236  0.23960  0.71191  1.0000
  H   H654      1.0  0.42108  0.50711  0.53746  1.0000
  H   H655      1.0  0.51444  0.10674  0.59663  1.0000
  H   H656      1.0  0.46202  0.01340  0.66022  1.0000
  C   C354      1.0  0.23039  0.22694  0.71411  1.0000
  H   H657      1.0  0.01464  0.45329  0.57764  1.0000
  H   H658      1.0  0.10298  0.51208  0.60856  1.0000
  C   C355      1.0  0.25799  0.25147  0.71516  1.0000
  Fe  Fe46      1.0  0.47141  0.13344  0.83077  1.0000
  S   S80       1.0  0.46449  0.17146  0.84769  1.0000
  S   S81       1.0  0.44209  0.08513  0.83667  1.0000
  C   C356      1.0  0.47061  0.15372  0.91503  1.0000
  H   H659      1.0  0.45919  0.14288  0.94673  1.0000
  Fe  Fe47      1.0  0.46029  0.20940  0.82753  1.0000
  S   S82       1.0  0.42740  0.25570  0.82870  1.0000
  S   S83       1.0  0.46291  0.17127  0.81091  1.0000
  H   H660      1.0  0.51292  0.09139  0.90157  1.0000
  H   H661      1.0  0.38678  0.08498  0.80734  1.0000
  Fe  Fe48      1.0  0.30856  0.44521  0.77607  1.0000
  S   S84       1.0  0.32211  0.46849  0.75236  1.0000
  H   H662      1.0  0.43043  0.04940  0.80405  1.0000
  Fe  Fe49      1.0  0.33843  0.37728  0.76918  1.0000
  S   S85       1.0  0.35457  0.39636  0.74503  1.0000
  S   S86       1.0  0.34785  0.32193  0.77496  1.0000
  Fe  Fe50      1.0  0.37086  0.44180  0.75426  1.0000
  S   S87       1.0  0.41967  0.46602  0.74543  1.0000
  Fe  Fe51      1.0  0.30430  0.42098  0.74517  1.0000
  C   C357      1.0  0.48881  0.13492  0.88968  1.0000
  S   S88       1.0  0.35897  0.42097  0.77840  1.0000
  S   S89       1.0  0.28653  0.39938  0.76886  1.0000
  Fe  Fe52      1.0  0.10320  0.45656  0.93461  1.0000
  H   H663      1.0  0.38884  0.49210  0.77257  1.0000
  H   H664      1.0  0.25080  0.27658  0.78722  1.0000
  Fe  Fe53      1.0  0.07836  0.38617  0.93119  1.0000
  S   S90       1.0  0.04624  0.38400  0.95326  1.0000
  S   S91       1.0  0.07955  0.34574  0.91521  1.0000
  H   H665      1.0  0.36264  0.13706  0.81543  1.0000
  C   C358      1.0  0.42630  0.01944  0.83622  1.0000
  H   H666      1.0  0.47582  0.10000  0.92045  1.0000
  H   H667      1.0  0.30477  0.33190  0.80378  1.0000
  S   S92       1.0  0.06175  0.43753  0.92302  1.0000
  S   S93       1.0  0.12310  0.40489  0.94075  1.0000
  S   S94       1.0  0.07153  0.45949  0.95676  1.0000
  H   H668      1.0  0.40373  0.34444  0.85825  1.0000
  H   H669      1.0  0.23418  0.27963  0.73255  1.0000
  C   C359      1.0  0.22214  0.44756  0.95343  1.0000
  H   H670      1.0  0.44798  0.25155  0.88493  1.0000
  H   H671      1.0  0.29152  0.25943  0.76711  1.0000
  H   H672      1.0  0.33692  0.43513  0.80959  1.0000
  H   H673      1.0  0.26745  0.32967  0.81700  1.0000
  H   H674      1.0  0.30357  0.39348  0.80285  1.0000
  H   H675      1.0  0.48796  0.28897  0.83966  1.0000
  H   H676      1.0  0.40598  0.02448  0.77566  1.0000
  C   C360      1.0  0.32158  0.33311  0.72421  1.0000
  H   H677      1.0  0.49720  0.33190  0.83379  1.0000
  H   H678      1.0  0.48752  0.08258  0.73869  1.0000
  H   H679      1.0  0.37048  0.45814  0.83025  1.0000
  C   C361      1.0  0.27899  0.29683  0.74903  1.0000
  C   C362      1.0  0.20954  0.34994  0.73384  1.0000
  C   C363      1.0  0.23276  0.37439  0.73520  1.0000
  H   H680      1.0  0.37064  0.36392  0.86953  1.0000
  C   C364      1.0  0.34973  0.41926  0.81819  1.0000
  H   H681      1.0  0.19750  0.33621  0.74393  1.0000
  H   H682      1.0  0.23842  0.37950  0.74628  1.0000
  C   C365      1.0  0.43323  0.04802  0.79163  1.0000
  H   H683      1.0  0.24514  0.48288  0.74406  1.0000
  C   C366      1.0  0.37266  0.13619  0.80339  1.0000
  C   C367      1.0  0.04716  0.31649  0.91624  1.0000
  C   C368      1.0  0.04470  0.29793  0.90397  1.0000
  H   H684      1.0  0.49279  0.14638  0.87770  1.0000
  C   C369      1.0  0.34378  0.20345  0.74490  1.0000
  C   C370      1.0  0.24858  0.39207  0.72225  1.0000
  H   H685      1.0  0.06267  0.30164  0.89407  1.0000
  C   C371      1.0  0.28963  0.37875  0.81257  1.0000
  S   S95       1.0  0.27900  0.42176  0.72363  1.0000
  C   C372      1.0  0.40757  0.27431  0.81303  1.0000
  C   C373      1.0  0.39814  0.30800  0.81251  1.0000
  C   C374      1.0  0.38085  0.32322  0.80065  1.0000
  C   C375      1.0  0.37206  0.30464  0.78939  1.0000
  C   C376      1.0  0.38153  0.27097  0.78989  1.0000
  C   C377      1.0  0.39954  0.25595  0.80155  1.0000
  H   H686      1.0  0.40445  0.32234  0.82130  1.0000
  H   H687      1.0  0.37391  0.34913  0.80029  1.0000
  H   H688      1.0  0.37480  0.25640  0.78125  1.0000
  H   H689      1.0  0.40645  0.22999  0.80187  1.0000
  H   H690      1.0  0.48490  0.11807  0.75993  1.0000
  C   C378      1.0  0.45091  0.04374  0.83221  1.0000
  H   H691      1.0  0.35534  0.21483  0.75383  1.0000
  H   H692      1.0  0.25858  0.31537  0.74764  1.0000
  C   C379      1.0  0.03068  0.23807  0.86197  1.0000
  C   C380      1.0  0.50717  0.30832  0.83918  1.0000
  N   N23       1.0  0.28704  0.28072  0.73456  1.0000
  C   C381      1.0  0.24323  0.49838  0.73314  1.0000
  C   C382      1.0  0.20310  0.45396  0.93917  1.0000
  H   H693      1.0  0.46564  0.05687  0.76457  1.0000
  H   H694      1.0  0.28333  0.43566  0.82314  1.0000
  H   H695      1.0  0.51194  0.31162  0.85093  1.0000
  H   H696      1.0  0.19700  0.43237  0.91849  1.0000
  H   H697      1.0  0.36174  0.39900  0.81198  1.0000
  H   H698      1.0  0.31943  0.38922  0.85489  1.0000
  S   S96       1.0  0.17588  0.30905  0.71866  1.0000
  H   H699      1.0  0.35140  0.41800  0.84926  1.0000
  C   C383      1.0  0.36507  0.36720  0.84539  1.0000
  H   H700      1.0  0.27682  0.41866  0.84239  1.0000
  H   H701      1.0  0.29329  0.36209  0.83618  1.0000
  H   H702      1.0  0.35183  0.34321  0.84646  1.0000
  H   H703      1.0  0.03265  0.28988  0.86472  1.0000
  C   C384      1.0  0.48096  0.03479  0.82427  1.0000
  N   N24       1.0  0.21441  0.47133  0.96531  1.0000
  C   C385      1.0  0.37893  0.43943  0.82250  1.0000
  H   H704      1.0  0.23754  0.48851  0.77480  1.0000
  C   C386      1.0  0.39793  0.45756  0.80843  1.0000
  C   C387      1.0  0.41437  0.50026  0.77058  1.0000
  C   C388      1.0  0.31735  0.25826  0.73554  1.0000
  H   H705      1.0  0.39252  0.10095  0.77913  1.0000
  H   H706      1.0  0.25915  0.48866  0.83142  1.0000
  C   C389      1.0  0.50471  0.28124  0.96422  1.0000
  C   C390      1.0  0.46136  0.10938  0.75644  1.0000
  H   H707      1.0  0.01806  0.25992  0.89514  1.0000
  C   C391      1.0  0.27367  0.48507  0.84138  1.0000
  H   H708      1.0  0.31905  0.46216  0.84791  1.0000
  H   H709      1.0  0.24903  0.44796  0.94918  1.0000
  H   H710      1.0  0.26609  0.34924  0.79800  1.0000
  C   C392      1.0  0.28158  0.34525  0.80759  1.0000
  C   C393      1.0  0.38651  0.36621  0.85852  1.0000
  H   H711      1.0  0.44509  0.09467  0.73561  1.0000
  H   H712      1.0  0.42970  0.11931  0.93836  1.0000
  H   H713      1.0  0.48362  0.49531  0.74565  1.0000
  H   H714      1.0  0.20554  0.23827  0.71709  1.0000
  H   H715      1.0  0.33497  0.26856  0.74260  1.0000
  Fe  Fe54      1.0  0.08916  0.40683  0.96228  1.0000
  H   H716      1.0  0.42946  0.19683  0.89848  1.0000
  H   H717      1.0  0.31082  0.35052  0.73228  1.0000
  H   H718      1.0  0.41859  0.47190  0.81172  1.0000
  H   H719      1.0  0.50214  0.09064  0.86794  1.0000
  H   H720      1.0  0.39694  0.42273  0.82820  1.0000
  C   C394      1.0  0.48381  0.19393  0.89296  1.0000
  C   C395      1.0  0.23818  0.50968  0.78118  1.0000
  H   H721      1.0  0.47664  0.06968  0.88387  1.0000
  C   C396      1.0  0.43484  0.49112  0.75801  1.0000
  H   H722      1.0  0.47597  0.12093  0.78531  1.0000
  H   H723      1.0  0.23827  0.42712  0.92444  1.0000
  H   H724      1.0  0.23345  0.20397  0.72181  1.0000
  H   H725      1.0  0.38179  0.36884  0.83466  1.0000
  H   H726      1.0  0.20984  0.47820  0.93274  1.0000
  C   C397      1.0  0.46822  0.10240  0.73990  1.0000
  H   H727      1.0  0.40165  0.38899  0.85754  1.0000
  H   H728      1.0  0.31987  0.47817  0.82810  1.0000
  C   C398      1.0  0.25625  0.29353  0.77667  1.0000
  H   H729      1.0  0.05507  0.16018  0.72076  1.0000
  C   C399      1.0  0.30505  0.46425  0.83783  1.0000
  C   C400      1.0  0.31118  0.22141  0.74170  1.0000
  H   H730      1.0  0.29412  0.21873  0.75227  1.0000
  C   C401      1.0  0.21130  0.42723  0.92847  1.0000
  H   H731      1.0  0.05756  0.23702  0.85781  1.0000
  C   C402      1.0  0.26923  0.27357  0.76363  1.0000
  C   C403      1.0  0.25652  0.26309  0.73124  1.0000
  H   H732      1.0  0.50499  0.12372  0.92889  1.0000
  H   H733      1.0  0.17583  0.45376  0.94230  1.0000
  H   H734      1.0  0.02788  0.22955  0.87426  1.0000
  H   H735      1.0  0.30063  0.31090  0.75160  1.0000
  H   H736      1.0  0.44187  0.17722  0.88159  1.0000
  C   C404      1.0  0.22582  0.50527  0.95838  1.0000
  C   C405      1.0  0.50198  0.07909  0.87982  1.0000
  S   S97       1.0  0.28983  0.47716  0.79481  1.0000
  C   C406      1.0  0.47920  0.12295  0.92579  1.0000
  H   H737      1.0  0.24938  0.25616  0.76223  1.0000
  H   H738      1.0  0.02608  0.32462  0.93872  1.0000
  H   H739      1.0  0.23304  0.30727  0.77412  1.0000
  H   H740      1.0  0.26540  0.39136  0.81538  1.0000
  C   C407      1.0  0.02419  0.31097  0.92910  1.0000
  H   H741      1.0  0.33876  0.17701  0.74894  1.0000
  N   N25       1.0  0.44172  0.08157  0.78330  1.0000
  H   H742      1.0  0.37968  0.04834  0.78820  1.0000
  C   C408      1.0  0.41344  0.10616  0.78566  1.0000
  C   C409      1.0  0.44818  0.07799  0.76660  1.0000
  H   H743      1.0  0.34354  0.32037  0.72878  1.0000
  H   H744      1.0  0.47744  0.12522  0.73285  1.0000
  H   H745      1.0  0.38388  0.16062  0.79915  1.0000
  H   H746      1.0  0.27523  0.31149  0.77861  1.0000
  H   H747      1.0  0.46794  0.09346  0.80191  1.0000
  H   H748      1.0  0.08932  0.28905  0.95764  1.0000
  H   H749      1.0  0.42169  0.13157  0.78106  1.0000
  H   H750      1.0  0.25775  0.47290  0.85124  1.0000
  H   H751      1.0  0.48626  0.21387  0.90038  1.0000
  H   H752      1.0  0.42484  0.07128  0.76213  1.0000
  H   H753      1.0  0.50396  0.04945  0.79140  1.0000
  C   C410      1.0  0.50519  0.07514  0.78572  1.0000
  H   H754      1.0  0.21686  0.42169  0.95846  1.0000
  H   H755      1.0  0.38104  0.47510  0.80240  1.0000
  H   H756      1.0  0.22042  0.49120  0.72843  1.0000
  H   H757      1.0  0.44275  0.12992  0.75695  1.0000
  H   H758      1.0  0.41858  0.11395  0.80930  1.0000
  C   C411      1.0  0.26136  0.51045  0.79166  1.0000
  C   C412      1.0  0.44783  0.19738  0.88828  1.0000
  H   H759      1.0  0.48322  0.29543  0.95993  1.0000
  H   H760      1.0  0.40875  0.43965  0.80059  1.0000
  H   H761      1.0  0.26510  0.49318  0.72505  1.0000
  S   S98       1.0  0.13763  0.49696  0.92226  1.0000
  H   H762      1.0  0.46244  0.09836  0.94802  1.0000
  N   N26       1.0  0.32444  0.40552  0.83090  1.0000
  C   C413      1.0  0.33941  0.39637  0.84558  1.0000
  C   C414      1.0  0.29605  0.42987  0.83354  1.0000
  H   H763      1.0  0.45407  0.03003  0.78966  1.0000
  C   C415      1.0  0.47198  0.09424  0.78935  1.0000
  C   C416      1.0  0.30988  0.37434  0.82650  1.0000
  H   H764      1.0  0.41712  0.23246  0.87558  1.0000
  H   H765      1.0  0.33002  0.35597  0.82382  1.0000
  H   H766      1.0  0.27176  0.32268  0.71964  1.0000
  H   H767      1.0  0.29995  0.20830  0.73322  1.0000
  H   H768      1.0  0.46920  0.17569  0.92156  1.0000
  H   H769      1.0  0.48318  0.23493  0.96117  1.0000
  H   H770      1.0  0.25051  0.24134  0.73960  1.0000
  H   H771      1.0  0.46271  0.12594  0.89119  1.0000
  H   H772      1.0  0.25145  0.50375  0.95248  1.0000
  H   H773      1.0  0.20415  0.40239  0.93423  1.0000
  H   H774      1.0  0.40294  0.02597  0.84237  1.0000
  Fe  Fe55      1.0  0.03168  0.43635  0.94567  1.0000
  H   H775      1.0  0.33170  0.25763  0.72419  1.0000
  H   H776      1.0  0.36151  0.20455  0.73446  1.0000
  C   C417      1.0  0.46776  0.50224  0.75539  1.0000
  C   C418      1.0  0.01743  0.27350  0.85903  1.0000
  C   C419      1.0  0.39886  0.10847  0.80230  1.0000
  H   H777      1.0  0.35174  0.13168  0.79678  1.0000
  H   H778      1.0  0.50036  0.05290  0.82136  1.0000
  C   C420      1.0  0.44309  0.23030  0.87863  1.0000
  H   H779      1.0  0.02174  0.28061  0.84666  1.0000
  C   C421      1.0  0.29471  0.30805  0.72184  1.0000
  H   H780      1.0  0.46013  0.23160  0.86795  1.0000
  H   H781      1.0  0.44464  0.15021  0.91247  1.0000
  C   C422      1.0  0.20235  0.34257  0.71954  1.0000
  H   H782      1.0  0.50119  0.20024  0.88261  1.0000
  C   C423      1.0  0.40173  0.03158  0.78739  1.0000
  C   C424      1.0  0.45612  0.12089  0.94060  1.0000
  N   N27       1.0  0.49334  0.16046  0.90053  1.0000
  H   H783      1.0  0.16440  0.48795  0.96138  1.0000
  C   C425      1.0  0.01932  0.27443  0.90448  1.0000
  H   H784      1.0  0.01724  0.22096  0.85588  1.0000
  C   C426      1.0  0.51244  0.10414  0.89001  1.0000
  H   H785      1.0  0.51127  0.07386  0.77340  1.0000
  H   H786      1.0  0.28074  0.50986  0.84410  1.0000
  H   H787      1.0  0.48354  0.74243  0.19849  1.0000
  H   H788      1.0  0.25276  0.77169  0.05174  1.0000
  C   C427      1.0  0.49928  0.72071  0.07331  1.0000
  Fe  Fe56      1.0  0.37859  0.89852  0.01270  1.0000
  S   S99       1.0  0.38043  0.89857  0.03762  1.0000
  S   S100      1.0  0.39437  0.94481  0.99780  1.0000
  Fe  Fe57      1.0  0.35135  0.82913  0.01571  1.0000
  S   S101      1.0  0.35197  0.82375  0.04105  1.0000
  S   S102      1.0  0.33538  0.78374  0.00560  1.0000
  Fe  Fe58      1.0  0.33022  0.87543  0.03987  1.0000
  S   S103      1.0  0.28995  0.88879  0.05805  1.0000
  Fe  Fe59      1.0  0.40222  0.84727  0.03645  1.0000
  S   S104      1.0  0.44644  0.83449  0.04976  1.0000
  S   S105      1.0  0.32632  0.87933  0.01486  1.0000
  S   S106      1.0  0.40362  0.84876  0.01122  1.0000
  C   C428      1.0  0.38323  0.73981  0.96793  1.0000
  H   H789      1.0  0.37878  0.70868  0.05224  1.0000
  N   N28       1.0  0.23534  0.69936  0.20897  1.0000
  C   C429      1.0  0.41174  0.72727  0.09648  1.0000
  H   H790      1.0  0.24252  0.59830  0.19278  1.0000
  H   H791      1.0  0.44575  0.73844  0.05935  1.0000
  S   S107      1.0  0.12883  0.52122  0.11748  1.0000
  S   S108      1.0  0.02765  0.99596  0.07619  1.0000
  C   C430      1.0  0.16431  0.66715  0.18800  1.0000
  H   H792      1.0  0.18995  0.84338  0.99756  1.0000
  Fe  Fe60      1.0  0.32940  0.64267  0.17157  1.0000
  H   H793      1.0  0.23161  0.76847  0.21407  1.0000
  S   S109      1.0  0.27777  0.65139  0.16388  1.0000
  Fe  Fe61      1.0  0.40453  0.65570  0.17169  1.0000
  H   H794      1.0  0.02193  0.58968  0.11447  1.0000
  S   S110      1.0  0.45159  0.67837  0.15854  1.0000
  Fe  Fe62      1.0  0.37719  0.58653  0.18072  1.0000
  H   H795      1.0  0.25956  0.70721  0.18610  1.0000
  H   H796      1.0  0.03482  0.99448  0.02490  1.0000
  C   C431      1.0  0.31640  0.98699  0.00085  1.0000
  S   S111      1.0  0.37560  0.62160  0.15965  1.0000
  S   S112      1.0  0.35782  0.68089  0.18150  1.0000
  H   H797      1.0  0.23301  0.51706  0.07353  1.0000
  C   C432      1.0  0.25427  0.66706  0.21164  1.0000
  H   H798      1.0  0.19711  0.77194  0.01237  1.0000
  H   H799      1.0  0.29023  0.77795  0.18402  1.0000
  H   H800      1.0  0.38054  0.73576  0.12571  1.0000
  C   C433      1.0  0.11171  0.98944  0.14971  1.0000
  H   H801      1.0  0.30815  0.52543  0.16696  1.0000
  H   H802      1.0  0.46280  0.78098  0.07239  1.0000
  C   C434      1.0  0.46969  0.71327  0.18136  1.0000
  C   C435      1.0  0.47836  0.70327  0.16694  1.0000
  H   H803      1.0  0.17552  0.83275  0.03531  1.0000
  H   H804      1.0  0.37355  0.74232  0.07440  1.0000
  C   C436      1.0  0.23228  0.56584  0.14322  1.0000
  C   C437      1.0  0.21165  0.58949  0.15001  1.0000
  C   C438      1.0  0.22580  0.61614  0.15596  1.0000
  C   C439      1.0  0.26054  0.61866  0.15567  1.0000
  C   C440      1.0  0.28105  0.59505  0.14885  1.0000
  C   C441      1.0  0.26699  0.56923  0.14241  1.0000
  H   H805      1.0  0.18489  0.58741  0.15054  1.0000
  H   H806      1.0  0.20979  0.63455  0.16101  1.0000
  H   H807      1.0  0.30782  0.59691  0.14836  1.0000
  C   C442      1.0  0.42714  0.73013  0.06903  1.0000
  C   C443      1.0  0.42877  0.96190  0.00457  1.0000
  C   C444      1.0  0.44723  0.94271  0.01475  1.0000
  H   H808      1.0  0.33691  0.53634  0.02512  1.0000
  H   H809      1.0  0.34671  0.51635  0.14352  1.0000
  H   H810      1.0  0.44156  0.91683  0.01788  1.0000
  H   H811      1.0  0.44511  0.78181  0.10678  1.0000
  H   H812      1.0  0.34065  0.99477  0.99456  1.0000
  C   C445      1.0  0.21390  0.97357  0.05099  1.0000
  C   C446      1.0  0.21688  0.95768  0.06547  1.0000
  C   C447      1.0  0.24026  0.93165  0.06747  1.0000
  C   C448      1.0  0.26105  0.92163  0.05507  1.0000
  C   C449      1.0  0.25800  0.93748  0.04061  1.0000
  C   C450      1.0  0.23422  0.96305  0.03858  1.0000
  H   H813      1.0  0.20124  0.96547  0.07510  1.0000
  H   H814      1.0  0.24236  0.91934  0.07869  1.0000
  H   H815      1.0  0.27382  0.92987  0.03101  1.0000
  H   H816      1.0  0.23151  0.97493  0.02734  1.0000
  C   C451      1.0  0.47879  0.80783  0.04315  1.0000
  H   H817      1.0  0.39712  0.77479  0.06303  1.0000
  H   H818      1.0  0.35888  0.74838  0.04828  1.0000
  H   H819      1.0  0.22616  0.81755  0.99643  1.0000
  H   H820      1.0  0.44867  0.78114  0.03019  1.0000
  H   H821      1.0  0.48638  0.77229  0.09801  1.0000
  H   H822      1.0  0.40160  0.74221  0.04097  1.0000
  C   C452      1.0  0.29614  0.81312  0.98412  1.0000
  C   C453      1.0  0.30903  0.78376  0.99104  1.0000
  S   S113      1.0  0.03857  0.53699  0.13714  1.0000
  H   H823      1.0  0.33032  0.76245  0.18892  1.0000
  H   H824      1.0  0.47994  0.71903  0.09677  1.0000
  H   H825      1.0  0.30283  0.83669  0.98748  1.0000
  H   H826      1.0  0.14885  0.69014  0.18687  1.0000
  H   H827      1.0  0.49278  0.71226  0.06259  1.0000
  H   H828      1.0  0.48208  0.83061  0.10274  1.0000
  H   H829      1.0  0.26444  0.83467  0.96758  1.0000
  H   H830      1.0  0.31650  0.95958  0.00346  1.0000
  H   H831      1.0  0.14014  0.89557  0.04061  1.0000
  H   H832      1.0  0.28459  0.99825  0.02037  1.0000
  H   H833      1.0  0.20352  0.90086  0.00218  1.0000
  H   H834      1.0  0.44627  0.70560  0.18765  1.0000
  C   C454      1.0  0.28071  0.75222  0.97444  1.0000
  C   C455      1.0  0.47282  0.78275  0.03423  1.0000
  S   S114      1.0  0.40861  0.61898  0.19219  1.0000
  C   C456      1.0  0.30123  0.75335  0.98615  1.0000
  H   H835      1.0  0.01923  0.53644  0.06673  1.0000
  H   H836      1.0  0.16137  0.79817  0.01688  1.0000
  H   H837      1.0  0.31759  0.55362  0.04174  1.0000
  C   C457      1.0  0.46573  0.54586  0.15327  1.0000
  S   S115      1.0  0.51376  0.00712  0.02515  1.0000
  C   C458      1.0  0.39536  0.98787  0.04569  1.0000
  H   H838      1.0  0.23429  0.52467  0.98004  1.0000
  H   H839      1.0  0.30555  0.71140  0.20201  1.0000
  H   H840      1.0  0.27707  0.56237  0.17801  1.0000
  Fe  Fe63      1.0  0.36020  0.64198  0.20121  1.0000
  C   C459      1.0  0.46956  0.82247  0.09331  1.0000
  H   H841      1.0  0.16732  0.91233  0.05254  1.0000
  C   C460      1.0  0.26212  0.54996  0.18805  1.0000
  H   H842      1.0  0.42804  0.54619  0.19879  1.0000
  C   C461      1.0  0.31471  0.53513  0.03365  1.0000
  C   C462      1.0  0.46245  0.78535  0.09628  1.0000
  H   H843      1.0  0.32742  0.96577  0.03173  1.0000
  H   H844      1.0  0.46318  0.68879  0.08694  1.0000
  C   C463      1.0  0.33520  0.99128  0.02694  1.0000
  C   C464      1.0  0.44649  0.77327  0.08291  1.0000
  H   H845      1.0  0.15320  0.65014  0.19772  1.0000
  H   H846      1.0  0.41826  0.86632  0.97298  1.0000
  H   H847      1.0  0.15141  0.80469  0.98953  1.0000
  H   H848      1.0  0.27808  0.91469  0.99272  1.0000
  H   H849      1.0  0.27488  0.72865  0.97077  1.0000
  H   H850      1.0  0.23930  0.74296  0.19258  1.0000
  H   H851      1.0  0.16664  0.86114  0.01979  1.0000
  H   H852      1.0  0.25123  0.93540  0.00649  1.0000
  H   H853      1.0  0.40003  0.94266  0.06101  1.0000
  H   H854      1.0  0.21503  0.57482  0.18358  1.0000
  C   C465      1.0  0.39338  0.87735  0.97115  1.0000
  H   H855      1.0  0.39403  0.74849  0.09795  1.0000
  H   H856      1.0  0.42436  0.70293  0.06873  1.0000
  H   H857      1.0  0.40559  0.72442  0.97023  1.0000
  H   H858      1.0  0.12187  0.00357  0.13891  1.0000
  H   H859      1.0  0.35980  0.98750  0.02052  1.0000
  H   H860      1.0  0.44062  0.73044  0.11618  1.0000
  H   H861      1.0  0.21651  0.79230  0.03146  1.0000
  H   H862      1.0  0.50660  0.53301  0.13752  1.0000
  C   C466      1.0  0.38273  0.73588  0.05079  1.0000
  H   H863      1.0  0.04098  0.60223  0.09553  1.0000
  H   H864      1.0  0.40064  0.70092  0.13541  1.0000
  C   C467      1.0  0.46305  0.00949  0.00656  1.0000
  H   H865      1.0  0.31126  0.73053  0.99140  1.0000
  H   H866      1.0  0.45343  0.56200  0.14460  1.0000
  H   H867      1.0  0.48752  0.94182  0.02875  1.0000
  H   H868      1.0  0.24977  0.87929  0.02035  1.0000
  H   H869      1.0  0.18544  0.68008  0.21412  1.0000
  C   C468      1.0  0.41246  0.96695  0.05797  1.0000
  H   H870      1.0  0.50637  0.74709  0.07118  1.0000
  H   H871      1.0  0.45446  0.52088  0.15440  1.0000
  H   H872      1.0  0.39645  0.70696  0.09341  1.0000
  C   C469      1.0  0.27483  0.81192  0.97271  1.0000
  H   H873      1.0  0.28646  0.74732  0.20967  1.0000
  H   H874      1.0  0.29122  0.99256  0.05081  1.0000
  C   C470      1.0  0.39394  0.74752  0.06516  1.0000
  S   S116      1.0  0.32935  0.60547  0.19185  1.0000
  H   H875      1.0  0.28318  0.55164  0.13684  1.0000
  H   H876      1.0  0.42328  0.78829  0.08186  1.0000
  H   H877      1.0  0.15744  0.86892  0.05555  1.0000
  H   H878      1.0  0.25366  0.80035  0.01900  1.0000
  H   H879      1.0  0.38108  0.88377  0.98220  1.0000
  H   H880      1.0  0.34657  0.97048  0.05554  1.0000
  H   H881      1.0  0.21439  0.87902  0.04241  1.0000
  H   H882      1.0  0.37371  0.69404  0.12126  1.0000
  C   C471      1.0  0.30542  0.75513  0.18630  1.0000
  H   H883      1.0  0.48592  0.82802  0.08257  1.0000
  H   H884      1.0  0.48010  0.59058  0.19255  1.0000
  H   H885      1.0  0.23187  0.82945  0.04916  1.0000
  H   H886      1.0  0.40911  0.01152  0.04324  1.0000
  H   H887      1.0  0.21048  0.69113  0.17991  1.0000
  C   C472      1.0  0.49394  0.60941  0.18445  1.0000
  C   C473      1.0  0.42237  0.71423  0.11231  1.0000
  H   H888      1.0  0.19754  0.90566  0.02784  1.0000
  C   C474      1.0  0.47341  0.95686  0.02085  1.0000
  H   H889      1.0  0.49270  0.73896  0.02448  1.0000
  H   H890      1.0  0.03712  0.54362  0.09072  1.0000
  H   H891      1.0  0.44598  0.83691  0.09245  1.0000
  C   C475      1.0  0.43707  0.99516  0.00027  1.0000
  H   H892      1.0  0.43396  0.68915  0.11191  1.0000
  H   H893      1.0  0.15264  0.76167  0.99701  1.0000
  H   H894      1.0  0.48158  0.63396  0.18548  1.0000
  H   H895      1.0  0.43883  0.96221  0.05369  1.0000
  H   H896      1.0  0.18797  0.71774  0.20217  1.0000
  H   H897      1.0  0.22978  0.88130  0.98804  1.0000
  N   N29       1.0  0.43917  0.73678  0.08388  1.0000
  C   C476      1.0  0.51028  0.80964  0.04831  1.0000
  C   C477      1.0  0.48117  0.99033  0.01693  1.0000
  H   H898      1.0  0.29232  0.54167  0.02768  1.0000
  H   H899      1.0  0.28194  0.79999  0.05715  1.0000
  H   H900      1.0  0.21457  0.65180  0.19084  1.0000
  C   C478      1.0  0.20010  0.67534  0.19019  1.0000
  S   S117      1.0  0.18600  0.00718  0.04774  1.0000
  H   H901      1.0  0.16400  0.65470  0.17753  1.0000
  H   H902      1.0  0.26901  0.84211  0.03686  1.0000
  H   H903      1.0  0.39807  0.97429  0.03550  1.0000
  C   C479      1.0  0.28873  0.73289  0.19974  1.0000
  S   S118      1.0  0.38273  0.53238  0.17705  1.0000
  C   C480      1.0  0.23296  0.57309  0.19224  1.0000
  C   C481      1.0  0.02997  0.00812  0.03507  1.0000
  C   C482      1.0  0.46988  0.71549  0.08599  1.0000
  H   H904      1.0  0.29640  0.99421  0.99349  1.0000
  C   C483      1.0  0.39238  0.71110  0.12435  1.0000
  C   C484      1.0  0.25445  0.72090  0.19630  1.0000
  H   H905      1.0  0.19877  0.54218  0.97124  1.0000
  H   H906      1.0  0.24346  0.93999  0.98692  1.0000
  H   H907      1.0  0.28964  0.78347  0.03911  1.0000
  C   C485      1.0  0.35832  0.99470  0.05106  1.0000
  C   C486      1.0  0.24953  0.51594  0.18462  1.0000
  N   N30       1.0  0.21651  0.83954  0.01757  1.0000
  C   C487      1.0  0.24130  0.86602  0.01125  1.0000
  C   C488      1.0  0.23416  0.81220  0.02661  1.0000
  C   C489      1.0  0.20454  0.82471  0.00429  1.0000
  C   C490      1.0  0.18679  0.85289  0.02700  1.0000
  C   C491      1.0  0.19278  0.88295  0.03580  1.0000
  C   C492      1.0  0.22933  0.89225  0.99896  1.0000
  C   C493      1.0  0.18226  0.79372  0.00816  1.0000
  C   C494      1.0  0.25093  0.82191  0.04025  1.0000
  C   C495      1.0  0.26994  0.79235  0.04746  1.0000
  C   C496      1.0  0.16246  0.89023  0.04677  1.0000
  C   C497      1.0  0.25201  0.92236  0.99615  1.0000
  C   C498      1.0  0.16772  0.78442  0.99407  1.0000
  H   H908      1.0  0.26431  0.85437  0.00607  1.0000
  S   S119      1.0  0.21657  0.53138  0.13565  1.0000
  H   H909      1.0  0.41210  0.98016  0.06826  1.0000
  H   H910      1.0  0.36982  0.83019  0.97299  1.0000
  C   C499      1.0  0.26714  0.78149  0.96780  1.0000
  C   C500      1.0  0.22477  0.53296  0.96909  1.0000
  H   H911      1.0  0.30880  0.74176  0.17600  1.0000
  C   C501      1.0  0.49775  0.75884  0.03105  1.0000
  C   C502      1.0  0.49089  0.73411  0.18749  1.0000
  H   H912      1.0  0.21980  0.56409  0.20343  1.0000
  H   H913      1.0  0.27770  0.54741  0.19761  1.0000
  H   H914      1.0  0.19438  0.51344  0.09691  1.0000
  H   H915      1.0  0.42299  0.01003  0.99232  1.0000
  C   C503      1.0  0.20115  0.69367  0.20453  1.0000
  H   H916      1.0  0.46073  0.55659  0.16424  1.0000
  H   H917      1.0  0.26307  0.65706  0.20073  1.0000
  H   H918      1.0  0.24194  0.58338  0.96886  1.0000
  H   H919      1.0  0.08797  0.97809  0.14780  1.0000
  H   H920      1.0  0.12956  0.96929  0.15288  1.0000
  H   H921      1.0  0.35901  0.00896  0.06096  1.0000
  H   H922      1.0  0.09387  0.99720  0.17248  1.0000
  H   H923      1.0  0.37292  0.74951  0.97866  1.0000
  H   H924      1.0  0.23435  0.52169  0.17494  1.0000
  C   C504      1.0  0.31037  0.00388  0.01540  1.0000
  S   S120      1.0  0.12012  0.00528  0.08663  1.0000
  H   H925      1.0  0.49277  0.60271  0.17279  1.0000
  H   H926      1.0  0.51275  0.56937  0.14665  1.0000
  H   H927      1.0  0.18800  0.77939  0.98512  1.0000
  H   H928      1.0  0.36981  0.71521  0.21428  1.0000
  C   C505      1.0  0.50314  0.54364  0.14849  1.0000
  C   C506      1.0  0.50886  0.71358  0.15889  1.0000
  C   C507      1.0  0.43319  0.52147  0.19560  1.0000
  H   H929      1.0  0.15396  0.00767  0.17046  1.0000
  H   H930      1.0  0.05377  0.00998  0.04007  1.0000
  C   C508      1.0  0.01693  0.59911  0.10279  1.0000
  H   H931      1.0  0.28875  0.51366  0.06305  1.0000
  S   S121      1.0  0.09679  0.97444  0.29208  1.0000
  S   S122      1.0  0.16083  0.75425  0.45819  1.0000
  H   H932      1.0  0.39883  0.53012  0.41956  1.0000
  H   H933      1.0  0.30284  0.70667  0.29356  1.0000
  S   S123      1.0  0.10164  0.64055  0.30967  1.0000
  Fe  Fe64      1.0  0.24440  0.84886  0.28914  1.0000
  S   S124      1.0  0.23239  0.83086  0.26749  1.0000
  S   S125      1.0  0.23886  0.90312  0.29342  1.0000
  Fe  Fe65      1.0  0.26153  0.77883  0.30296  1.0000
  S   S126      1.0  0.24952  0.75521  0.28259  1.0000
  S   S127      1.0  0.27378  0.74495  0.32358  1.0000
  Fe  Fe66      1.0  0.27744  0.79749  0.26917  1.0000
  S   S128      1.0  0.31410  0.79106  0.24857  1.0000
  Fe  Fe67      1.0  0.20572  0.79014  0.28262  1.0000
  S   S129      1.0  0.15379  0.77877  0.27820  1.0000
  S   S130      1.0  0.29254  0.81928  0.28960  1.0000
  S   S131      1.0  0.21477  0.81016  0.30421  1.0000
  Fe  Fe68      1.0  0.18517  0.84871  0.41972  1.0000
  S   S132      1.0  0.21631  0.80884  0.43070  1.0000
  S   S133      1.0  0.18738  0.90173  0.42580  1.0000
  Fe  Fe69      1.0  0.15259  0.79854  0.40199  1.0000
  S   S134      1.0  0.18171  0.75511  0.41196  1.0000
  S   S135      1.0  0.12273  0.79781  0.38177  1.0000
  Fe  Fe70      1.0  0.16997  0.77799  0.43397  1.0000
  Fe  Fe71      1.0  0.22491  0.78999  0.40797  1.0000
  S   S136      1.0  0.27489  0.78402  0.39479  1.0000
  S   S137      1.0  0.13774  0.81929  0.42428  1.0000
  S   S138      1.0  0.19676  0.83191  0.39672  1.0000
  Fe  Fe72      1.0  0.46851  0.68769  0.38827  1.0000
  S   S139      1.0  0.44954  0.63597  0.39602  1.0000
  Fe  Fe73      1.0  0.43616  0.68939  0.35824  1.0000
  S   S140      1.0  0.41520  0.63846  0.36390  1.0000
  S   S141      1.0  0.42455  0.72185  0.33706  1.0000
  Fe  Fe74      1.0  0.40191  0.65448  0.38707  1.0000
  S   S142      1.0  0.35141  0.64656  0.40012  1.0000
  Fe  Fe75      1.0  0.46481  0.62398  0.37218  1.0000
  H   H934      1.0  0.40081  0.53052  0.33893  1.0000
  S   S143      1.0  0.41964  0.70624  0.38084  1.0000
  S   S144      1.0  0.48736  0.67470  0.36483  1.0000
  C   C509      1.0  0.29308  0.74430  0.39593  1.0000
  C   C510      1.0  0.28437  0.72049  0.40816  1.0000
  C   C511      1.0  0.30154  0.68984  0.40926  1.0000
  C   C512      1.0  0.32732  0.68318  0.39814  1.0000
  C   C513      1.0  0.33469  0.70647  0.38562  1.0000
  C   C514      1.0  0.31777  0.73696  0.38453  1.0000
  H   H935      1.0  0.26515  0.72605  0.41698  1.0000
  H   H936      1.0  0.29558  0.67184  0.41896  1.0000
  H   H937      1.0  0.35344  0.70097  0.37672  1.0000
  H   H938      1.0  0.32396  0.75489  0.37482  1.0000
  H   H939      1.0  0.29945  0.61057  0.38804  1.0000
  H   H940      1.0  0.44836  0.69629  0.24920  1.0000
  C   C515      1.0  0.30849  0.67995  0.29299  1.0000
  H   H941      1.0  0.44533  0.54158  0.38752  1.0000
  C   C516      1.0  0.32064  0.75204  0.24157  1.0000
  C   C517      1.0  0.30322  0.72412  0.24842  1.0000
  C   C518      1.0  0.31004  0.69302  0.24311  1.0000
  H   H942      1.0  0.28474  0.72637  0.25791  1.0000
  H   H943      1.0  0.29685  0.67141  0.24864  1.0000
  C   C519      1.0  0.38233  0.72922  0.33396  1.0000
  C   C520      1.0  0.37431  0.75318  0.32231  1.0000
  C   C521      1.0  0.34103  0.75883  0.31930  1.0000
  C   C522      1.0  0.31554  0.74014  0.32774  1.0000
  C   C523      1.0  0.32345  0.71647  0.33950  1.0000
  C   C524      1.0  0.35671  0.71101  0.34259  1.0000
  H   H944      1.0  0.39394  0.76753  0.31564  1.0000
  H   H945      1.0  0.33511  0.77752  0.31041  1.0000
  H   H946      1.0  0.30379  0.70222  0.34617  1.0000
  H   H947      1.0  0.36266  0.69221  0.35143  1.0000
  C   C525      1.0  0.11650  0.67789  0.29989  1.0000
  C   C526      1.0  0.09414  0.70227  0.29471  1.0000
  C   C527      1.0  0.10594  0.73280  0.28758  1.0000
  C   C528      1.0  0.14005  0.73935  0.28596  1.0000
  C   C529      1.0  0.16249  0.71483  0.29098  1.0000
  C   C530      1.0  0.15073  0.68393  0.29775  1.0000
  H   H948      1.0  0.06769  0.69754  0.29612  1.0000
  H   H949      1.0  0.08853  0.75161  0.28365  1.0000
  H   H950      1.0  0.18881  0.71963  0.28967  1.0000
  H   H951      1.0  0.16805  0.66494  0.30159  1.0000
  C   C531      1.0  0.05776  0.71065  0.37442  1.0000
  C   C532      1.0  0.07367  0.70991  0.38770  1.0000
  C   C533      1.0  0.09417  0.73613  0.39001  1.0000
  C   C534      1.0  0.09840  0.76362  0.37916  1.0000
  C   C535      1.0  0.08254  0.76435  0.36588  1.0000
  C   C536      1.0  0.06265  0.73782  0.36342  1.0000
  H   H952      1.0  0.40940  0.56651  0.40667  1.0000
  H   H953      1.0  0.10620  0.73534  0.40031  1.0000
  H   H954      1.0  0.08561  0.78559  0.35746  1.0000
  H   H955      1.0  0.12809  0.85646  0.35240  1.0000
  C   C537      1.0  0.19922  0.92257  0.29300  1.0000
  C   C538      1.0  0.19635  0.95697  0.29366  1.0000
  C   C539      1.0  0.16516  0.97328  0.29336  1.0000
  C   C540      1.0  0.13650  0.95514  0.29267  1.0000
  C   C541      1.0  0.13923  0.92055  0.29266  1.0000
  C   C542      1.0  0.17047  0.90435  0.29253  1.0000
  H   H956      1.0  0.21837  0.97092  0.29457  1.0000
  H   H957      1.0  0.16306  0.99975  0.29395  1.0000
  H   H958      1.0  0.11707  0.90625  0.29268  1.0000
  H   H959      1.0  0.17224  0.87775  0.29226  1.0000
  H   H960      1.0  0.40295  0.79602  0.33909  1.0000
  C   C543      1.0  0.46003  0.96046  0.43952  1.0000
  S   S145      1.0  0.03025  0.61959  0.34146  1.0000
  H   H961      1.0  0.40858  0.65755  0.32556  1.0000
  C   C544      1.0  0.16817  0.99661  0.25266  1.0000
  H   H962      1.0  0.25398  0.95782  0.32246  1.0000
  C   C545      1.0  0.27552  0.97363  0.41551  1.0000
  C   C546      1.0  0.24927  0.97924  0.42650  1.0000
  C   C547      1.0  0.22275  0.95673  0.42965  1.0000
  C   C548      1.0  0.22245  0.92806  0.42208  1.0000
  C   C549      1.0  0.24922  0.92190  0.41140  1.0000
  C   C550      1.0  0.27547  0.94471  0.40805  1.0000
  H   H963      1.0  0.29967  0.86309  0.39373  1.0000
  C   C551      1.0  0.41603  0.80575  0.34794  1.0000
  H   H964      1.0  0.24919  0.90006  0.40543  1.0000
  H   H965      1.0  0.29556  0.94015  0.39949  1.0000
  C   C552      1.0  0.11300  0.70680  0.45693  1.0000
  H   H966      1.0  0.43265  0.97060  0.42017  1.0000
  H   H967      1.0  0.30249  0.84809  0.37530  1.0000
  H   H968      1.0  0.20500  0.87987  0.36963  1.0000
  C   C553      1.0  0.32473  0.86336  0.42870  1.0000
  C   C554      1.0  0.27789  0.66423  0.28809  1.0000
  S   S146      1.0  0.48464  0.71846  0.40622  1.0000
  H   H969      1.0  0.33267  0.68286  0.27031  1.0000
  H   H970      1.0  0.37622  0.67185  0.25356  1.0000
  H   H971      1.0  0.25546  0.66973  0.29577  1.0000
  H   H972      1.0  0.27336  0.67459  0.27646  1.0000
  H   H973      1.0  0.28127  0.63691  0.28842  1.0000
  N   N31       1.0  0.16795  0.70626  0.34590  1.0000
  C   C555      1.0  0.18499  0.72941  0.35482  1.0000
  C   C556      1.0  0.14361  0.72639  0.33685  1.0000
  C   C557      1.0  0.19294  0.69077  0.33485  1.0000
  C   C558      1.0  0.21904  0.66696  0.34176  1.0000
  C   C559      1.0  0.15801  0.75671  0.32633  1.0000
  C   C560      1.0  0.19660  0.71459  0.37021  1.0000
  C   C561      1.0  0.22139  0.73716  0.37571  1.0000
  C   C562      1.0  0.24145  0.65173  0.32934  1.0000
  C   C563      1.0  0.12993  0.77784  0.32001  1.0000
  H   H974      1.0  0.20687  0.74113  0.34773  1.0000
  H   H975      1.0  0.16799  0.75041  0.35779  1.0000
  H   H976      1.0  0.12282  0.73536  0.34462  1.0000
  H   H977      1.0  0.13199  0.71085  0.32932  1.0000
  H   H978      1.0  0.18006  0.67749  0.32693  1.0000
  H   H979      1.0  0.20741  0.71038  0.32746  1.0000
  H   H980      1.0  0.23552  0.68079  0.34798  1.0000
  H   H981      1.0  0.17432  0.74839  0.31662  1.0000
  H   H982      1.0  0.17263  0.77290  0.33233  1.0000
  H   H983      1.0  0.17470  0.71180  0.37891  1.0000
  H   H984      1.0  0.20870  0.68996  0.36967  1.0000
  H   H985      1.0  0.24481  0.73870  0.36793  1.0000
  H   H986      1.0  0.21063  0.76246  0.37657  1.0000
  H   H987      1.0  0.22772  0.72677  0.38708  1.0000
  H   H988      1.0  0.25651  0.67140  0.32235  1.0000
  H   H989      1.0  0.25871  0.63322  0.33448  1.0000
  H   H990      1.0  0.22639  0.63907  0.32201  1.0000
  H   H991      1.0  0.11421  0.78828  0.32936  1.0000
  H   H992      1.0  0.14034  0.79851  0.31185  1.0000
  H   H993      1.0  0.11417  0.76266  0.31405  1.0000
  H   H994      1.0  0.06541  0.78130  0.45429  1.0000
  H   H995      1.0  0.38585  0.58033  0.35192  1.0000
  N   N32       1.0  0.33777  0.55670  0.37706  1.0000
  C   C564      1.0  0.07122  0.79296  0.46439  1.0000
  H   H996      1.0  0.12591  0.96515  0.25172  1.0000
  C   C565      1.0  0.35454  0.56596  0.39031  1.0000
  C   C566      1.0  0.36889  0.53739  0.40063  1.0000
  C   C567      1.0  0.39265  0.55748  0.35893  1.0000
  H   H997      1.0  0.31499  0.65696  0.36813  1.0000
  H   H998      1.0  0.31985  0.98161  0.25380  1.0000
  C   C568      1.0  0.38846  0.55098  0.41233  1.0000
  H   H999      1.0  0.07645  0.81961  0.46095  1.0000
  H   H1000     1.0  0.41360  0.82285  0.44660  1.0000
  H   H1001     1.0  0.21520  0.70084  0.23240  1.0000
  H   H1002     1.0  0.29448  0.54467  0.39306  1.0000
  S   S147      1.0  0.30879  0.00198  0.41066  1.0000
  H   H1003     1.0  0.37477  0.58401  0.38639  1.0000
  H   H1004     1.0  0.33674  0.57926  0.39798  1.0000
  H   H1005     1.0  0.35579  0.94985  0.39646  1.0000
  C   C569      1.0  0.45895  0.52371  0.38105  1.0000
  H   H1006     1.0  0.40797  0.56418  0.36770  1.0000
  H   H1007     1.0  0.26295  0.97070  0.26683  1.0000
  C   C570      1.0  0.38752  0.64278  0.32295  1.0000
  H   H1008     1.0  0.02241  0.95171  0.29126  1.0000
  H   H1009     1.0  0.27765  0.61763  0.23310  1.0000
  C   C571      1.0  0.04519  0.79556  0.31052  1.0000
  H   H1010     1.0  0.08267  0.81552  0.29347  1.0000
  H   H1011     1.0  0.29309  0.93850  0.45596  1.0000
  H   H1012     1.0  0.07630  0.66902  0.45672  1.0000
  H   H1013     1.0  0.06774  0.86692  0.25231  1.0000
  C   C572      1.0  0.27325  0.99596  0.26631  1.0000
  C   C573      1.0  0.01635  0.93024  0.29986  1.0000
  H   H1014     1.0  0.50762  0.55815  0.39743  1.0000
  C   C574      1.0  0.31117  0.99235  0.26450  1.0000
  H   H1015     1.0  0.24208  0.76734  0.24103  1.0000
  H   H1016     1.0  0.25591  0.71615  0.22822  1.0000
  H   H1017     1.0  0.17754  0.87981  0.32439  1.0000
  H   H1018     1.0  0.13031  0.87111  0.24529  1.0000
  C   C575      1.0  0.03354  0.82859  0.28602  1.0000
  H   H1019     1.0  0.43636  0.85214  0.45542  1.0000
  H   H1020     1.0  0.46153  0.82157  0.39417  1.0000
  C   C576      1.0  0.16742  0.88154  0.33641  1.0000
  H   H1021     1.0  0.09600  0.64012  0.36986  1.0000
  H   H1022     1.0  0.34833  0.52258  0.40706  1.0000
  H   H1023     1.0  0.44045  0.79265  0.34836  1.0000
  H   H1024     1.0  0.19627  0.93768  0.32359  1.0000
  H   H1025     1.0  0.23897  0.89892  0.33179  1.0000
  C   C577      1.0  0.34677  0.92626  0.45576  1.0000
  C   C578      1.0  0.38653  0.78809  0.27729  1.0000
  C   C579      1.0  0.23531  0.63907  0.22211  1.0000
  C   C580      1.0  0.23402  0.96638  0.33079  1.0000
  H   H1026     1.0  0.15998  0.94421  0.26033  1.0000
  H   H1027     1.0  0.50892  0.99399  0.40861  1.0000
  H   H1028     1.0  0.27326  0.59388  0.37584  1.0000
  C   C581      1.0  0.25848  0.60991  0.22619  1.0000
  C   C582      1.0  0.43770  0.97855  0.43083  1.0000
  H   H1029     1.0  0.27082  0.65499  0.37342  1.0000
  H   H1030     1.0  0.04592  0.91125  0.27264  1.0000
  C   C583      1.0  0.38370  0.88660  0.44347  1.0000
  C   C584      1.0  0.35841  0.93334  0.42815  1.0000
  C   C585      1.0  0.38174  0.92328  0.41435  1.0000
  C   C586      1.0  0.38077  0.94904  0.40060  1.0000
  H   H1031     1.0  0.40547  0.90273  0.44397  1.0000
  H   H1032     1.0  0.39013  0.87313  0.43340  1.0000
  C   C587      1.0  0.29321  0.84279  0.43001  1.0000
  H   H1033     1.0  0.36944  0.95633  0.43121  1.0000
  H   H1034     1.0  0.40787  0.92106  0.41716  1.0000
  H   H1035     1.0  0.37502  0.89919  0.41098  1.0000
  C   C588      1.0  0.48347  0.53472  0.36946  1.0000
  H   H1036     1.0  0.05046  0.73888  0.35318  1.0000
  H   H1037     1.0  0.05987  0.84572  0.30425  1.0000
  C   C589      1.0  0.05770  0.82325  0.29841  1.0000
  C   C590      1.0  0.21359  0.84656  0.34443  1.0000
  N   N33       1.0  0.39275  0.81330  0.39116  1.0000
  C   C591      1.0  0.35677  0.82375  0.39065  1.0000
  C   C592      1.0  0.39404  0.77761  0.39782  1.0000
  C   C593      1.0  0.40903  0.83567  0.40060  1.0000
  C   C594      1.0  0.41141  0.81607  0.37552  1.0000
  C   C595      1.0  0.39496  0.79987  0.36322  1.0000
  C   C596      1.0  0.35041  0.85893  0.38273  1.0000
  C   C597      1.0  0.44461  0.82520  0.40450  1.0000
  C   C598      1.0  0.37788  0.77005  0.41436  1.0000
  C   C599      1.0  0.38441  0.73402  0.42034  1.0000
  C   C600      1.0  0.38366  0.64769  0.30602  1.0000
  C   C601      1.0  0.31313  0.86571  0.38216  1.0000
  H   H1038     1.0  0.35791  0.77026  0.22370  1.0000
  H   H1039     1.0  0.34389  0.82323  0.40230  1.0000
  H   H1040     1.0  0.34316  0.80553  0.38522  1.0000
  H   H1041     1.0  0.38082  0.76183  0.39102  1.0000
  H   H1042     1.0  0.42021  0.76805  0.39714  1.0000
  H   H1043     1.0  0.39332  0.83830  0.41140  1.0000
  H   H1044     1.0  0.41097  0.86121  0.39466  1.0000
  H   H1045     1.0  0.20133  0.74986  0.24696  1.0000
  H   H1046     1.0  0.46134  0.87583  0.40531  1.0000
  H   H1047     1.0  0.36984  0.81040  0.36167  1.0000
  H   H1048     1.0  0.39260  0.77269  0.36614  1.0000
  H   H1049     1.0  0.36011  0.87816  0.38896  1.0000
  H   H1050     1.0  0.36248  0.86202  0.37093  1.0000
  N   N34       1.0  0.03936  0.85829  0.27439  1.0000
  H   H1051     1.0  0.44408  0.80170  0.41212  1.0000
  H   H1052     1.0  0.38786  0.78599  0.42211  1.0000
  H   H1053     1.0  0.35045  0.77374  0.41494  1.0000
  H   H1054     1.0  0.41154  0.72920  0.42064  1.0000
  H   H1055     1.0  0.37179  0.72877  0.43199  1.0000
  H   H1056     1.0  0.37456  0.71682  0.41306  1.0000
  H   H1057     1.0  0.31921  0.97544  0.27410  1.0000
  H   H1058     1.0  0.20512  0.79090  0.23711  1.0000
  C   C602      1.0  0.46739  0.97153  0.45308  1.0000
  H   H1059     1.0  0.30902  0.89135  0.37691  1.0000
  H   H1060     1.0  0.24781  0.78759  0.34950  1.0000
  S   S148      1.0  0.47641  0.92298  0.43364  1.0000
  C   C603      1.0  0.33411  0.68961  0.23084  1.0000
  H   H1061     1.0  0.37397  0.79339  0.26679  1.0000
  C   C604      1.0  0.14813  0.68066  0.35649  1.0000
  Fe  Fe76      1.0  0.04942  0.64942  0.31987  1.0000
  H   H1062     1.0  0.11366  0.71484  0.44496  1.0000
  H   H1063     1.0  0.13208  0.88173  0.38618  1.0000
  S   S149      1.0  0.34413  0.64955  0.22567  1.0000
  C   C605      1.0  0.34432  0.74875  0.22908  1.0000
  H   H1064     1.0  0.13083  0.69335  0.36471  1.0000
  H   H1065     1.0  0.16757  0.90288  0.39129  1.0000
  H   H1066     1.0  0.28499  0.80360  0.35535  1.0000
  H   H1067     1.0  0.06068  0.79376  0.32008  1.0000
  H   H1068     1.0  0.17629  0.93248  0.36572  1.0000
  H   H1069     1.0  0.23521  0.91158  0.35036  1.0000
  H   H1070     1.0  0.34447  0.64751  0.28167  1.0000
  H   H1071     1.0  0.43655  0.80430  0.37587  1.0000
  C   C606      1.0  0.07050  0.85355  0.26370  1.0000
  H   H1072     1.0  0.23752  0.83527  0.36545  1.0000
  H   H1073     1.0  0.20706  0.64634  0.34940  1.0000
  H   H1074     1.0  0.27499  0.81389  0.33617  1.0000
  C   C607      1.0  0.32696  0.58865  0.36844  1.0000
  C   C608      1.0  0.45190  0.00050  0.45798  1.0000
  H   H1075     1.0  0.06993  0.68907  0.39631  1.0000
  H   H1076     1.0  0.16442  0.66478  0.36353  1.0000
  H   H1077     1.0  0.14174  0.64509  0.33987  1.0000
  H   H1078     1.0  0.43549  0.65363  0.24954  1.0000
  C   C609      1.0  0.33975  0.67463  0.28176  1.0000
  H   H1079     1.0  0.16990  0.85657  0.36718  1.0000
  H   H1080     1.0  0.13091  0.92607  0.38662  1.0000
  C   C610      1.0  0.12678  0.65702  0.34900  1.0000
  H   H1081     1.0  0.19689  0.82535  0.34848  1.0000
  H   H1082     1.0  0.10554  0.67068  0.34418  1.0000
  C   C611      1.0  0.26429  0.80941  0.34820  1.0000
  C   C612      1.0  0.21635  0.76559  0.23787  1.0000
  H   H1083     1.0  0.13992  0.91330  0.36032  1.0000
  H   H1084     1.0  0.04620  0.77133  0.30571  1.0000
  H   H1085     1.0  0.10926  0.85539  0.27939  1.0000
  H   H1086     1.0  0.27751  0.67131  0.21674  1.0000
  H   H1087     1.0  0.09169  0.84368  0.33363  1.0000
  C   C613      1.0  0.20659  0.94057  0.33435  1.0000
  C   C614      1.0  0.14716  0.90463  0.38381  1.0000
  C   C615      1.0  0.24494  0.83997  0.35308  1.0000
  C   C616      1.0  0.23159  0.71567  0.22352  1.0000
  C   C617      1.0  0.39578  0.68782  0.25665  1.0000
  H   H1088     1.0  0.35229  0.73513  0.27062  1.0000
  H   H1089     1.0  0.38898  0.71404  0.25339  1.0000
  H   H1090     1.0  0.31215  0.66854  0.30457  1.0000
  C   C618      1.0  0.38248  0.86021  0.45742  1.0000
  S   S150      1.0  0.03005  0.67855  0.37253  1.0000
  C   C619      1.0  0.22045  0.90672  0.34100  1.0000
  C   C620      1.0  0.42805  0.68002  0.24704  1.0000
  C   C621      1.0  0.20644  0.99398  0.25300  1.0000
  H   H1091     1.0  0.26601  0.00567  0.27735  1.0000
  H   H1092     1.0  0.24486  0.97105  0.34127  1.0000
  H   H1093     1.0  0.06269  0.88981  0.28833  1.0000
  H   H1094     1.0  0.26232  0.86108  0.35108  1.0000
  C   C622      1.0  0.18351  0.87980  0.36282  1.0000
  H   H1095     1.0  0.14934  0.83002  0.33941  1.0000
  C   C623      1.0  0.11205  0.62945  0.36063  1.0000
  H   H1096     1.0  0.32683  0.87739  0.41732  1.0000
  C   C624      1.0  0.36477  0.72923  0.28114  1.0000
  H   H1097     1.0  0.34696  0.73825  0.29021  1.0000
  H   H1098     1.0  0.38643  0.97410  0.40354  1.0000
  H   H1099     1.0  0.27100  0.85923  0.42885  1.0000
  H   H1100     1.0  0.09658  0.61320  0.35503  1.0000
  H   H1101     1.0  0.13212  0.61405  0.36554  1.0000
  C   C625      1.0  0.16129  0.90963  0.36715  1.0000
  C   C626      1.0  0.11192  0.86184  0.33015  1.0000
  H   H1102     1.0  0.26928  0.00687  0.24254  1.0000
  N   N35       1.0  0.37074  0.69232  0.28429  1.0000
  N   N36       1.0  0.19568  0.87929  0.34629  1.0000
  H   H1103     1.0  0.22120  0.84443  0.33218  1.0000
  C   C627      1.0  0.13958  0.85545  0.34060  1.0000
  H   H1104     1.0  0.36428  0.65028  0.32961  1.0000
  C   C628      1.0  0.39941  0.68064  0.27383  1.0000
  S   S151      1.0  0.49313  0.57746  0.36499  1.0000
  H   H1105     1.0  0.40268  0.65329  0.27587  1.0000
  H   H1106     1.0  0.16295  0.95422  0.23999  1.0000
  H   H1107     1.0  0.43724  0.55015  0.34376  1.0000
  H   H1108     1.0  0.21738  0.98158  0.24305  1.0000
  H   H1109     1.0  0.36970  0.79548  0.28705  1.0000
  H   H1110     1.0  0.37198  0.56635  0.41968  1.0000
  C   C629      1.0  0.41320  0.83742  0.45648  1.0000
  C   C630      1.0  0.39601  0.75135  0.27974  1.0000
  H   H1111     1.0  0.41379  0.74599  0.26992  1.0000
  H   H1112     1.0  0.36960  0.94002  0.45728  1.0000
  H   H1113     1.0  0.39951  0.94248  0.39133  1.0000
  H   H1114     1.0  0.28843  0.64039  0.35582  1.0000
  H   H1115     1.0  0.42329  0.69101  0.27628  1.0000
  H   H1116     1.0  0.41614  0.84252  0.37126  1.0000
  H   H1117     1.0  0.38587  0.52114  0.39407  1.0000
  H   H1118     1.0  0.34595  0.84578  0.42975  1.0000
  H   H1119     1.0  0.28862  0.54007  0.37394  1.0000
  N   N37       1.0  0.35282  0.90786  0.44185  1.0000
  H   H1120     1.0  0.15459  0.90601  0.33644  1.0000
  C   C631      1.0  0.10384  0.86623  0.26801  1.0000
  H   H1121     1.0  0.07410  0.82688  0.26186  1.0000
  H   H1122     1.0  0.01916  0.80075  0.31505  1.0000
  C   C632      1.0  0.15350  0.96293  0.25105  1.0000
  H   H1123     1.0  0.31980  0.97030  0.44606  1.0000
  H   H1124     1.0  0.42011  0.83264  0.34465  1.0000
  H   H1125     1.0  0.39274  0.61624  0.32644  1.0000
  H   H1126     1.0  0.33422  0.94151  0.42409  1.0000
  C   C633      1.0  0.09189  0.68090  0.46362  1.0000
  C   C634      1.0  0.37876  0.68491  0.30044  1.0000
  H   H1127     1.0  0.40908  0.74743  0.29009  1.0000
  H   H1128     1.0  0.24392  0.58952  0.23292  1.0000
  H   H1129     1.0  0.18653  0.95063  0.34205  1.0000
  H   H1130     1.0  0.21046  0.97603  0.26295  1.0000
  C   C635      1.0  0.41439  0.53632  0.34848  1.0000
  H   H1131     1.0  0.35914  0.69546  0.30833  1.0000
  H   H1132     1.0  0.32047  0.58398  0.35703  1.0000
  H   H1133     1.0  0.48564  0.84412  0.41481  1.0000
  H   H1134     1.0  0.40204  0.69748  0.30213  1.0000
  C   C636      1.0  0.35100  0.71763  0.22369  1.0000
  H   H1135     1.0  0.42211  0.51280  0.35479  1.0000
  C   C637      1.0  0.13310  0.85793  0.25664  1.0000
  C   C638      1.0  0.32233  0.88761  0.44100  1.0000
  H   H1136     1.0  0.13475  0.83084  0.25575  1.0000
  H   H1137     1.0  0.31462  0.87342  0.45214  1.0000
  H   H1138     1.0  0.15671  0.86579  0.26046  1.0000
  H   H1139     1.0  0.30068  0.90419  0.43866  1.0000
  H   H1140     1.0  0.44524  0.85502  0.42346  1.0000
  H   H1141     1.0  0.40931  0.80333  0.27611  1.0000
  C   C639      1.0  0.31704  0.95130  0.45600  1.0000
  S   S152      1.0  0.03817  0.69863  0.32847  1.0000
  H   H1142     1.0  0.29483  0.82605  0.42088  1.0000
  H   H1143     1.0  0.20212  0.96174  0.43790  1.0000
  H   H1144     1.0  0.40658  0.63761  0.30005  1.0000
  H   H1145     1.0  0.49144  0.76649  0.42674  1.0000
  H   H1146     1.0  0.42416  0.68446  0.23485  1.0000
  H   H1147     1.0  0.48435  0.95737  0.45994  1.0000
  H   H1148     1.0  0.10304  0.89367  0.26782  1.0000
  C   C640      1.0  0.30712  0.53618  0.38239  1.0000
  H   H1149     1.0  0.10112  0.88716  0.33083  1.0000
  C   C641      1.0  0.36120  0.53850  0.36631  1.0000
  C   C642      1.0  0.29248  0.64200  0.36780  1.0000
  C   C643      1.0  0.21682  0.75143  0.22263  1.0000
  H   H1150     1.0  0.34788  0.60650  0.36636  1.0000
  C   C644      1.0  0.29670  0.60743  0.37608  1.0000
  H   H1151     1.0  0.02916  0.00678  0.26153  1.0000
  H   H1152     1.0  0.12178  0.85918  0.31823  1.0000
  C   C645      1.0  0.45993  0.85170  0.41250  1.0000
  H   H1153     1.0  0.22426  0.64789  0.23288  1.0000
  H   H1154     1.0  0.36223  0.63266  0.30416  1.0000
  H   H1155     1.0  0.28984  0.82731  0.44109  1.0000
  C   C646      1.0  0.04117  0.89013  0.28161  1.0000
  Fe  Fe77      1.0  0.01587  0.66916  0.34942  1.0000
  C   C647      1.0  0.51217  0.76975  0.41801  1.0000
  H   H1156     1.0  0.19079  0.75169  0.21973  1.0000
  H   H1157     1.0  0.34757  0.53142  0.35695  1.0000
  H   H1158     1.0  0.37025  0.51481  0.37196  1.0000
  H   H1159     1.0  0.02761  0.83055  0.24680  1.0000
  H   H1160     1.0  0.03484  0.80525  0.28046  1.0000
  H   H1161     1.0  0.03727  0.92581  0.30698  1.0000
  H   H1162     1.0  0.24897  0.00131  0.43234  1.0000
  H   H1163     1.0  0.15618  0.00499  0.26338  1.0000
  H   H1164     1.0  0.36017  0.84447  0.45823  1.0000
  H   H1165     1.0  0.02540  0.73387  0.41117  1.0000
  H   H1166     1.0  0.21497  0.62953  0.21641  1.0000
  H   H1167     1.0  0.03268  0.77771  0.40995  1.0000
  C   C648      1.0  0.42225  0.00729  0.43573  1.0000
  H   H1168     1.0  0.22342  0.99004  0.32579  1.0000
  H   H1169     1.0  0.01685  0.76422  0.38583  1.0000
  H   H1170     1.0  0.27112  0.60037  0.21585  1.0000
  H   H1171     1.0  0.02777  0.56345  0.49472  1.0000
  C   C649      1.0  0.08469  0.52896  0.57828  1.0000
  H   H1172     1.0  0.47678  0.58499  0.58042  1.0000
  H   H1173     1.0  0.06060  0.97676  0.62506  1.0000
  S   S153      1.0  0.06380  0.81248  0.68963  1.0000
  H   H1174     1.0  0.02093  0.80425  0.47283  1.0000
  Fe  Fe78      1.0  0.07413  0.85905  0.67372  1.0000
  S   S154      1.0  0.12247  0.86991  0.65838  1.0000
  H   H1175     1.0  0.48917  0.58646  0.52079  1.0000
  S   S155      1.0  0.05656  0.89374  0.69078  1.0000
  S   S156      1.0  0.21205  0.99805  0.65734  1.0000
  H   H1176     1.0  0.31373  0.64311  0.70454  1.0000
  H   H1177     1.0  0.32178  0.53794  0.63380  1.0000
  H   H1178     1.0  0.38232  0.87227  0.46802  1.0000
  H   H1179     1.0  0.45941  0.64069  0.52269  1.0000
  C   C650      1.0  0.02414  0.75462  0.50889  1.0000
  H   H1180     1.0  0.41265  0.81981  0.46691  1.0000
  H   H1181     1.0  0.45883  0.56241  0.56170  1.0000
  H   H1182     1.0  0.49303  0.62256  0.57003  1.0000
  H   H1183     1.0  0.44959  0.53779  0.59935  1.0000
  C   C651      1.0  0.42673  0.00249  0.64493  1.0000
  H   H1184     1.0  0.13806  0.52385  0.57603  1.0000
  C   C652      1.0  0.15638  0.87127  0.70640  1.0000
  Fe  Fe79      1.0  0.05674  0.62676  0.51278  1.0000
  S   S157      1.0  0.06820  0.66116  0.52955  1.0000
  S   S158      1.0  0.06491  0.63733  0.48721  1.0000
  Fe  Fe80      1.0  0.08340  0.61511  0.54376  1.0000
  S   S159      1.0  0.12659  0.61099  0.55833  1.0000
  S   S160      1.0  0.07618  0.58149  0.52607  1.0000
  H   H1185     1.0  0.05504  0.73671  0.48130  1.0000
  H   H1186     1.0  0.16731  0.00606  0.62906  1.0000
  N   N38       1.0  0.06767  0.99179  0.64712  1.0000
  H   H1187     1.0  0.29241  0.98609  0.47049  1.0000
  C   C653      1.0  0.11142  0.68555  0.48796  1.0000
  C   C654      1.0  0.04228  0.78943  0.47692  1.0000
  H   H1188     1.0  0.49901  0.66103  0.52227  1.0000
  H   H1189     1.0  0.33400  0.60378  0.70125  1.0000
  H   H1190     1.0  0.11143  0.67723  0.49987  1.0000
  H   H1191     1.0  0.14825  0.72297  0.48821  1.0000
  C   C655      1.0  0.13354  0.72192  0.46577  1.0000
  H   H1192     1.0  0.03231  0.96966  0.69298  1.0000
  H   H1193     1.0  0.02259  0.78186  0.50960  1.0000
  H   H1194     1.0  0.24040  0.85560  0.69694  1.0000
  H   H1195     1.0  0.07777  0.75836  0.50102  1.0000
  H   H1196     1.0  0.22392  0.88697  0.70800  1.0000
  H   H1197     1.0  0.03016  0.55462  0.47529  1.0000
  H   H1198     1.0  0.17880  0.77045  0.67814  1.0000
  C   C656      1.0  0.21056  0.55704  0.56589  1.0000
  C   C657      1.0  0.18377  0.57990  0.56693  1.0000
  C   C658      1.0  0.16029  0.58243  0.55630  1.0000
  C   C659      1.0  0.16399  0.56203  0.54454  1.0000
  H   H1199     1.0  0.09846  0.74156  0.52570  1.0000
  H   H1200     1.0  0.22877  0.55560  0.57397  1.0000
  H   H1201     1.0  0.18126  0.59582  0.57597  1.0000
  H   H1202     1.0  0.14630  0.56394  0.53622  1.0000
  H   H1203     1.0  0.14740  0.79962  0.67161  1.0000
  N   N39       1.0  0.18778  0.85071  0.70403  1.0000
  C   C660      1.0  0.14684  0.90596  0.65804  1.0000
  C   C661      1.0  0.17353  0.91212  0.64668  1.0000
  C   C662      1.0  0.19372  0.94023  0.64620  1.0000
  C   C663      1.0  0.18743  0.96247  0.65714  1.0000
  C   C664      1.0  0.16069  0.95635  0.66848  1.0000
  C   C665      1.0  0.14065  0.92822  0.66898  1.0000
  H   H1204     1.0  0.17873  0.89497  0.63821  1.0000
  H   H1205     1.0  0.21426  0.94455  0.63743  1.0000
  H   H1206     1.0  0.15578  0.97321  0.67708  1.0000
  H   H1207     1.0  0.12070  0.92353  0.67795  1.0000
  S   S161      1.0  0.38193  0.98683  0.62496  1.0000
  C   C666      1.0  0.07217  0.74993  0.52522  1.0000
  C   C667      1.0  0.15463  0.78274  0.68140  1.0000
  H   H1208     1.0  0.02066  0.74568  0.47095  1.0000
  C   C668      1.0  0.09118  0.67014  0.47914  1.0000
  Fe  Fe81      1.0  0.02403  0.57679  0.53746  1.0000
  C   C669      1.0  0.06180  0.97673  0.66339  1.0000
  H   H1209     1.0  0.03176  0.92840  0.61851  1.0000
  C   C670      1.0  0.22093  0.55337  0.61162  1.0000
  H   H1210     1.0  0.19580  0.91503  0.68685  1.0000
  H   H1211     1.0  0.44567  0.96024  0.61426  1.0000
  Fe  Fe82      1.0  0.01570  0.65111  0.53998  1.0000
  Fe  Fe83      1.0  0.04377  0.84739  0.70637  1.0000
  H   H1212     1.0  0.28181  0.57440  0.71139  1.0000
  H   H1213     1.0  0.24661  0.93345  0.67038  1.0000
  C   C671      1.0  0.19114  0.53963  0.54335  1.0000
  C   C672      1.0  0.18360  0.82942  0.69145  1.0000
  H   H1214     1.0  0.06387  0.53467  0.58682  1.0000
  H   H1215     1.0  0.08035  0.95659  0.66551  1.0000
  C   C673      1.0  0.42174  0.98752  0.63195  1.0000
  H   H1216     1.0  0.47422  0.61186  0.54695  1.0000
  H   H1217     1.0  0.09117  0.95291  0.63450  1.0000
  H   H1218     1.0  0.48451  0.52681  0.56220  1.0000
  H   H1219     1.0  0.04998  0.80049  0.48680  1.0000
  C   C674      1.0  0.24846  0.91612  0.68077  1.0000
  C   C675      1.0  0.44920  0.97212  0.62425  1.0000
  H   H1220     1.0  0.31098  0.95088  0.48061  1.0000
  C   C676      1.0  0.47847  0.54939  0.55477  1.0000
  H   H1221     1.0  0.26989  0.89901  0.67854  1.0000
  H   H1222     1.0  0.04521  0.51736  0.51441  1.0000
  H   H1223     1.0  0.19423  0.52443  0.53405  1.0000
  C   C677      1.0  0.06262  0.00092  0.67568  1.0000
  H   H1224     1.0  0.20527  0.56977  0.61877  1.0000
  C   C678      1.0  0.30039  0.52098  0.63693  1.0000
  H   H1225     1.0  0.50189  0.95984  0.62328  1.0000
  C   C679      1.0  0.45811  0.51543  0.59445  1.0000
  H   H1226     1.0  0.45682  0.00861  0.46866  1.0000
  H   H1227     1.0  0.17357  0.54022  0.59506  1.0000
  H   H1228     1.0  0.28018  0.53416  0.64343  1.0000
  H   H1229     1.0  0.07039  0.77671  0.52683  1.0000
  H   H1230     1.0  0.20768  0.81704  0.68789  1.0000
  H   H1231     1.0  0.11220  0.00218  0.61996  1.0000
  C   C680      1.0  0.04197  0.93630  0.64137  1.0000
  H   H1232     1.0  0.08465  0.52884  0.50520  1.0000
  C   C681      1.0  0.05636  0.98283  0.69158  1.0000
  H   H1233     1.0  0.13205  0.81288  0.69794  1.0000
  H   H1234     1.0  0.06540  0.90294  0.62565  1.0000
  H   H1235     1.0  0.13530  0.76342  0.68429  1.0000
  H   H1236     1.0  0.15348  0.53831  0.61382  1.0000
  H   H1237     1.0  0.17642  0.84491  0.68121  1.0000
  C   C682      1.0  0.21612  0.89679  0.68473  1.0000
  C   C683      1.0  0.06103  0.74402  0.50991  1.0000
  C   C684      1.0  0.15695  0.80198  0.69506  1.0000
  H   H1238     1.0  0.21202  0.99171  0.56386  1.0000
  S   S162      1.0  0.03189  0.60835  0.55588  1.0000
  C   C685      1.0  0.21444  0.53692  0.55405  1.0000
  H   H1239     1.0  0.21188  0.88426  0.67468  1.0000
  H   H1240     1.0  0.26122  0.00904  0.54564  1.0000
  H   H1241     1.0  0.02555  0.69414  0.49788  1.0000
  C   C686      1.0  0.31435  0.96903  0.47036  1.0000
  C   C687      1.0  0.28544  0.59962  0.71460  1.0000
  H   H1242     1.0  0.22507  0.56573  0.59989  1.0000
  C   C688      1.0  0.48118  0.97185  0.62934  1.0000
  C   C689      1.0  0.46131  0.53862  0.54145  1.0000
  S   S163      1.0  0.02441  0.85658  0.66470  1.0000
  C   C690      1.0  0.49996  0.59830  0.57589  1.0000
  H   H1243     1.0  0.29089  0.51435  0.62643  1.0000
  H   H1244     1.0  0.03744  0.96422  0.66575  1.0000
  C   C691      1.0  0.06631  0.96535  0.63641  1.0000
  C   C692      1.0  0.23046  0.00931  0.56670  1.0000
  H   H1245     1.0  0.24916  0.99511  0.57314  1.0000
  C   C693      1.0  0.30970  0.61726  0.70216  1.0000
  C   C694      1.0  0.21808  0.87186  0.69902  1.0000
  H   H1246     1.0  0.12067  0.98602  0.64830  1.0000
  C   C695      1.0  0.48639  0.63958  0.51869  1.0000
  H   H1247     1.0  0.25309  0.93095  0.69008  1.0000
  H   H1248     1.0  0.06737  0.56479  0.48316  1.0000
  C   C696      1.0  0.45863  0.00190  0.65012  1.0000
  H   H1249     1.0  0.06475  0.71749  0.50839  1.0000
  H   H1250     1.0  0.13471  0.85512  0.71050  1.0000
  H   H1251     1.0  0.15005  0.88416  0.69543  1.0000
  H   H1252     1.0  0.12150  0.55350  0.58848  1.0000
  C   C697      1.0  0.11790  0.52838  0.58504  1.0000
  H   H1253     1.0  0.44883  0.56036  0.53571  1.0000
  C   C698      1.0  0.03218  0.75261  0.48091  1.0000
  H   H1254     1.0  0.05656  0.73566  0.53461  1.0000
  H   H1255     1.0  0.16289  0.78387  0.70463  1.0000
  H   H1256     1.0  0.41586  0.52283  0.55570  1.0000
  H   H1257     1.0  0.10393  0.51621  0.52851  1.0000
  C   C699      1.0  0.48613  0.98672  0.64235  1.0000
  H   H1258     1.0  0.08509  0.54849  0.56853  1.0000
  C   C700      1.0  0.16968  0.52388  0.60588  1.0000
  H   H1259     1.0  0.07673  0.96463  0.69374  1.0000
  C   C701      1.0  0.13241  0.71138  0.48131  1.0000
  H   H1260     1.0  0.24547  0.54973  0.61612  1.0000
  H   H1261     1.0  0.05075  0.92063  0.65118  1.0000
  C   C702      1.0  0.20436  0.51979  0.61189  1.0000
  C   C703      1.0  0.49975  0.60400  0.54255  1.0000
  H   H1262     1.0  0.33705  0.98376  0.47071  1.0000
  H   H1263     1.0  0.34162  0.90866  0.46612  1.0000
  C   C704      1.0  0.04048  0.91408  0.62868  1.0000
  H   H1264     1.0  0.12595  0.93436  0.70609  1.0000
  H   H1265     1.0  0.50995  0.52289  0.59727  1.0000
  N   N40       1.0  0.50880  0.57081  0.55066  1.0000
  H   H1266     1.0  0.05535  0.00091  0.70012  1.0000
  H   H1267     1.0  0.29927  0.61812  0.69111  1.0000
  C   C705      1.0  0.10250  0.00560  0.64471  1.0000
  H   H1268     1.0  0.48917  0.64148  0.50611  1.0000
  C   C706      1.0  0.04327  0.55166  0.48567  1.0000
  H   H1269     1.0  0.09402  0.78112  0.46855  1.0000
  H   H1270     1.0  0.47918  0.52723  0.53314  1.0000
  S   S164      1.0  0.28565  0.99953  0.62061  1.0000
  H   H1271     1.0  0.02275  0.89365  0.63255  1.0000
  H   H1272     1.0  0.01642  0.94508  0.64470  1.0000
  C   C707      1.0  0.04924  0.51489  0.49046  1.0000
  C   C708      1.0  0.50188  0.60694  0.52498  1.0000
  H   H1273     1.0  0.26157  0.61370  0.71472  1.0000
  H   H1274     1.0  0.50134  0.62067  0.59684  1.0000
  H   H1275     1.0  0.20608  0.80468  0.71527  1.0000
  C   C709      1.0  0.43436  0.51307  0.54707  1.0000
  Fe  Fe84      1.0  0.18261  0.64834  0.79150  1.0000
  S   S165      1.0  0.21718  0.68935  0.78164  1.0000
  S   S166      1.0  0.18711  0.59669  0.78354  1.0000
  Fe  Fe85      1.0  0.13574  0.69706  0.80843  1.0000
  S   S167      1.0  0.16677  0.74158  0.79951  1.0000
  S   S168      1.0  0.08989  0.69716  0.82552  1.0000
  Fe  Fe86      1.0  0.17071  0.71922  0.77729  1.0000
  S   S169      1.0  0.16826  0.74313  0.75329  1.0000
  Fe  Fe87      1.0  0.20986  0.70766  0.80466  1.0000
  S   S170      1.0  0.25090  0.71827  0.81866  1.0000
  S   S171      1.0  0.13647  0.67717  0.78585  1.0000
  S   S172      1.0  0.17868  0.66428  0.81490  1.0000
  Fe  Fe88      1.0  0.44278  0.81733  0.81356  1.0000
  S   S173      1.0  0.42215  0.86523  0.80288  1.0000
  Fe  Fe89      1.0  0.41212  0.83210  0.84505  1.0000
  S   S174      1.0  0.38935  0.88085  0.83659  1.0000
  S   S175      1.0  0.40220  0.81490  0.87006  1.0000
  Fe  Fe90      1.0  0.37516  0.85259  0.81797  1.0000
  S   S176      1.0  0.32471  0.85567  0.80900  1.0000
  Fe  Fe91      1.0  0.43844  0.88966  0.82240  1.0000
  S   S177      1.0  0.46833  0.93795  0.81757  1.0000
  S   S178      1.0  0.39466  0.80357  0.82743  1.0000
  S   S179      1.0  0.46266  0.84222  0.83214  1.0000
  Fe  Fe92      1.0  0.26750  0.70016  0.91416  1.0000
  S   S180      1.0  0.24336  0.75032  0.91438  1.0000
  S   S181      1.0  0.31153  0.69257  0.89682  1.0000
  Fe  Fe93      1.0  0.21267  0.66727  0.93692  1.0000
  S   S182      1.0  0.18696  0.62264  0.95058  1.0000
  Fe  Fe94      1.0  0.19586  0.72351  0.91379  1.0000
  S   S183      1.0  0.15920  0.73784  0.89703  1.0000
  S   S184      1.0  0.22028  0.67402  0.91160  1.0000
  S   S185      1.0  0.26266  0.68897  0.93966  1.0000
  C   C710      1.0  0.45991  0.63138  0.82341  1.0000
  S   S186      1.0  0.05604  0.85159  0.91241  1.0000
  C   C711      1.0  0.08678  0.81480  0.73716  1.0000
  C   C712      1.0  0.27255  0.54563  0.74258  1.0000
  C   C713      1.0  0.29358  0.58592  0.75770  1.0000
  H   H1276     1.0  0.37920  0.83404  0.91708  1.0000
  H   H1277     1.0  0.08409  0.72375  0.94815  1.0000
  H   H1278     1.0  0.24633  0.58573  0.87681  1.0000
  C   C714      1.0  0.08627  0.82149  0.90791  1.0000
  C   C715      1.0  0.10633  0.80767  0.91889  1.0000
  C   C716      1.0  0.12906  0.78202  0.91563  1.0000
  C   C717      1.0  0.13183  0.77040  0.90135  1.0000
  C   C718      1.0  0.11234  0.78473  0.89029  1.0000
  C   C719      1.0  0.08965  0.81030  0.89355  1.0000
  H   H1279     1.0  0.10391  0.81646  0.92998  1.0000
  H   H1280     1.0  0.14429  0.77122  0.92417  1.0000
  H   H1281     1.0  0.11480  0.77621  0.87915  1.0000
  H   H1282     1.0  0.07483  0.82144  0.88490  1.0000
  C   C720      1.0  0.17193  0.58907  0.94214  1.0000
  C   C721      1.0  0.14844  0.56766  0.95064  1.0000
  C   C722      1.0  0.33503  0.83679  0.93861  1.0000
  H   H1283     1.0  0.41296  0.83523  0.95048  1.0000
  C   C723      1.0  0.17291  0.55432  0.92149  1.0000
  C   C724      1.0  0.18397  0.58239  0.92748  1.0000
  H   H1284     1.0  0.18270  0.54909  0.91022  1.0000
  H   H1285     1.0  0.44872  0.67546  0.77463  1.0000
  H   H1286     1.0  0.44624  0.61317  0.83183  1.0000
  H   H1287     1.0  0.20225  0.59849  0.92085  1.0000
  C   C725      1.0  0.46113  0.97807  0.82389  1.0000
  H   H1288     1.0  0.42887  0.67644  0.75737  1.0000
  H   H1289     1.0  0.44386  0.77564  0.84825  1.0000
  C   C726      1.0  0.38629  0.81462  0.92604  1.0000
  H   H1290     1.0  0.03762  0.84941  0.77421  1.0000
  H   H1291     1.0  0.01565  0.74295  0.78333  1.0000
  H   H1292     1.0  0.41209  0.96853  0.83522  1.0000
  C   C727      1.0  0.24428  0.63763  0.74703  1.0000
  C   C728      1.0  0.37444  0.78216  0.87640  1.0000
  C   C729      1.0  0.37080  0.75570  0.86786  1.0000
  C   C730      1.0  0.35105  0.72846  0.87412  1.0000
  C   C731      1.0  0.33396  0.72806  0.88870  1.0000
  C   C732      1.0  0.33637  0.75525  0.89689  1.0000
  C   C733      1.0  0.35695  0.78189  0.89082  1.0000
  H   H1293     1.0  0.38405  0.75571  0.85670  1.0000
  H   H1294     1.0  0.34919  0.70753  0.86770  1.0000
  H   H1295     1.0  0.32341  0.75510  0.90814  1.0000
  H   H1296     1.0  0.35968  0.80245  0.89726  1.0000
  C   C734      1.0  0.26808  0.75806  0.81672  1.0000
  C   C735      1.0  0.29266  0.76411  0.82595  1.0000
  C   C736      1.0  0.30948  0.79426  0.82383  1.0000
  C   C737      1.0  0.30199  0.81867  0.81241  1.0000
  C   C738      1.0  0.27629  0.81330  0.80358  1.0000
  C   C739      1.0  0.25927  0.78299  0.80574  1.0000
  H   H1297     1.0  0.29894  0.74534  0.83474  1.0000
  H   H1298     1.0  0.32748  0.79893  0.83138  1.0000
  H   H1299     1.0  0.27001  0.83233  0.79486  1.0000
  H   H1300     1.0  0.24007  0.77860  0.79865  1.0000
  C   C740      1.0  0.13440  0.76866  0.74810  1.0000
  C   C741      1.0  0.12134  0.79329  0.75697  1.0000
  C   C742      1.0  0.09799  0.81656  0.75140  1.0000
  H   H1301     1.0  0.13033  0.79528  0.76782  1.0000
  H   H1302     1.0  0.08897  0.83630  0.75806  1.0000
  C   C743      1.0  0.07207  0.73486  0.83103  1.0000
  C   C744      1.0  0.08368  0.76555  0.82409  1.0000
  C   C745      1.0  0.06827  0.79505  0.82839  1.0000
  C   C746      1.0  0.04134  0.79419  0.83974  1.0000
  H   H1303     1.0  0.47832  0.72073  0.78289  1.0000
  C   C747      1.0  0.04553  0.73401  0.84257  1.0000
  H   H1304     1.0  0.10423  0.76660  0.81527  1.0000
  H   H1305     1.0  0.07697  0.81866  0.82276  1.0000
  C   C748      1.0  0.04483  0.85865  0.79677  1.0000
  C   C749      1.0  0.46244  0.75666  0.85177  1.0000
  C   C750      1.0  0.21567  0.56377  0.78730  1.0000
  C   C751      1.0  0.23884  0.56460  0.79783  1.0000
  C   C752      1.0  0.26127  0.53777  0.80015  1.0000
  H   H1306     1.0  0.27679  0.72300  0.76042  1.0000
  C   C753      1.0  0.32760  0.56755  0.75888  1.0000
  C   C754      1.0  0.21527  0.53604  0.77914  1.0000
  H   H1307     1.0  0.23925  0.58572  0.80425  1.0000
  H   H1308     1.0  0.27890  0.53838  0.80841  1.0000
  H   H1309     1.0  0.34500  0.86414  0.86577  1.0000
  H   H1310     1.0  0.37842  0.79061  0.92261  1.0000
  S   S187      1.0  0.18496  0.71563  0.93895  1.0000
  N   N41       1.0  0.36175  0.73373  0.78361  1.0000
  C   C755      1.0  0.33621  0.73086  0.77266  1.0000
  C   C756      1.0  0.39403  0.71818  0.77741  1.0000
  C   C757      1.0  0.34896  0.71636  0.79882  1.0000
  C   C758      1.0  0.36808  0.76953  0.78546  1.0000
  C   C759      1.0  0.37504  0.79275  0.77052  1.0000
  C   C760      1.0  0.37265  0.71629  0.81142  1.0000
  H   H1311     1.0  0.38950  0.84347  0.76286  1.0000
  H   H1312     1.0  0.28828  0.86145  0.91844  1.0000
  C   C761      1.0  0.38617  0.82684  0.77361  1.0000
  C   C762      1.0  0.35981  0.69360  0.82551  1.0000
  H   H1313     1.0  0.36728  0.83821  0.78154  1.0000
  H   H1314     1.0  0.43050  0.82058  0.89960  1.0000
  H   H1315     1.0  0.40079  0.72827  0.76543  1.0000
  C   C763      1.0  0.15615  0.89701  0.71799  1.0000
  H   H1316     1.0  0.34176  0.69046  0.79777  1.0000
  H   H1317     1.0  0.32554  0.72842  0.80329  1.0000
  H   H1318     1.0  0.34696  0.78043  0.79246  1.0000
  H   H1319     1.0  0.38983  0.77133  0.79201  1.0000
  H   H1320     1.0  0.39501  0.78253  0.76278  1.0000
  H   H1321     1.0  0.43137  0.77805  0.90805  1.0000
  H   H1322     1.0  0.37416  0.74170  0.81481  1.0000
  H   H1323     1.0  0.39819  0.70786  0.80765  1.0000
  H   H1324     1.0  0.32307  0.55722  0.78346  1.0000
  H   H1325     1.0  0.13295  0.74778  0.72700  1.0000
  H   H1326     1.0  0.24101  0.84299  0.72478  1.0000
  C   C764      1.0  0.31245  0.81805  0.92940  1.0000
  H   H1327     1.0  0.43173  0.71679  0.84788  1.0000
  H   H1328     1.0  0.39231  0.66795  0.78956  1.0000
  H   H1329     1.0  0.36079  0.66731  0.82307  1.0000
  H   H1330     1.0  0.37541  0.69640  0.83479  1.0000
  H   H1331     1.0  0.33371  0.70014  0.82943  1.0000
  H   H1332     1.0  0.43561  0.79867  0.93337  1.0000
  H   H1333     1.0  0.12202  0.65828  0.91472  1.0000
  C   C765      1.0  0.46001  0.53071  0.77812  1.0000
  H   H1334     1.0  0.35225  0.79643  0.76459  1.0000
  C   C766      1.0  0.30185  0.74754  0.77660  1.0000
  H   H1335     1.0  0.30409  0.79426  0.93579  1.0000
  H   H1336     1.0  0.29190  0.76410  0.75342  1.0000
  N   N42       1.0  0.27704  0.58235  0.74357  1.0000
  H   H1337     1.0  0.06138  0.70377  0.78928  1.0000
  C   C767      1.0  0.23595  0.61118  0.87462  1.0000
  C   C768      1.0  0.03720  0.73354  0.90930  1.0000
  H   H1338     1.0  0.32305  0.58257  0.72876  1.0000
  H   H1339     1.0  0.47839  0.68135  0.82099  1.0000
  H   H1340     1.0  0.08821  0.63376  0.91002  1.0000
  C   C769      1.0  0.36189  0.78835  0.95114  1.0000
  C   C770      1.0  0.39324  1.00000  0.79791  1.0000
  H   H1341     1.0  0.34619  0.74080  0.76099  1.0000
  S   S188      1.0  0.23987  0.78121  0.95363  1.0000
  H   H1342     1.0  0.22177  0.79306  0.74220  1.0000
  H   H1343     1.0  0.22961  0.59750  0.73533  1.0000
  C   C771      1.0  0.42495  0.81494  0.92431  1.0000
  H   H1344     1.0  0.32585  0.54082  0.75753  1.0000
  H   H1345     1.0  0.11998  0.61452  0.92081  1.0000
  H   H1346     1.0  0.12347  0.67770  0.94031  1.0000
  H   H1347     1.0  0.10684  0.57120  0.84643  1.0000
  N   N43       1.0  0.14685  0.64752  0.86828  1.0000
  C   C772      1.0  0.13167  0.61747  0.86322  1.0000
  C   C773      1.0  0.13007  0.65331  0.88374  1.0000
  C   C774      1.0  0.13894  0.67719  0.85743  1.0000
  C   C775      1.0  0.18427  0.64461  0.86839  1.0000
  C   C776      1.0  0.04085  0.78808  0.78800  1.0000
  C   C777      1.0  0.14151  0.61156  0.84643  1.0000
  C   C778      1.0  0.14892  0.71142  0.86173  1.0000
  C   C779      1.0  0.13598  0.62649  0.89690  1.0000
  C   C780      1.0  0.11516  0.63385  0.91149  1.0000
  C   C781      1.0  0.44088  0.63589  0.80946  1.0000
  C   C782      1.0  0.13378  0.57630  0.84346  1.0000
  C   C783      1.0  0.15608  0.73678  0.84790  1.0000
  H   H1348     1.0  0.10395  0.61953  0.86471  1.0000
  H   H1349     1.0  0.13754  0.59457  0.87044  1.0000
  H   H1350     1.0  0.13860  0.67675  0.88735  1.0000
  H   H1351     1.0  0.10270  0.65654  0.88326  1.0000
  H   H1352     1.0  0.11177  0.67855  0.85610  1.0000
  H   H1353     1.0  0.15148  0.67456  0.84592  1.0000
  H   H1354     1.0  0.19719  0.65450  0.85720  1.0000
  H   H1355     1.0  0.19265  0.66059  0.87664  1.0000
  H   H1356     1.0  0.05757  0.79276  0.79661  1.0000
  C   C784      1.0  0.13702  0.53987  0.94457  1.0000
  H   H1357     1.0  0.12708  0.62882  0.83897  1.0000
  H   H1358     1.0  0.16837  0.61599  0.84304  1.0000
  H   H1359     1.0  0.17146  0.70938  0.86776  1.0000
  H   H1360     1.0  0.12831  0.72130  0.86932  1.0000
  H   H1361     1.0  0.12926  0.60142  0.89447  1.0000
  H   H1362     1.0  0.40585  0.75754  0.94590  1.0000
  H   H1363     1.0  0.42283  0.67848  0.86674  1.0000
  H   H1364     1.0  0.11865  0.52381  0.95116  1.0000
  H   H1365     1.0  0.08717  0.71454  0.92264  1.0000
  H   H1366     1.0  0.41035  0.82462  0.77852  1.0000
  S   S189      1.0  0.05789  0.84486  0.73045  1.0000
  H   H1367     1.0  0.03627  0.71037  0.84794  1.0000
  S   S190      1.0  0.01884  0.83120  0.84281  1.0000
  H   H1368     1.0  0.14865  0.55794  0.85016  1.0000
  H   H1369     1.0  0.17783  0.72871  0.84039  1.0000
  H   H1370     1.0  0.13415  0.73998  0.84143  1.0000
  H   H1371     1.0  0.16170  0.76111  0.85161  1.0000
  N   N44       1.0  0.47914  0.66359  0.84455  1.0000
  C   C785      1.0  0.46345  0.66499  0.82989  1.0000
  C   C786      1.0  0.45749  0.72512  0.84441  1.0000
  C   C787      1.0  0.03041  0.76357  0.84703  1.0000
  C   C788      1.0  0.45916  0.64315  0.85735  1.0000
  C   C789      1.0  0.42289  0.65486  0.86151  1.0000
  C   C790      1.0  0.12546  0.91973  0.71735  1.0000
  H   H1372     1.0  0.10228  0.90497  0.71954  1.0000
  H   H1373     1.0  0.06852  0.90373  0.80092  1.0000
  C   C791      1.0  0.40420  0.62980  0.87321  1.0000
  H   H1374     1.0  0.50797  0.70860  0.84269  1.0000
  H   H1375     1.0  0.30756  0.62245  0.73202  1.0000
  H   H1376     1.0  0.48769  0.76678  0.84818  1.0000
  C   C792      1.0  0.49305  0.74809  0.80039  1.0000
  H   H1377     1.0  0.50585  0.53017  0.76343  1.0000
  N   N45       1.0  0.03335  0.71985  0.92583  1.0000
  H   H1378     1.0  0.05270  0.75621  0.90761  1.0000
  H   H1379     1.0  0.45883  0.61674  0.85505  1.0000
  H   H1380     1.0  0.47138  0.64273  0.86794  1.0000
  H   H1381     1.0  0.40862  0.65810  0.85154  1.0000
  H   H1382     1.0  0.37361  0.67104  0.77213  1.0000
  C   C793      1.0  0.48589  0.00230  0.82004  1.0000
  H   H1383     1.0  0.23928  0.57067  0.95032  1.0000
  C   C794      1.0  0.42677  0.66723  0.76960  1.0000
  H   H1384     1.0  0.39651  0.90064  0.96341  1.0000
  C   C795      1.0  0.10128  0.67307  0.94867  1.0000
  H   H1385     1.0  0.48656  0.69783  0.86092  1.0000
  S   S191      1.0  0.47510  0.55490  0.79108  1.0000
  H   H1386     1.0  0.37860  0.63936  0.87629  1.0000
  H   H1387     1.0  0.40225  0.60570  0.86853  1.0000
  H   H1388     1.0  0.41702  0.62590  0.88367  1.0000
  C   C796      1.0  0.49567  0.72193  0.79121  1.0000
  C   C797      1.0  0.37188  0.85283  0.96479  1.0000
  H   H1389     1.0  0.05941  0.74845  0.87887  1.0000
  H   H1390     1.0  0.34235  0.59647  0.77631  1.0000
  H   H1391     1.0  0.21855  0.53928  0.74311  1.0000
  H   H1392     1.0  0.30687  0.88402  0.87259  1.0000
  H   H1393     1.0  0.41512  0.64475  0.81253  1.0000
  H   H1394     1.0  0.43957  0.61179  0.80472  1.0000
  H   H1395     1.0  0.28497  0.71220  0.85918  1.0000
  H   H1396     1.0  0.21094  0.68046  0.74735  1.0000
  C   C798      1.0  0.14957  0.53278  0.93004  1.0000
  C   C799      1.0  0.09899  0.78946  0.72855  1.0000
  H   H1397     1.0  0.41514  0.72512  0.78347  1.0000
  H   H1398     1.0  0.08043  0.70710  0.89871  1.0000
  C   C800      1.0  0.28141  0.83861  0.92602  1.0000
  C   C801      1.0  0.07431  0.69951  0.94594  1.0000
  C   C802      1.0  0.06621  0.73071  0.78663  1.0000
  H   H1399     1.0  0.26744  0.84549  0.93667  1.0000
  Fe  Fe95      1.0  0.23510  0.73800  0.93970  1.0000
  H   H1400     1.0  0.25060  0.62402  0.86452  1.0000
  H   H1401     1.0  0.18610  0.59541  0.88203  1.0000
  C   C803      1.0  0.24366  0.60005  0.74513  1.0000
  H   H1402     1.0  0.23032  0.82794  0.75205  1.0000
  H   H1403     1.0  0.45968  0.73181  0.83196  1.0000
  H   H1404     1.0  0.02577  0.74311  0.80261  1.0000
  C   C804      1.0  0.38739  0.84451  0.94893  1.0000
  H   H1405     1.0  0.41052  0.78405  0.96060  1.0000
  H   H1406     1.0  0.19124  0.64188  0.75462  1.0000
  C   C805      1.0  0.39295  0.76849  0.95585  1.0000
  C   C806      1.0  0.34016  0.57014  0.77425  1.0000
  C   C807      1.0  0.43139  0.98679  0.83216  1.0000
  H   H1407     1.0  0.22778  0.58808  0.75508  1.0000
  C   C808      1.0  0.06531  0.70187  0.92937  1.0000
  C   C809      1.0  0.04882  0.72325  0.88160  1.0000
  H   H1408     1.0  0.08611  0.73731  0.79340  1.0000
  C   C810      1.0  0.03429  0.75042  0.79050  1.0000
  H   H1409     1.0  0.14023  0.57342  0.83125  1.0000
  H   H1410     1.0  0.42704  0.63966  0.77068  1.0000
  C   C811      1.0  0.12302  0.76680  0.73391  1.0000
  H   H1411     1.0  0.20166  0.65165  0.73444  1.0000
  H   H1412     1.0  0.34680  0.57861  0.75009  1.0000
  H   H1413     1.0  0.04222  0.68476  0.89998  1.0000
  H   H1414     1.0  0.16243  0.62645  0.89921  1.0000
  H   H1415     1.0  0.43378  0.84056  0.92469  1.0000
  H   H1416     1.0  0.19806  0.59453  0.86227  1.0000
  H   H1417     1.0  0.07509  0.73563  0.77439  1.0000
  C   C812      1.0  0.21455  0.84147  0.72968  1.0000
  H   H1418     1.0  0.06911  0.84522  0.79638  1.0000
  H   H1419     1.0  0.20627  0.86642  0.73255  1.0000
  H   H1420     1.0  0.34690  0.86452  0.96432  1.0000
  H   H1421     1.0  0.23855  0.62467  0.88462  1.0000
  N   N46       1.0  0.24385  0.80567  0.86741  1.0000
  C   C813      1.0  0.26641  0.82824  0.87395  1.0000
  C   C814      1.0  0.21100  0.80167  0.87728  1.0000
  C   C815      1.0  0.26092  0.77198  0.86759  1.0000
  C   C816      1.0  0.23837  0.81731  0.85124  1.0000
  C   C817      1.0  0.22395  0.85272  0.84815  1.0000
  C   C818      1.0  0.30075  0.83556  0.86475  1.0000
  C   C819      1.0  0.24063  0.74365  0.86271  1.0000
  C   C820      1.0  0.19421  0.83288  0.88383  1.0000
  C   C821      1.0  0.20064  0.83563  0.90024  1.0000
  C   C822      1.0  0.22594  0.86349  0.83114  1.0000
  C   C823      1.0  0.32026  0.85982  0.87230  1.0000
  H   H1422     1.0  0.27117  0.81750  0.88556  1.0000
  H   H1423     1.0  0.25455  0.85270  0.87540  1.0000
  H   H1424     1.0  0.19214  0.79127  0.87091  1.0000
  H   H1425     1.0  0.21343  0.78260  0.88704  1.0000
  H   H1426     1.0  0.26812  0.76371  0.87914  1.0000
  H   H1427     1.0  0.28451  0.77313  0.85992  1.0000
  H   H1428     1.0  0.26193  0.81543  0.84377  1.0000
  H   H1429     1.0  0.22090  0.80068  0.84694  1.0000
  H   H1430     1.0  0.23762  0.87123  0.85329  1.0000
  H   H1431     1.0  0.19724  0.85323  0.85260  1.0000
  H   H1432     1.0  0.31617  0.81271  0.86404  1.0000
  H   H1433     1.0  0.29787  0.84691  0.85309  1.0000
  H   H1434     1.0  0.23625  0.74856  0.85062  1.0000
  H   H1435     1.0  0.21634  0.74077  0.86966  1.0000
  H   H1436     1.0  0.20075  0.85654  0.87698  1.0000
  H   H1437     1.0  0.16681  0.83083  0.88382  1.0000
  H   H1438     1.0  0.22715  0.84063  0.90108  1.0000
  H   H1439     1.0  0.18543  0.85637  0.90465  1.0000
  H   H1440     1.0  0.19334  0.81254  0.90757  1.0000
  H   H1441     1.0  0.21373  0.88815  0.82914  1.0000
  H   H1442     1.0  0.25235  0.86553  0.82620  1.0000
  H   H1443     1.0  0.21319  0.84544  0.82526  1.0000
  H   H1444     1.0  0.32427  0.84955  0.88401  1.0000
  H   H1445     1.0  0.21028  0.51485  0.94925  1.0000
  Fe  Fe96      1.0  0.01578  0.85259  0.89684  1.0000
  H   H1446     1.0  0.03892  0.93781  0.92475  1.0000
  C   C824      1.0  0.20992  0.65373  0.74576  1.0000
  H   H1447     1.0  0.45875  0.75181  0.86431  1.0000
  H   H1448     1.0  0.43839  0.67675  0.83089  1.0000
  H   H1449     1.0  0.26477  0.82370  0.92035  1.0000
  H   H1450     1.0  0.05281  0.69351  0.95445  1.0000
  H   H1451     1.0  0.34788  0.77120  0.94530  1.0000
  H   H1452     1.0  0.25142  0.64142  0.75838  1.0000
  H   H1453     1.0  0.10914  0.67351  0.96019  1.0000
  C   C825      1.0  0.19931  0.60935  0.87193  1.0000
  H   H1454     1.0  0.27658  0.57707  0.76793  1.0000
  H   H1455     1.0  0.45383  0.65385  0.80065  1.0000
  H   H1456     1.0  0.18791  0.81775  0.75036  1.0000
  H   H1457     1.0  0.37173  0.98768  0.79419  1.0000
  C   C826      1.0  0.28032  0.74842  0.76348  1.0000
  H   H1458     1.0  0.05622  0.79367  0.77699  1.0000
  C   C827      1.0  0.25897  0.71035  0.86463  1.0000
  H   H1459     1.0  0.25920  0.70177  0.87684  1.0000
  H   H1460     1.0  0.12512  0.93720  0.72613  1.0000
  H   H1461     1.0  0.29838  0.61240  0.75875  1.0000
  H   H1462     1.0  0.46679  0.80426  0.90806  1.0000
  H   H1463     1.0  0.06533  0.90004  0.78117  1.0000
  H   H1464     1.0  0.27289  0.55532  0.96107  1.0000
  H   H1465     1.0  0.09175  0.64798  0.94775  1.0000
  H   H1466     1.0  0.31982  0.83979  0.94949  1.0000
  H   H1467     1.0  0.39079  0.86831  0.94147  1.0000
  H   H1468     1.0  0.24600  0.69161  0.85928  1.0000
  H   H1469     1.0  0.51063  0.62069  0.84020  1.0000
  H   H1470     1.0  0.06528  0.67637  0.92586  1.0000
  H   H1471     1.0  0.33878  0.86228  0.93270  1.0000
  C   C828      1.0  0.05227  0.89549  0.79279  1.0000
  H   H1472     1.0  0.36509  0.55808  0.77450  1.0000
  H   H1473     1.0  0.28814  0.73326  0.78654  1.0000
  H   H1474     1.0  0.32540  0.81259  0.91840  1.0000
  H   H1475     1.0  0.15494  0.88404  0.72962  1.0000
  H   H1476     1.0  0.41472  0.98231  0.79774  1.0000
  C   C829      1.0  0.43916  0.80372  0.90908  1.0000
  H   H1477     1.0  0.33081  0.70442  0.77189  1.0000
  N   N47       1.0  0.36830  0.82063  0.94131  1.0000
  H   H1478     1.0  0.19711  0.53496  0.77114  1.0000
  H   H1479     1.0  0.17833  0.91302  0.71584  1.0000
  H   H1480     1.0  0.25540  0.75915  0.76691  1.0000
  H   H1481     1.0  0.48472  0.62078  0.81976  1.0000
  H   H1482     1.0  0.38638  0.00605  0.80969  1.0000
  C   C830      1.0  0.21352  0.81856  0.74444  1.0000
  C   C831      1.0  0.02736  0.74885  0.93512  1.0000
  C   C832      1.0  0.39442  0.67980  0.77774  1.0000
  H   H1483     1.0  0.30430  0.77340  0.77918  1.0000
  S   S192      1.0  0.46111  0.77813  0.79790  1.0000
  C   C833      1.0  0.29954  0.59733  0.73012  1.0000
  C   C834      1.0  0.48409  0.69834  0.84858  1.0000
  H   H1484     1.0  0.29505  0.53487  0.73643  1.0000
  H   H1485     1.0  0.01563  0.93807  0.90864  1.0000
  C   C835      1.0  0.05323  0.70978  0.89789  1.0000
  H   H1486     1.0  0.02885  0.91045  0.79355  1.0000
  C   C836      1.0  0.24605  0.56230  0.96187  1.0000
  H   H1487     1.0  0.16873  0.82018  0.72446  1.0000
  H   H1488     1.0  0.41102  0.52724  0.79026  1.0000
  H   H1489     1.0  0.04956  0.76522  0.93315  1.0000
  C   C837      1.0  0.42691  0.52018  0.78056  1.0000
  H   H1490     1.0  0.13894  0.57265  0.96198  1.0000
  H   H1491     1.0  0.03275  0.85549  0.80857  1.0000
  C   C838      1.0  0.51303  0.64723  0.84199  1.0000
  C   C839      1.0  0.02261  0.84605  0.78544  1.0000
  H   H1492     1.0  0.06188  0.70670  0.87368  1.0000
  H   H1493     1.0  0.02385  0.79270  0.75873  1.0000
  H   H1494     1.0  0.26188  0.65105  0.73824  1.0000
  H   H1495     1.0  0.02460  0.74063  0.94741  1.0000
  H   H1496     1.0  0.34528  0.79253  0.96151  1.0000
  H   H1497     1.0  0.27054  0.53165  0.75405  1.0000
  H   H1498     1.0  0.50912  0.99581  0.81377  1.0000
  C   C840      1.0  0.19313  0.82806  0.71824  1.0000
  H   H1499     1.0  0.23884  0.54932  0.72435  1.0000
  H   H1500     1.0  0.02200  0.72442  0.87981  1.0000
  C   C841      1.0  0.24150  0.53516  0.73545  1.0000
  H   H1501     1.0  0.09008  0.78736  0.71774  1.0000
  C   C842      1.0  0.48040  0.52189  0.76546  1.0000
  H   H1502     1.0  0.36446  0.72386  0.96413  1.0000
  H   H1503     1.0  0.01578  0.81540  0.93959  1.0000
  H   H1504     1.0  0.01561  0.66153  0.94730  1.0000
  H   H1505     1.0  0.73594  0.44333  0.98858  1.0000
  Fe  Fe97      1.0  0.53782  0.12760  0.00360  1.0000
  H   H1506     1.0  0.56501  0.47274  0.20831  1.0000
  N   N48       1.0  0.98861  0.09399  0.04287  1.0000
  H   H1507     1.0  0.61784  0.33374  0.17613  1.0000
  H   H1508     1.0  0.61071  0.29027  0.18168  1.0000
  H   H1509     1.0  0.57757  0.19128  0.99820  1.0000
  Fe  Fe98      1.0  0.55935  0.11345  0.03513  1.0000
  S   S193      1.0  0.59958  0.11781  0.05072  1.0000
  S   S194      1.0  0.56815  0.08628  0.01447  1.0000
  H   H1510     1.0  0.52947  0.28743  0.01312  1.0000
  H   H1511     1.0  0.53860  0.25508  0.99070  1.0000
  H   H1512     1.0  0.73322  0.29367  0.19041  1.0000
  H   H1513     1.0  0.55657  0.25194  0.01616  1.0000
  H   H1514     1.0  0.00269  0.48601  0.05841  1.0000
  H   H1515     1.0  0.63971  0.36849  0.19800  1.0000
  H   H1516     1.0  0.86229  0.39811  0.97193  1.0000
  S   S195      1.0  0.88831  0.48742  0.13986  1.0000
  C   C843      1.0  0.69499  0.42789  0.96925  1.0000
  C   C844      1.0  0.68574  0.33269  0.18052  1.0000
  H   H1517     1.0  0.00058  0.04655  0.05450  1.0000
  Fe  Fe99      1.0  0.56398  0.38081  0.17076  1.0000
  S   S196      1.0  0.56372  0.38124  0.19584  1.0000
  S   S197      1.0  0.60819  0.39877  0.15392  1.0000
  Fe  Fe100     1.0  0.54122  0.33069  0.19760  1.0000
  H   H1518     1.0  0.73323  0.10628  0.00107  1.0000
  H   H1519     1.0  0.98496  0.14235  0.05127  1.0000
  H   H1520     1.0  0.63157  0.07659  0.98425  1.0000
  S   S198      1.0  0.54480  0.32859  0.17238  1.0000
  H   H1521     1.0  0.66938  0.19723  0.99045  1.0000
  C   C845      1.0  0.89829  0.05950  0.04413  1.0000
  H   H1522     1.0  0.66860  0.28191  0.18768  1.0000
  H   H1523     1.0  0.61454  0.12922  0.99508  1.0000
  H   H1524     1.0  0.63929  0.30303  0.16523  1.0000
  H   H1525     1.0  0.89362  0.05196  0.05647  1.0000
  H   H1526     1.0  0.67366  0.35507  0.17510  1.0000
  C   C846      1.0  0.68806  0.47336  0.16105  1.0000
  C   C847      1.0  0.68895  0.45914  0.14741  1.0000
  C   C848      1.0  0.66431  0.43639  0.14538  1.0000
  C   C849      1.0  0.63851  0.42770  0.15691  1.0000
  C   C850      1.0  0.63730  0.44240  0.17041  1.0000
  C   C851      1.0  0.66202  0.46494  0.17249  1.0000
  H   H1527     1.0  0.70882  0.46537  0.13850  1.0000
  H   H1528     1.0  0.66537  0.42530  0.13484  1.0000
  H   H1529     1.0  0.61763  0.43588  0.17935  1.0000
  H   H1530     1.0  0.66125  0.47566  0.18310  1.0000
  C   C852      1.0  0.65806  0.30754  0.18693  1.0000
  C   C853      1.0  0.95609  0.47845  0.14067  1.0000
  N   N49       1.0  0.67775  0.15133  0.00458  1.0000
  H   H1531     1.0  0.95074  0.45227  0.14159  1.0000
  H   H1532     1.0  0.60812  0.21899  0.02057  1.0000
  H   H1533     1.0  0.62337  0.22274  0.03855  1.0000
  H   H1534     1.0  0.78020  0.41312  0.17264  1.0000
  C   C854      1.0  0.93568  0.06138  0.03919  1.0000
  H   H1535     1.0  0.66901  0.20854  0.01929  1.0000
  C   C855      1.0  0.63491  0.09100  0.05058  1.0000
  C   C856      1.0  0.65490  0.08937  0.06259  1.0000
  C   C857      1.0  0.68420  0.06974  0.06242  1.0000
  C   C858      1.0  0.69425  0.05234  0.04998  1.0000
  C   C859      1.0  0.67431  0.05402  0.03794  1.0000
  C   C860      1.0  0.64445  0.07267  0.03837  1.0000
  H   H1536     1.0  0.64775  0.10349  0.07208  1.0000
  H   H1537     1.0  0.69946  0.06883  0.07170  1.0000
  C   C861      1.0  0.67159  0.46730  0.98738  1.0000
  H   H1538     1.0  0.62933  0.07359  0.02908  1.0000
  C   C862      1.0  0.76051  0.40928  0.16524  1.0000
  H   H1539     1.0  0.70042  0.32175  0.17092  1.0000
  C   C863      1.0  0.72941  0.39454  0.17461  1.0000
  C   C864      1.0  0.70312  0.13982  0.01534  1.0000
  C   C865      1.0  0.58540  0.19967  0.98650  1.0000
  H   H1540     1.0  0.69301  0.43788  0.00631  1.0000
  C   C866      1.0  0.69099  0.36078  0.20404  1.0000
  C   C867      1.0  0.62982  0.30877  0.17682  1.0000
  H   H1541     1.0  0.88593  0.08386  0.04147  1.0000
  H   H1542     1.0  0.67617  0.49091  0.99208  1.0000
  C   C868      1.0  0.56056  0.48047  0.15069  1.0000
  C   C869      1.0  0.72435  0.20416  0.96938  1.0000
  H   H1543     1.0  0.74261  0.21524  0.97577  1.0000
  H   H1544     1.0  0.61225  0.10587  0.97112  1.0000
  C   C870      1.0  0.75793  0.11170  0.02063  1.0000
  H   H1545     1.0  0.89923  0.41275  0.97861  1.0000
  H   H1546     1.0  0.63981  0.15252  0.98019  1.0000
  H   H1547     1.0  0.93861  0.06873  0.02683  1.0000
  H   H1548     1.0  0.88694  0.04077  0.03811  1.0000
  C   C871      1.0  0.55836  0.48847  0.18484  1.0000
  H   H1549     1.0  0.71050  0.39230  0.16667  1.0000
  C   C872      1.0  0.01056  0.13345  0.07882  1.0000
  C   C873      1.0  0.64698  0.16220  0.01409  1.0000
  H   H1550     1.0  0.74512  0.09050  0.02758  1.0000
  H   H1551     1.0  0.98992  0.04550  0.09308  1.0000
  H   H1552     1.0  0.79623  0.48409  0.98172  1.0000
  H   H1553     1.0  0.75110  0.14667  0.00157  1.0000
  H   H1554     1.0  0.70991  0.16046  0.02163  1.0000
  H   H1555     1.0  0.97238  0.13153  0.02605  1.0000
  C   C874      1.0  0.52044  0.24610  0.00040  1.0000
  C   C875      1.0  0.74861  0.31289  0.21031  1.0000
  H   H1556     1.0  0.60116  0.18620  0.03591  1.0000
  C   C876      1.0  0.73757  0.36076  0.18337  1.0000
  H   H1557     1.0  0.70287  0.40818  0.97785  1.0000
  H   H1558     1.0  0.73010  0.15455  0.97988  1.0000
  H   H1559     1.0  0.00933  0.47048  0.14079  1.0000
  H   H1560     1.0  0.97042  0.10367  0.07491  1.0000
  H   H1561     1.0  0.73308  0.48713  0.98584  1.0000
  H   H1562     1.0  0.76432  0.26082  0.21169  1.0000
  C   C877      1.0  0.99108  0.11091  0.02690  1.0000
  H   H1563     1.0  0.99230  0.03902  0.02562  1.0000
  H   H1564     1.0  0.77268  0.32113  0.20399  1.0000
  C   C878      1.0  0.65211  0.18873  0.02490  1.0000
  C   C879      1.0  0.79478  0.46330  0.97468  1.0000
  H   H1565     1.0  0.61545  0.23926  0.99179  1.0000
  H   H1566     1.0  0.66203  0.10055  0.00524  1.0000
  S   S199      1.0  0.54726  0.14958  0.97921  1.0000
  C   C880      1.0  0.72212  0.30948  0.19919  1.0000
  H   H1567     1.0  0.75421  0.43373  0.15931  1.0000
  N   N50       1.0  0.70850  0.34156  0.19181  1.0000
  C   C881      1.0  0.60677  0.22680  0.98286  1.0000
  C   C882      1.0  0.53063  0.25990  0.01446  1.0000
  H   H1568     1.0  0.52234  0.21873  0.00225  1.0000
  H   H1569     1.0  0.66376  0.41547  0.99755  1.0000
  H   H1570     1.0  0.61573  0.51153  0.13469  1.0000
  C   C883      1.0  0.98940  0.48872  0.14021  1.0000
  H   H1571     1.0  0.51722  0.23014  0.97201  1.0000
  H   H1572     1.0  0.72046  0.41262  0.18267  1.0000
  H   H1573     1.0  0.89060  0.36897  0.98107  1.0000
  S   S200      1.0  0.77640  0.02623  0.08893  1.0000
  C   C884      1.0  0.61910  0.20511  0.03028  1.0000
  H   H1574     1.0  0.75543  0.36673  0.19131  1.0000
  H   H1575     1.0  0.76293  0.13074  0.02814  1.0000
  S   S201      1.0  0.71882  0.50127  0.16461  1.0000
  H   H1576     1.0  0.77029  0.39281  0.15657  1.0000
  C   C885      1.0  0.70961  0.17270  0.97832  1.0000
  H   H1577     1.0  0.95834  0.51069  0.10824  1.0000
  H   H1578     1.0  0.64737  0.31233  0.19844  1.0000
  H   H1579     1.0  0.70663  0.19614  0.99918  1.0000
  C   C886      1.0  0.63461  0.10095  0.97730  1.0000
  C   C887      1.0  0.88884  0.39217  0.97336  1.0000
  C   C888      1.0  0.55461  0.44483  0.12948  1.0000
  S   S202      1.0  0.53248  0.15721  0.02361  1.0000
  C   C889      1.0  0.91487  0.01801  0.08496  1.0000
  H   H1580     1.0  0.99641  0.15717  0.07729  1.0000
  C   C890      1.0  0.73668  0.12623  0.00829  1.0000
  C   C891      1.0  0.54538  0.47790  0.13568  1.0000
  C   C892      1.0  0.66819  0.12232  0.99675  1.0000
  C   C893      1.0  0.66132  0.38350  0.19969  1.0000
  C   C894      1.0  0.93802  0.03745  0.09069  1.0000
  C   C895      1.0  0.69038  0.18049  0.99361  1.0000
  H   H1581     1.0  0.79748  0.43941  0.98179  1.0000
  H   H1582     1.0  0.53226  0.49617  0.18796  1.0000
  H   H1583     1.0  0.58205  0.44247  0.12688  1.0000
  C   C896      1.0  0.63794  0.12852  0.98740  1.0000
  H   H1584     1.0  0.65681  0.09999  0.96886  1.0000
  H   H1585     1.0  0.78211  0.10254  0.01537  1.0000
  H   H1586     1.0  0.58700  0.47207  0.14932  1.0000
  H   H1587     1.0  0.55854  0.46224  0.18236  1.0000
  N   N51       1.0  0.69779  0.46179  0.97450  1.0000
  H   H1588     1.0  0.68937  0.11378  0.98911  1.0000
  Fe  Fe101     1.0  0.51906  0.06260  0.02283  1.0000
  H   H1589     1.0  0.69208  0.12044  0.02413  1.0000
  C   C897      1.0  0.76185  0.46466  0.96762  1.0000
  H   H1590     1.0  0.99429  0.46406  0.11193  1.0000
  H   H1591     1.0  0.62814  0.17257  0.00669  1.0000
  H   H1592     1.0  0.96045  0.48917  0.06678  1.0000
  H   H1593     1.0  0.66293  0.17686  0.03512  1.0000
  C   C898      1.0  0.57487  0.51124  0.17111  1.0000
  H   H1594     1.0  0.63495  0.14051  0.02113  1.0000
  H   H1595     1.0  0.68205  0.04082  0.02823  1.0000
  H   H1596     1.0  0.70917  0.37622  0.20863  1.0000
  H   H1597     1.0  0.92918  0.05773  0.09706  1.0000
  H   H1598     1.0  0.75168  0.34519  0.17523  1.0000
  C   C899      1.0  0.97252  0.03076  0.08833  1.0000
  H   H1599     1.0  0.01101  0.08399  0.07228  1.0000
  H   H1600     1.0  0.70159  0.29474  0.20587  1.0000
  H   H1601     1.0  0.93731  0.10911  0.04809  1.0000
  C   C900      1.0  0.57399  0.18362  0.97501  1.0000
  C   C901      1.0  0.95260  0.08584  0.04807  1.0000
  C   C902      1.0  0.92971  0.50171  0.13995  1.0000
  C   C903      1.0  0.66933  0.44002  0.00102  1.0000
  H   H1602     1.0  0.54287  0.44328  0.11889  1.0000
  H   H1603     1.0  0.70432  0.22268  0.96699  1.0000
  S   S203      1.0  0.73234  0.02980  0.04846  1.0000
  C   C904      1.0  0.64987  0.40588  0.21202  1.0000
  H   H1604     1.0  0.66798  0.39947  0.18910  1.0000
  C   C905      1.0  0.73166  0.46442  0.97994  1.0000
  C   C906      1.0  0.61672  0.23808  0.96769  1.0000
  S   S204      1.0  0.55651  0.28497  0.21236  1.0000
  H   H1605     1.0  0.94992  0.07395  0.05993  1.0000
  H   H1606     1.0  0.69276  0.16230  0.97106  1.0000
  H   H1607     1.0  0.66412  0.36554  0.97134  1.0000
  H   H1608     1.0  0.64028  0.42166  0.97429  1.0000
  H   H1609     1.0  0.64654  0.47068  0.98324  1.0000
  H   H1610     1.0  0.54809  0.46123  0.15898  1.0000
  H   H1611     1.0  0.62818  0.42118  0.20864  1.0000
  H   H1612     1.0  0.00199  0.46503  0.08318  1.0000
  H   H1613     1.0  0.91223  0.01708  0.13468  1.0000
  C   C907      1.0  0.99669  0.10737  0.07011  1.0000
  H   H1614     1.0  0.55430  0.49774  0.12679  1.0000
  H   H1615     1.0  0.61715  0.44965  0.00858  1.0000
  H   H1616     1.0  0.98446  0.09393  0.01881  1.0000
  C   C908      1.0  0.57692  0.48982  0.19880  1.0000
  C   C909      1.0  0.99942  0.11870  0.05289  1.0000
  C   C910      1.0  0.64169  0.44818  0.01319  1.0000
  H   H1617     1.0  0.64655  0.47214  0.01748  1.0000
  H   H1618     1.0  0.94620  0.03605  0.04160  1.0000
  S   S205      1.0  0.87178  0.02831  0.08797  1.0000
  H   H1619     1.0  0.64061  0.42841  0.02284  1.0000
  H   H1620     1.0  0.67015  0.42279  0.21359  1.0000
  H   H1621     1.0  0.60331  0.48193  0.19649  1.0000
  S   S206      1.0  0.79556  0.50640  0.12911  1.0000
  H   H1622     1.0  0.54571  0.42374  0.13779  1.0000
  H   H1623     1.0  0.60069  0.50155  0.16904  1.0000
  H   H1624     1.0  0.95147  0.48305  0.09497  1.0000
  H   H1625     1.0  0.00843  0.12455  0.09109  1.0000
  C   C911      1.0  0.01041  0.06325  0.04442  1.0000
  H   H1626     1.0  0.51780  0.47912  0.13770  1.0000
  H   H1627     1.0  0.00930  0.14987  0.99973  1.0000
  H   H1628     1.0  0.89091  0.49990  0.10277  1.0000
  H   H1629     1.0  0.96561  0.50262  0.03886  1.0000
  C   C912      1.0  0.98205  0.50374  0.06116  1.0000
  H   H1630     1.0  0.68088  0.34362  0.21390  1.0000
  H   H1631     1.0  0.81583  0.46542  0.96554  1.0000
  C   C913      1.0  0.95870  0.50907  0.09584  1.0000
  H   H1632     1.0  0.62420  0.01721  0.00801  1.0000
  C   C914      1.0  0.01378  0.48411  0.08885  1.0000
  Fe  Fe102     1.0  0.95636  0.37646  0.33294  1.0000
  S   S207      1.0  0.97977  0.32727  0.34071  1.0000
  S   S208      1.0  0.98580  0.42326  0.33469  1.0000
  Fe  Fe103     1.0  0.89631  0.34224  0.32400  1.0000
  S   S209      1.0  0.91435  0.29084  0.33120  1.0000
  S   S210      1.0  0.84690  0.35102  0.31471  1.0000
  Fe  Fe104     1.0  0.92842  0.31325  0.35150  1.0000
  S   S211      1.0  0.92059  0.28609  0.37512  1.0000
  Fe  Fe105     1.0  0.96391  0.30852  0.31981  1.0000
  S   S212      1.0  0.90624  0.36351  0.34533  1.0000
  S   S213      1.0  0.94472  0.35886  0.31105  1.0000
  Fe  Fe106     1.0  0.68179  0.19822  0.29805  1.0000
  S   S214      1.0  0.70796  0.24559  0.28937  1.0000
  S   S215      1.0  0.64836  0.19458  0.32035  1.0000
  Fe  Fe107     1.0  0.71467  0.16106  0.27200  1.0000
  S   S216      1.0  0.74197  0.20660  0.26108  1.0000
  S   S217      1.0  0.72406  0.11399  0.26007  1.0000
  Fe  Fe108     1.0  0.75306  0.21354  0.28457  1.0000
  S   S218      1.0  0.80660  0.22133  0.28839  1.0000
  Fe  Fe109     1.0  0.69439  0.23481  0.26659  1.0000
  S   S219      1.0  0.67825  0.28054  0.25197  1.0000
  S   S220      1.0  0.72837  0.16655  0.29527  1.0000
  S   S221      1.0  0.66546  0.18883  0.27553  1.0000
  H   H1633     1.0  0.92085  0.17895  0.38337  1.0000
  H   H1634     1.0  0.74040  0.33093  0.21850  1.0000
  H   H1635     1.0  0.52617  0.45972  0.42263  1.0000
  S   S222      1.0  0.60381  0.35157  0.39434  1.0000
  Fe  Fe110     1.0  0.75933  0.19598  0.41238  1.0000
  S   S223      1.0  0.74229  0.23368  0.42843  1.0000
  S   S224      1.0  0.78157  0.21384  0.38859  1.0000
  Fe  Fe111     1.0  0.73015  0.13700  0.43376  1.0000
  S   S225      1.0  0.71784  0.08287  0.44139  1.0000
  Fe  Fe112     1.0  0.69502  0.20451  0.43231  1.0000
  S   S226      1.0  0.64156  0.22175  0.43481  1.0000
  S   S227      1.0  0.71021  0.16972  0.41488  1.0000
  S   S228      1.0  0.78121  0.15995  0.42978  1.0000
  C   C915      1.0  0.61423  0.31643  0.40621  1.0000
  C   C916      1.0  0.59020  0.29256  0.41150  1.0000
  C   C917      1.0  0.59880  0.26391  0.42053  1.0000
  C   C918      1.0  0.63164  0.25851  0.42393  1.0000
  C   C919      1.0  0.65569  0.28247  0.41876  1.0000
  C   C920      1.0  0.64679  0.31177  0.41014  1.0000
  H   H1636     1.0  0.56482  0.29631  0.40882  1.0000
  H   H1637     1.0  0.54145  0.31529  0.29825  1.0000
  H   H1638     1.0  0.68098  0.27859  0.42155  1.0000
  H   H1639     1.0  0.66530  0.33042  0.40621  1.0000
  C   C921      1.0  0.64458  0.28096  0.24092  1.0000
  C   C922      1.0  0.63333  0.31151  0.23426  1.0000
  C   C923      1.0  0.62861  0.25194  0.23880  1.0000
  H   H1640     1.0  0.95320  0.23406  0.44516  1.0000
  H   H1641     1.0  0.63707  0.22826  0.24391  1.0000
  C   C924      1.0  0.62101  0.22801  0.32424  1.0000
  C   C925      1.0  0.60230  0.22749  0.33847  1.0000
  C   C926      1.0  0.58007  0.25369  0.34178  1.0000
  C   C927      1.0  0.57558  0.28009  0.33071  1.0000
  C   C928      1.0  0.59484  0.28081  0.31664  1.0000
  C   C929      1.0  0.61758  0.25507  0.31342  1.0000
  H   H1642     1.0  0.60499  0.20671  0.34692  1.0000
  H   H1643     1.0  0.56592  0.25308  0.35273  1.0000
  C   C930      1.0  0.89061  0.32213  0.42190  1.0000
  H   H1644     1.0  0.63219  0.25595  0.30250  1.0000
  C   C931      1.0  0.83612  0.31779  0.30512  1.0000
  C   C932      1.0  0.80275  0.31296  0.30300  1.0000
  C   C933      1.0  0.79343  0.28411  0.29713  1.0000
  C   C934      1.0  0.81755  0.26027  0.29325  1.0000
  C   C935      1.0  0.85116  0.26646  0.29425  1.0000
  C   C936      1.0  0.86042  0.29499  0.30030  1.0000
  H   H1645     1.0  0.78392  0.33077  0.30652  1.0000
  H   H1646     1.0  0.76752  0.27988  0.29612  1.0000
  H   H1647     1.0  0.86999  0.24859  0.29085  1.0000
  H   H1648     1.0  0.88634  0.29902  0.30145  1.0000
  C   C937      1.0  0.97420  0.46602  0.33336  1.0000
  C   C938      1.0  0.94106  0.47685  0.33323  1.0000
  H   H1649     1.0  0.52277  0.49760  0.39102  1.0000
  C   C939      1.0  0.57794  0.29208  0.27433  1.0000
  H   H1650     1.0  0.92151  0.45896  0.33358  1.0000
  C   C940      1.0  0.82344  0.12311  0.30279  1.0000
  C   C941      1.0  0.81923  0.23581  0.38629  1.0000
  C   C942      1.0  0.82347  0.26290  0.37515  1.0000
  C   C943      1.0  0.85441  0.27851  0.37174  1.0000
  C   C944      1.0  0.88133  0.26733  0.37958  1.0000
  C   C945      1.0  0.87699  0.24064  0.39096  1.0000
  C   C946      1.0  0.84601  0.22493  0.39433  1.0000
  H   H1651     1.0  0.80273  0.27181  0.36909  1.0000
  H   H1652     1.0  0.85743  0.29917  0.36300  1.0000
  H   H1653     1.0  0.89788  0.23125  0.39679  1.0000
  H   H1654     1.0  0.84313  0.20362  0.40272  1.0000
  C   C947      1.0  0.56332  0.44710  0.38722  1.0000
  H   H1655     1.0  0.82372  0.31987  0.44804  1.0000
  C   C948      1.0  0.76066  0.05664  0.25694  1.0000
  C   C949      1.0  0.74820  0.07964  0.26694  1.0000
  C   C950      1.0  0.75379  0.07381  0.28218  1.0000
  H   H1656     1.0  0.54812  0.39483  0.40958  1.0000
  C   C951      1.0  0.57770  0.22904  0.27690  1.0000
  H   H1657     1.0  0.74424  0.09122  0.29001  1.0000
  H   H1658     1.0  0.58001  0.24576  0.42480  1.0000
  H   H1659     1.0  0.95844  0.17104  0.26395  1.0000
  H   H1660     1.0  0.79454  0.26766  0.44594  1.0000
  H   H1661     1.0  0.00786  0.39459  0.38395  1.0000
  H   H1662     1.0  0.97841  0.47314  0.23482  1.0000
  H   H1663     1.0  0.61853  0.14844  0.43664  1.0000
  C   C952      1.0  0.68978  0.05925  0.43309  1.0000
  C   C953      1.0  0.68530  0.06468  0.41771  1.0000
  C   C954      1.0  0.66498  0.04334  0.41133  1.0000
  H   H1664     1.0  0.62046  0.18950  0.38747  1.0000
  H   H1665     1.0  0.69818  0.08475  0.41066  1.0000
  H   H1666     1.0  0.66209  0.04732  0.39936  1.0000
  C   C955      1.0  0.98377  0.24188  0.39992  1.0000
  H   H1667     1.0  0.86879  0.42824  0.35277  1.0000
  C   C956      1.0  0.77089  0.04487  0.28741  1.0000
  H   H1668     1.0  0.95481  0.50280  0.30073  1.0000
  H   H1669     1.0  0.58484  0.22791  0.26461  1.0000
  H   H1670     1.0  0.60054  0.22840  0.28284  1.0000
  C   C957      1.0  0.68028  0.02040  0.23352  1.0000
  C   C958      1.0  0.98941  0.02868  0.24939  1.0000
  C   C959      1.0  0.95610  0.39284  0.37791  1.0000
  H   H1671     1.0  0.90819  0.47418  0.30548  1.0000
  H   H1672     1.0  0.91440  0.47497  0.27802  1.0000
  H   H1673     1.0  0.87728  0.13853  0.28189  1.0000
  H   H1674     1.0  0.98383  0.22925  0.32864  1.0000
  H   H1675     1.0  0.57296  0.37598  0.27706  1.0000
  H   H1676     1.0  0.91746  0.43831  0.42801  1.0000
  H   H1677     1.0  0.83559  0.41645  0.36732  1.0000
  H   H1678     1.0  0.56122  0.17118  0.38630  1.0000
  H   H1679     1.0  0.91654  0.28439  0.46481  1.0000
  H   H1680     1.0  0.54314  0.17550  0.35725  1.0000
  H   H1681     1.0  0.83530  0.11142  0.31272  1.0000
  H   H1682     1.0  0.55831  0.06861  0.41442  1.0000
  H   H1683     1.0  0.79813  0.37308  0.46142  1.0000
  H   H1684     1.0  0.89060  0.04605  0.25003  1.0000
  H   H1685     1.0  0.58456  0.46952  0.42099  1.0000
  H   H1686     1.0  0.58242  0.12823  0.35659  1.0000
  H   H1687     1.0  0.89247  0.30583  0.44536  1.0000
  C   C960      1.0  0.52203  0.31446  0.25398  1.0000
  H   H1688     1.0  0.79605  0.12009  0.30511  1.0000
  H   H1689     1.0  0.75694  0.06138  0.24509  1.0000
  H   H1690     1.0  0.93422  0.10090  0.25508  1.0000
  H   H1691     1.0  0.54124  0.12618  0.37960  1.0000
  H   H1692     1.0  0.57411  0.42186  0.38942  1.0000
  C   C961      1.0  0.94669  0.12133  0.27481  1.0000
  C   C962      1.0  0.56688  0.10495  0.43468  1.0000
  H   H1693     1.0  0.59237  0.30153  0.30824  1.0000
  H   H1694     1.0  0.87651  0.25590  0.42424  1.0000
  H   H1695     1.0  0.89105  0.47409  0.42441  1.0000
  C   C963      1.0  0.91425  0.45062  0.30045  1.0000
  C   C964      1.0  0.85436  0.06704  0.23591  1.0000
  C   C965      1.0  0.97948  0.47372  0.26601  1.0000
  H   H1696     1.0  0.95415  0.41833  0.40506  1.0000
  C   C966      1.0  0.59035  0.46706  0.40868  1.0000
  Fe  Fe113     1.0  0.52713  0.32432  0.35741  1.0000
  C   C967      1.0  0.59689  0.44362  0.36149  1.0000
  H   H1697     1.0  0.66301  0.42101  0.41519  1.0000
  S   S229      1.0  0.99607  0.28007  0.30286  1.0000
  C   C968      1.0  0.75521  0.27966  0.21938  1.0000
  H   H1698     1.0  0.56931  0.33753  0.25043  1.0000
  H   H1699     1.0  0.90240  0.24282  0.46399  1.0000
  H   H1700     1.0  0.67591  0.02914  0.45398  1.0000
  C   C969      1.0  0.54500  0.49892  0.39726  1.0000
  H   H1701     1.0  0.61757  0.14116  0.41706  1.0000
  H   H1702     1.0  0.97926  0.37266  0.39828  1.0000
  H   H1703     1.0  0.53470  0.25989  0.27350  1.0000
  C   C970      1.0  0.90022  0.45043  0.42014  1.0000
  H   H1704     1.0  0.61025  0.42134  0.36631  1.0000
  H   H1705     1.0  0.57534  0.43585  0.35604  1.0000
  H   H1706     1.0  0.61414  0.45745  0.35263  1.0000
  H   H1707     1.0  0.60368  0.49023  0.40395  1.0000
  H   H1708     1.0  0.65152  0.06065  0.24303  1.0000
  H   H1709     1.0  0.86515  0.04014  0.29481  1.0000
  H   H1710     1.0  0.90688  0.20507  0.42232  1.0000
  C   C971      1.0  0.55451  0.20835  0.40162  1.0000
  H   H1711     1.0  0.99018  0.24715  0.42305  1.0000
  C   C972      1.0  0.97431  0.45005  0.37751  1.0000
  H   H1712     1.0  0.51691  0.36853  0.43246  1.0000
  H   H1713     1.0  0.86522  0.05480  0.22592  1.0000
  H   H1714     1.0  0.60555  0.41370  0.40990  1.0000
  H   H1715     1.0  0.87352  0.25257  0.44415  1.0000
  H   H1716     1.0  0.85498  0.19376  0.45000  1.0000
  H   H1717     1.0  0.58058  0.04476  0.45054  1.0000
  H   H1718     1.0  0.83410  0.05124  0.24198  1.0000
  H   H1719     1.0  0.53824  0.36239  0.25912  1.0000
  H   H1720     1.0  0.91089  0.13748  0.25880  1.0000
  N   N52       1.0  0.89115  0.09288  0.27182  1.0000
  H   H1721     1.0  0.56123  0.12251  0.44345  1.0000
  H   H1722     1.0  0.85868  0.11460  0.25562  1.0000
  H   H1723     1.0  0.63016  0.32921  0.26644  1.0000
  C   C973      1.0  0.00428  0.23682  0.30531  1.0000
  H   H1724     1.0  0.98407  0.13816  0.25631  1.0000
  H   H1725     1.0  0.91006  0.46420  0.37247  1.0000
  H   H1726     1.0  0.93531  0.13110  0.28532  1.0000
  H   H1727     1.0  0.61268  0.36420  0.25570  1.0000
  H   H1728     1.0  0.62811  0.43936  0.39506  1.0000
  H   H1729     1.0  0.89973  0.46954  0.39688  1.0000
  C   C974      1.0  0.78283  0.02162  0.27747  1.0000
  N   N53       1.0  0.54505  0.07476  0.43828  1.0000
  Fe  Fe114     1.0  0.76104  0.19616  0.44606  1.0000
  H   H1730     1.0  0.56084  0.41079  0.42618  1.0000
  C   C975      1.0  0.64174  0.37636  0.27295  1.0000
  C   C976      1.0  0.90962  0.30483  0.43489  1.0000
  C   C977      1.0  0.94208  0.26963  0.41808  1.0000
  C   C978      1.0  0.96935  0.24225  0.41644  1.0000
  H   H1731     1.0  0.63074  0.40159  0.27363  1.0000
  H   H1732     1.0  0.73218  0.27054  0.22637  1.0000
  C   C979      1.0  0.82697  0.14663  0.35209  1.0000
  H   H1733     1.0  0.92563  0.26870  0.40892  1.0000
  H   H1734     1.0  0.95579  0.29339  0.41518  1.0000
  H   H1735     1.0  0.99052  0.15126  0.27442  1.0000
  H   H1736     1.0  0.95988  0.21723  0.42054  1.0000
  H   H1737     1.0  0.00352  0.22245  0.39902  1.0000
  H   H1738     1.0  0.59807  0.33679  0.22028  1.0000
  C   C980      1.0  0.99920  0.48981  0.33279  1.0000
  H   H1739     1.0  0.59072  0.34549  0.28974  1.0000
  N   N54       1.0  0.68519  0.25732  0.36004  1.0000
  C   C981      1.0  0.65920  0.23913  0.37110  1.0000
  C   C982      1.0  0.66856  0.28585  0.35128  1.0000
  C   C983      1.0  0.69869  0.23352  0.34887  1.0000
  C   C984      1.0  0.71392  0.26917  0.36757  1.0000
  C   C985      1.0  0.70575  0.27938  0.38384  1.0000
  C   C986      1.0  0.67053  0.20510  0.37864  1.0000
  C   C987      1.0  0.72167  0.24847  0.33490  1.0000
  C   C988      1.0  0.65122  0.31274  0.36058  1.0000
  C   C989      1.0  0.63150  0.33733  0.35068  1.0000
  C   C990      1.0  0.73423  0.29839  0.38873  1.0000
  C   C991      1.0  0.64512  0.19178  0.39161  1.0000
  C   C992      1.0  0.74066  0.22116  0.32688  1.0000
  H   H1740     1.0  0.63694  0.23451  0.36529  1.0000
  H   H1741     1.0  0.64954  0.25431  0.38027  1.0000
  H   H1742     1.0  0.68695  0.29946  0.34283  1.0000
  H   H1743     1.0  0.64982  0.27614  0.34461  1.0000
  H   H1744     1.0  0.67788  0.22120  0.34450  1.0000
  H   H1745     1.0  0.71328  0.21320  0.35462  1.0000
  H   H1746     1.0  0.73375  0.24967  0.36848  1.0000
  H   H1747     1.0  0.72630  0.29042  0.36037  1.0000
  H   H1748     1.0  0.70125  0.25706  0.39210  1.0000
  H   H1749     1.0  0.68328  0.29524  0.38479  1.0000
  H   H1750     1.0  0.67280  0.18652  0.37029  1.0000
  H   H1751     1.0  0.69504  0.20682  0.38303  1.0000
  H   H1752     1.0  0.74002  0.26552  0.33818  1.0000
  H   H1753     1.0  0.70653  0.26245  0.32660  1.0000
  H   H1754     1.0  0.63346  0.30202  0.37006  1.0000
  H   H1755     1.0  0.67018  0.32724  0.36505  1.0000
  H   H1756     1.0  0.62054  0.35704  0.35749  1.0000
  H   H1757     1.0  0.64789  0.34913  0.34089  1.0000
  H   H1758     1.0  0.61086  0.32463  0.34647  1.0000
  H   H1759     1.0  0.72738  0.30523  0.40039  1.0000
  H   H1760     1.0  0.75710  0.28277  0.38882  1.0000
  H   H1761     1.0  0.73933  0.32145  0.38102  1.0000
  H   H1762     1.0  0.65330  0.16682  0.39626  1.0000
  H   H1763     1.0  0.64295  0.20835  0.40082  1.0000
  H   H1764     1.0  0.75740  0.20717  0.33445  1.0000
  H   H1765     1.0  0.72296  0.20372  0.32335  1.0000
  H   H1766     1.0  0.75605  0.23223  0.31664  1.0000
  H   H1767     1.0  0.56279  0.20681  0.28134  1.0000
  H   H1768     1.0  0.92051  0.06283  0.28716  1.0000
  H   H1769     1.0  0.96269  0.39275  0.36545  1.0000
  H   H1770     1.0  0.93572  0.37465  0.38098  1.0000
  C   C993      1.0  0.62413  0.13014  0.42827  1.0000
  H   H1771     1.0  0.72783  0.02850  0.22108  1.0000
  C   C994      1.0  0.55542  0.05626  0.45268  1.0000
  H   H1772     1.0  0.91424  0.20056  0.44208  1.0000
  H   H1773     1.0  0.58922  0.23101  0.22843  1.0000
  N   N55       1.0  0.87811  0.18332  0.34192  1.0000
  C   C995      1.0  0.85552  0.15577  0.33935  1.0000
  C   C996      1.0  0.90460  0.18968  0.32860  1.0000
  C   C997      1.0  0.89532  0.17197  0.35583  1.0000
  C   C998      1.0  0.85874  0.21459  0.34495  1.0000
  C   C999      1.0  0.83796  0.22964  0.33232  1.0000
  C   C1000     1.0  0.92403  0.19419  0.35909  1.0000
  C   C1001     1.0  0.89482  0.18533  0.31256  1.0000
  C   C1002     1.0  0.92211  0.19803  0.30024  1.0000
  C   C1003     1.0  0.81460  0.25701  0.33773  1.0000
  C   C1004     1.0  0.93957  0.17981  0.37327  1.0000
  H   H1774     1.0  0.87059  0.13286  0.33755  1.0000
  H   H1775     1.0  0.84338  0.16172  0.32882  1.0000
  H   H1776     1.0  0.91486  0.21504  0.32830  1.0000
  H   H1777     1.0  0.92620  0.17232  0.32995  1.0000
  H   H1778     1.0  0.90591  0.14648  0.35501  1.0000
  H   H1779     1.0  0.87718  0.17036  0.36619  1.0000
  H   H1780     1.0  0.84225  0.21077  0.35577  1.0000
  H   H1781     1.0  0.87573  0.23451  0.34678  1.0000
  H   H1782     1.0  0.82240  0.21111  0.32823  1.0000
  H   H1783     1.0  0.85510  0.24097  0.32280  1.0000
  H   H1784     1.0  0.91491  0.21953  0.36098  1.0000
  H   H1785     1.0  0.94427  0.19624  0.34963  1.0000
  H   H1786     1.0  0.89146  0.15861  0.31149  1.0000
  H   H1787     1.0  0.87137  0.19849  0.31018  1.0000
  H   H1788     1.0  0.92659  0.22481  0.30076  1.0000
  H   H1789     1.0  0.94573  0.18392  0.30156  1.0000
  H   H1790     1.0  0.91435  0.19496  0.28891  1.0000
  H   H1791     1.0  0.82895  0.27748  0.34115  1.0000
  H   H1792     1.0  0.80022  0.26733  0.32841  1.0000
  H   H1793     1.0  0.79664  0.24684  0.34728  1.0000
  H   H1794     1.0  0.94964  0.15444  0.37193  1.0000
  H   H1795     1.0  0.86842  0.16520  0.43641  1.0000
  H   H1796     1.0  0.64843  0.36612  0.28430  1.0000
  H   H1797     1.0  0.56164  0.11888  0.42374  1.0000
  H   H1798     1.0  0.53395  0.29071  0.25101  1.0000
  H   H1799     1.0  0.65733  0.46543  0.41396  1.0000
  N   N56       1.0  0.55841  0.46439  0.40148  1.0000
  H   H1800     1.0  0.88630  0.10462  0.29516  1.0000
  H   H1801     1.0  0.85253  0.45757  0.36570  1.0000
  N   N57       1.0  0.96626  0.47168  0.28257  1.0000
  H   H1802     1.0  0.53544  0.21772  0.37278  1.0000
  C   C1005     1.0  0.95975  0.02271  0.24338  1.0000
  C   C1006     1.0  0.56017  0.11218  0.35782  1.0000
  C   C1007     1.0  0.77783  0.02769  0.26217  1.0000
  C   C1008     1.0  0.99770  0.34495  0.38003  1.0000
  C   C1009     1.0  0.55717  0.26041  0.27955  1.0000
  C   C1010     1.0  0.92450  0.25903  0.46233  1.0000
  C   C1011     1.0  0.64891  0.01656  0.42028  1.0000
  H   H1803     1.0  0.99023  0.44225  0.36744  1.0000
  C   C1012     1.0  0.61651  0.43852  0.40693  1.0000
  C   C1013     1.0  0.91803  0.45748  0.40416  1.0000
  H   H1804     1.0  0.88788  0.39154  0.37466  1.0000
  C   C1014     1.0  0.58429  0.35068  0.27789  1.0000
  C   C1015     1.0  0.96703  0.48751  0.37332  1.0000
  H   H1805     1.0  0.91487  0.40507  0.40131  1.0000
  S   S230      1.0  0.71202  0.17044  0.45139  1.0000
  C   C1016     1.0  0.53216  0.12603  0.36837  1.0000
  H   H1806     1.0  0.96400  0.23633  0.39286  1.0000
  S   S231      1.0  0.54386  0.29371  0.37763  1.0000
  H   H1807     1.0  0.57032  0.48663  0.36837  1.0000
  H   H1808     1.0  0.84504  0.20199  0.43069  1.0000
  H   H1809     1.0  0.97863  0.42199  0.29232  1.0000
  H   H1810     1.0  0.98456  0.45371  0.30387  1.0000
  H   H1811     1.0  0.86168  0.02873  0.27601  1.0000
  C   C1017     1.0  0.53992  0.18376  0.39234  1.0000
  C   C1018     1.0  0.54055  0.41063  0.41875  1.0000
  H   H1812     1.0  0.56982  0.22712  0.39413  1.0000
  H   H1813     1.0  0.84466  0.07615  0.26508  1.0000
  C   C1019     1.0  0.52035  0.03292  0.42206  1.0000
  H   H1814     1.0  0.59844  0.29044  0.28181  1.0000
  H   H1815     1.0  0.56744  0.08694  0.36258  1.0000
  H   H1816     1.0  0.82244  0.11861  0.27920  1.0000
  H   H1817     1.0  0.99057  0.44800  0.38689  1.0000
  C   C1020     1.0  0.93154  0.45772  0.28406  1.0000
  H   H1818     1.0  0.83696  0.13706  0.36284  1.0000
  C   C1021     1.0  0.80789  0.27000  0.45564  1.0000
  H   H1819     1.0  0.79297  0.12861  0.33747  1.0000
  C   C1022     1.0  0.52056  0.16088  0.36179  1.0000
  H   H1820     1.0  0.93193  0.43416  0.27861  1.0000
  H   H1821     1.0  0.61331  0.08808  0.44435  1.0000
  C   C1023     1.0  0.87419  0.11118  0.28458  1.0000
  C   C1024     1.0  0.92017  0.11354  0.26430  1.0000
  C   C1025     1.0  0.88137  0.07122  0.24628  1.0000
  C   C1026     1.0  0.93315  0.42534  0.39822  1.0000
  C   C1027     1.0  0.64450  0.44133  0.41693  1.0000
  H   H1822     1.0  0.65129  0.12473  0.42741  1.0000
  C   C1028     1.0  0.86752  0.08954  0.26005  1.0000
  C   C1029     1.0  0.80506  0.11967  0.34779  1.0000
  H   H1823     1.0  0.90584  0.32294  0.41076  1.0000
  H   H1824     1.0  0.82003  0.09694  0.34573  1.0000
  H   H1825     1.0  0.96042  0.19571  0.37512  1.0000
  H   H1826     1.0  0.64529  0.33401  0.23613  1.0000
  H   H1827     1.0  0.93827  0.47510  0.40485  1.0000
  N   N58       1.0  0.92137  0.26962  0.43325  1.0000
  H   H1828     1.0  0.93109  0.32071  0.43616  1.0000
  C   C1030     1.0  0.60497  0.09816  0.43331  1.0000
  C   C1031     1.0  0.60655  0.31314  0.22536  1.0000
  H   H1829     1.0  0.94737  0.04280  0.23716  1.0000
  S   S232      1.0  0.54513  0.31166  0.33366  1.0000
  H   H1830     1.0  0.86479  0.35846  0.43549  1.0000
  C   C1032     1.0  0.94237  0.25923  0.44602  1.0000
  H   H1831     1.0  0.90411  0.37210  0.42560  1.0000
  C   C1033     1.0  0.88410  0.41839  0.37558  1.0000
  H   H1832     1.0  0.94853  0.49803  0.38157  1.0000
  S   S233      1.0  0.54257  0.37313  0.36419  1.0000
  H   H1833     1.0  0.99477  0.26624  0.39542  1.0000
  H   H1834     1.0  0.97692  0.32707  0.38152  1.0000
  C   C1034     1.0  0.59061  0.28410  0.22319  1.0000
  C   C1035     1.0  0.85880  0.43103  0.36466  1.0000
  H   H1835     1.0  0.66493  0.37827  0.26502  1.0000
  C   C1036     1.0  0.60157  0.25356  0.23003  1.0000
  H   H1836     1.0  0.86805  0.36987  0.41535  1.0000
  H   H1837     1.0  0.81054  0.16837  0.35415  1.0000
  H   H1838     1.0  0.61196  0.08028  0.42492  1.0000
  H   H1839     1.0  0.54291  0.02017  0.40006  1.0000
  C   C1037     1.0  0.91715  0.43778  0.37186  1.0000
  H   H1840     1.0  0.92240  0.04934  0.26899  1.0000
  C   C1038     1.0  0.88139  0.35784  0.42477  1.0000
  S   S234      1.0  0.00543  0.06888  0.24757  1.0000
  C   C1039     1.0  0.98743  0.44797  0.29193  1.0000
  C   C1040     1.0  0.53259  0.02802  0.46039  1.0000
  H   H1841     1.0  0.88614  0.40810  0.29597  1.0000
  H   H1842     1.0  0.96422  0.27587  0.44515  1.0000
  C   C1041     1.0  0.86432  0.19185  0.43796  1.0000
  H   H1843     1.0  0.60722  0.47692  0.37755  1.0000
  H   H1844     1.0  0.78520  0.11322  0.35718  1.0000
  C   C1042     1.0  0.89694  0.21061  0.43386  1.0000
  C   C1043     1.0  0.51801  0.20187  0.38075  1.0000
  Fe  Fe115     1.0  0.55562  0.34258  0.38513  1.0000
  C   C1044     1.0  0.90495  0.05978  0.27786  1.0000
  H   H1845     1.0  0.86973  0.42749  0.31243  1.0000
  H   H1846     1.0  0.86706  0.30920  0.42112  1.0000
  H   H1847     1.0  0.82926  0.08027  0.29056  1.0000
  C   C1045     1.0  0.89095  0.24838  0.43400  1.0000
  H   H1848     1.0  0.98009  0.44847  0.26211  1.0000
  H   H1849     1.0  0.68745  0.04797  0.25261  1.0000
  H   H1850     1.0  0.90179  0.08533  0.23935  1.0000
  H   H1851     1.0  0.84379  0.09153  0.23187  1.0000
  H   H1852     1.0  0.54921  0.25918  0.29191  1.0000
  H   H1853     1.0  0.55752  0.07388  0.46130  1.0000
  C   C1046     1.0  0.83606  0.10671  0.28858  1.0000
  H   H1854     1.0  0.57181  0.03580  0.42689  1.0000
  N   N59       1.0  0.55992  0.32531  0.27463  1.0000
  C   C1047     1.0  0.97136  0.14707  0.26681  1.0000
  H   H1855     1.0  0.77461  0.04038  0.29928  1.0000
  C   C1048     1.0  0.61741  0.35354  0.26725  1.0000
  H   H1856     1.0  0.63449  0.43901  0.42907  1.0000
  H   H1857     1.0  0.96124  0.09854  0.27802  1.0000
  H   H1858     1.0  0.82873  0.15010  0.30111  1.0000
  H   H1859     1.0  0.86400  0.44740  0.29384  1.0000
  H   H1860     1.0  0.53882  0.44261  0.38319  1.0000
  H   H1861     1.0  0.69245  0.07239  0.23437  1.0000
  N   N60       1.0  0.94479  0.42723  0.38154  1.0000
  C   C1049     1.0  0.55047  0.05333  0.42529  1.0000
  C   C1050     1.0  0.58506  0.46602  0.37374  1.0000
  H   H1862     1.0  0.93004  0.43506  0.30789  1.0000
  C   C1051     1.0  0.88156  0.43235  0.30061  1.0000
  C   C1052     1.0  0.98621  0.37781  0.38590  1.0000
  C   C1053     1.0  0.82444  0.29954  0.45687  1.0000
  H   H1863     1.0  0.59044  0.28944  0.26279  1.0000
  H   H1864     1.0  0.53434  0.22132  0.40827  1.0000
  C   C1054     1.0  0.54805  0.33649  0.25944  1.0000
  H   H1865     1.0  0.87270  0.42162  0.38721  1.0000
  H   H1866     1.0  0.55189  0.11048  0.34646  1.0000
  C   C1055     1.0  0.67301  0.03299  0.44207  1.0000
  H   H1867     1.0  0.92611  0.43590  0.35975  1.0000
  C   C1056     1.0  0.96018  0.49708  0.25496  1.0000
  H   H1868     1.0  0.77440  0.28272  0.22713  1.0000
  C   C1057     1.0  0.87924  0.03294  0.28430  1.0000
  H   H1869     1.0  0.64216  0.39082  0.22290  1.0000
  H   H1870     1.0  0.00280  0.50812  0.23807  1.0000
  H   H1871     1.0  0.00718  0.34904  0.36785  1.0000
  H   H1872     1.0  0.57064  0.19497  0.40966  1.0000
  H   H1873     1.0  0.52569  0.16554  0.40051  1.0000
  H   H1874     1.0  0.87847  0.43423  0.42008  1.0000
  H   H1875     1.0  0.93446  0.48835  0.25472  1.0000
  C   C1058     1.0  0.53204  0.44643  0.41241  1.0000
  H   H1876     1.0  0.00567  0.48201  0.26416  1.0000
  C   C1059     1.0  0.67791  0.05226  0.24134  1.0000
  H   H1877     1.0  0.99860  0.16904  0.33152  1.0000
  H   H1878     1.0  0.52893  0.33839  0.23077  1.0000
  C   C1060     1.0  0.53169  0.32366  0.28725  1.0000
  C   C1061     1.0  0.96390  0.50527  0.28847  1.0000
  C   C1062     1.0  0.99869  0.50794  0.37204  1.0000
  C   C1063     1.0  0.93304  0.51096  0.33305  1.0000
  C   C1064     1.0  0.99604  0.21766  0.31913  1.0000
  H   H1879     1.0  0.52755  0.37561  0.29260  1.0000
  C   C1065     1.0  0.97719  0.49827  0.23877  1.0000
  C   C1066     1.0  0.00448  0.18360  0.32073  1.0000
  H   H1880     1.0  0.66861  0.02549  0.22276  1.0000
  H   H1881     1.0  0.95708  0.49120  0.36217  1.0000
  H   H1882     1.0  0.51590  0.22049  0.34474  1.0000
  H   H1883     1.0  0.00862  0.50705  0.38320  1.0000
  H   H1884     1.0  0.76348  0.40121  0.46535  1.0000
  H   H1885     1.0  0.78248  0.01325  0.22536  1.0000
  Fe  Fe116     1.0  0.88799  0.08141  0.70212  1.0000
  S   S235      1.0  0.89487  0.09471  0.67710  1.0000
  H   H1886     1.0  0.54855  0.02888  0.48295  1.0000
  H   H1887     1.0  0.68172  0.26014  0.47187  1.0000
  S   S236      1.0  0.83974  0.15397  0.68175  1.0000
  H   H1888     1.0  0.85361  0.11192  0.63439  1.0000
  Fe  Fe117     1.0  0.83913  0.09966  0.67842  1.0000
  S   S237      1.0  0.81830  0.07365  0.66007  1.0000
  Fe  Fe118     1.0  0.89536  0.14741  0.68228  1.0000
  S   S238      1.0  0.93508  0.17765  0.66724  1.0000
  S   S239      1.0  0.83235  0.08253  0.70327  1.0000
  H   H1889     1.0  0.70484  0.05260  0.49684  1.0000
  H   H1890     1.0  0.71254  0.06522  0.47682  1.0000
  H   H1891     1.0  0.83685  0.47895  0.49220  1.0000
  H   H1892     1.0  0.90826  0.09018  0.64248  1.0000
  S   S240      1.0  0.71988  0.46613  0.58228  1.0000
  H   H1893     1.0  0.83413  0.45535  0.54110  1.0000
  C   C1067     1.0  0.80805  0.48037  0.51424  1.0000
  S   S241      1.0  0.66952  0.05892  0.64430  1.0000
  H   H1894     1.0  0.54963  0.05795  0.66003  1.0000
  C   C1068     1.0  0.73099  0.15158  0.70138  1.0000
  C   C1069     1.0  0.98467  0.04357  0.64574  1.0000
  H   H1895     1.0  0.55535  0.05359  0.61020  1.0000
  C   C1070     1.0  0.55908  0.08136  0.65352  1.0000
  Fe  Fe119     1.0  0.90663  0.34714  0.52238  1.0000
  S   S242      1.0  0.92396  0.37036  0.49893  1.0000
  S   S243      1.0  0.94176  0.31916  0.53773  1.0000
  Fe  Fe120     1.0  0.83591  0.37636  0.52165  1.0000
  S   S244      1.0  0.84903  0.40167  0.49837  1.0000
  S   S245      1.0  0.78093  0.38360  0.52896  1.0000
  Fe  Fe121     1.0  0.87445  0.35424  0.49294  1.0000
  H   H1896     1.0  0.00974  0.39453  0.57387  1.0000
  Fe  Fe122     1.0  0.89651  0.41540  0.50657  1.0000
  S   S246      1.0  0.91392  0.46777  0.49990  1.0000
  S   S247      1.0  0.85878  0.32746  0.51582  1.0000
  S   S248      1.0  0.88180  0.39366  0.53041  1.0000
  S   S249      1.0  0.86420  0.33934  0.47012  1.0000
  C   C1071     1.0  0.93798  0.48406  0.51253  1.0000
  C   C1072     1.0  0.94322  0.46616  0.52635  1.0000
  C   C1073     1.0  0.96250  0.47958  0.53631  1.0000
  C   C1074     1.0  0.51709  0.07835  0.63450  1.0000
  H   H1897     1.0  0.93274  0.44184  0.52933  1.0000
  H   H1898     1.0  0.96643  0.46562  0.54698  1.0000
  H   H1899     1.0  0.79575  0.46177  0.49366  1.0000
  C   C1075     1.0  0.82619  0.24679  0.47950  1.0000
  C   C1076     1.0  0.84251  0.27640  0.48079  1.0000
  H   H1900     1.0  0.81429  0.14229  0.64858  1.0000
  H   H1901     1.0  0.86883  0.20524  0.62875  1.0000
  H   H1902     1.0  0.86928  0.49818  0.56113  1.0000
  H   H1903     1.0  0.82708  0.22626  0.48825  1.0000
  H   H1904     1.0  0.85616  0.27851  0.49042  1.0000
  C   C1077     1.0  0.79061  0.18992  0.64267  1.0000
  S   S250      1.0  0.54688  0.46729  0.58449  1.0000
  H   H1905     1.0  0.75740  0.15867  0.70132  1.0000
  C   C1078     1.0  0.73680  0.44409  0.56713  1.0000
  C   C1079     1.0  0.71880  0.43972  0.55497  1.0000
  C   C1080     1.0  0.73290  0.42158  0.54323  1.0000
  C   C1081     1.0  0.76517  0.40795  0.54346  1.0000
  C   C1082     1.0  0.78336  0.41267  0.55550  1.0000
  C   C1083     1.0  0.76915  0.43057  0.56732  1.0000
  H   H1906     1.0  0.69384  0.44990  0.55474  1.0000
  H   H1907     1.0  0.71862  0.41792  0.53399  1.0000
  H   H1908     1.0  0.80792  0.40166  0.55594  1.0000
  H   H1909     1.0  0.78308  0.43357  0.57677  1.0000
  C   C1084     1.0  0.98943  0.30165  0.51506  1.0000
  C   C1085     1.0  0.97985  0.30108  0.53061  1.0000
  H   H1910     1.0  0.72428  0.50797  0.54204  1.0000
  H   H1911     1.0  0.97333  0.31323  0.50705  1.0000
  H   H1912     1.0  0.99350  0.28462  0.55288  1.0000
  C   C1086     1.0  0.77645  0.06927  0.65647  1.0000
  C   C1087     1.0  0.75013  0.08690  0.66355  1.0000
  C   C1088     1.0  0.71746  0.08358  0.65973  1.0000
  C   C1089     1.0  0.71068  0.06194  0.64915  1.0000
  C   C1090     1.0  0.73703  0.04432  0.64213  1.0000
  C   C1091     1.0  0.76975  0.04818  0.64569  1.0000
  H   H1913     1.0  0.75500  0.10338  0.67179  1.0000
  H   H1914     1.0  0.69725  0.09761  0.66508  1.0000
  H   H1915     1.0  0.73224  0.02825  0.63370  1.0000
  H   H1916     1.0  0.89984  0.44563  0.55643  1.0000
  C   C1092     1.0  0.98260  0.10078  0.68901  1.0000
  H   H1917     1.0  0.74455  0.04327  0.48654  1.0000
  H   H1918     1.0  0.93805  0.19636  0.69762  1.0000
  C   C1093     1.0  0.89415  0.14227  0.63782  1.0000
  H   H1919     1.0  0.75195  0.20769  0.65878  1.0000
  H   H1920     1.0  0.78243  0.48340  0.54333  1.0000
  H   H1921     1.0  0.79001  0.03482  0.63999  1.0000
  H   H1922     1.0  0.00402  0.43205  0.49110  1.0000
  C   C1094     1.0  0.84798  0.47817  0.54215  1.0000
  C   C1095     1.0  0.71723  0.04533  0.48595  1.0000
  H   H1923     1.0  0.99640  0.20867  0.65439  1.0000
  S   S251      1.0  0.91618  0.04027  0.71444  1.0000
  C   C1096     1.0  0.72791  0.26933  0.48135  1.0000
  H   H1924     1.0  0.79745  0.21547  0.63783  1.0000
  H   H1925     1.0  0.88004  0.44482  0.57553  1.0000
  H   H1926     1.0  0.76689  0.32335  0.47486  1.0000
  H   H1927     1.0  0.56698  0.01679  0.58977  1.0000
  H   H1928     1.0  0.71931  0.16825  0.69269  1.0000
  H   H1929     1.0  0.76371  0.38427  0.49296  1.0000
  H   H1930     1.0  0.90932  0.22686  0.58933  1.0000
  H   H1931     1.0  0.75390  0.09315  0.61554  1.0000
  C   C1097     1.0  0.78558  0.38865  0.46990  1.0000
  H   H1932     1.0  0.52087  0.05854  0.58787  1.0000
  H   H1933     1.0  0.01097  0.46612  0.51210  1.0000
  C   C1098     1.0  0.55441  0.08132  0.63677  1.0000
  H   H1934     1.0  0.00144  0.28030  0.58157  1.0000
  H   H1935     1.0  0.71300  0.22802  0.47025  1.0000
  C   C1099     1.0  0.91999  0.11410  0.63778  1.0000
  H   H1936     1.0  0.79106  0.01715  0.68434  1.0000
  H   H1937     1.0  0.89965  0.17656  0.60700  1.0000
  H   H1938     1.0  0.80059  0.50615  0.49211  1.0000
  H   H1939     1.0  0.79837  0.17348  0.61321  1.0000
  H   H1940     1.0  0.56496  0.10459  0.63067  1.0000
  H   H1941     1.0  0.58298  0.48003  0.54259  1.0000
  H   H1942     1.0  0.97766  0.09126  0.67827  1.0000
  H   H1943     1.0  0.77885  0.12488  0.63321  1.0000
  H   H1944     1.0  0.97001  0.26197  0.47328  1.0000
  H   H1945     1.0  0.68974  0.23193  0.48832  1.0000
  H   H1946     1.0  0.75166  0.13682  0.60950  1.0000
  C   C1100     1.0  0.77538  0.36750  0.48482  1.0000
  H   H1947     1.0  0.86473  0.18601  0.59626  1.0000
  Fe  Fe123     1.0  0.59336  0.49842  0.58505  1.0000
  H   H1948     1.0  0.56912  0.05999  0.63277  1.0000
  H   H1949     1.0  0.98889  0.05648  0.63411  1.0000
  H   H1950     1.0  0.90739  0.23671  0.60861  1.0000
  H   H1951     1.0  0.79221  0.20262  0.66571  1.0000
  H   H1952     1.0  0.99040  0.06058  0.65405  1.0000
  C   C1101     1.0  0.87542  0.44549  0.56346  1.0000
  C   C1102     1.0  0.79359  0.12161  0.62226  1.0000
  N   N61       1.0  0.73670  0.31905  0.49660  1.0000
  C   C1103     1.0  0.71265  0.29518  0.49183  1.0000
  C   C1104     1.0  0.71847  0.34269  0.50677  1.0000
  C   C1105     1.0  0.75174  0.33931  0.48241  1.0000
  C   C1106     1.0  0.76478  0.30143  0.50415  1.0000
  C   C1107     1.0  0.75486  0.27687  0.51828  1.0000
  H   H1953     1.0  0.87598  0.12827  0.61730  1.0000
  H   H1954     1.0  0.97861  0.23025  0.70821  1.0000
  C   C1108     1.0  0.68815  0.32918  0.51767  1.0000
  C   C1109     1.0  0.67728  0.35324  0.52939  1.0000
  C   C1110     1.0  0.78521  0.25718  0.52332  1.0000
  C   C1111     1.0  0.77467  0.19174  0.65888  1.0000
  C   C1112     1.0  0.84177  0.30285  0.46945  1.0000
  H   H1955     1.0  0.69291  0.30932  0.48595  1.0000
  H   H1956     1.0  0.69923  0.28069  0.50176  1.0000
  H   H1957     1.0  0.73610  0.35309  0.51371  1.0000
  H   H1958     1.0  0.70849  0.36456  0.49992  1.0000
  H   H1959     1.0  0.57703  0.50011  0.64940  1.0000
  H   H1960     1.0  0.76743  0.16664  0.66431  1.0000
  H   H1961     1.0  0.78097  0.28810  0.49587  1.0000
  H   H1962     1.0  0.78137  0.31965  0.50798  1.0000
  H   H1963     1.0  0.73637  0.25872  0.51610  1.0000
  H   H1964     1.0  0.74472  0.29075  0.52785  1.0000
  H   H1965     1.0  0.80332  0.40788  0.47183  1.0000
  C   C1113     1.0  0.85499  0.47649  0.55898  1.0000
  H   H1966     1.0  0.79850  0.35682  0.48914  1.0000
  H   H1967     1.0  0.88457  0.14460  0.64978  1.0000
  H   H1968     1.0  0.66675  0.32608  0.51111  1.0000
  H   H1969     1.0  0.69345  0.30491  0.52388  1.0000
  H   H1970     1.0  0.67106  0.37801  0.52374  1.0000
  H   H1971     1.0  0.65490  0.34362  0.53672  1.0000
  H   H1972     1.0  0.69745  0.35592  0.53671  1.0000
  H   H1973     1.0  0.80430  0.27415  0.52611  1.0000
  H   H1974     1.0  0.77762  0.24002  0.53359  1.0000
  H   H1975     1.0  0.79632  0.24228  0.51426  1.0000
  H   H1976     1.0  0.90790  0.02841  0.68376  1.0000
  C   C1114     1.0  0.51828  0.03781  0.59703  1.0000
  Fe  Fe124     1.0  0.83721  0.13638  0.70673  1.0000
  C   C1115     1.0  0.52187  0.17093  0.60320  1.0000
  C   C1116     1.0  0.81053  0.48205  0.49698  1.0000
  H   H1977     1.0  0.93434  0.24677  0.48569  1.0000
  H   H1978     1.0  0.83509  0.21354  0.61783  1.0000
  H   H1979     1.0  0.84033  0.21284  0.71494  1.0000
  H   H1980     1.0  0.87238  0.24638  0.59772  1.0000
  H   H1981     1.0  0.67648  0.01651  0.48154  1.0000
  H   H1982     1.0  0.93975  0.11931  0.64492  1.0000
  H   H1983     1.0  0.90726  0.16543  0.63320  1.0000
  H   H1984     1.0  0.82899  0.14650  0.60547  1.0000
  H   H1985     1.0  0.78130  0.48286  0.51835  1.0000
  H   H1986     1.0  0.83914  0.17707  0.64941  1.0000
  H   H1987     1.0  0.58603  0.08304  0.65482  1.0000
  H   H1988     1.0  0.74710  0.25379  0.48684  1.0000
  H   H1989     1.0  0.97350  0.12686  0.68900  1.0000
  H   H1990     1.0  0.70520  0.20619  0.71269  1.0000
  H   H1991     1.0  0.95791  0.03707  0.64811  1.0000
  C   C1117     1.0  0.94767  0.24616  0.47417  1.0000
  H   H1992     1.0  0.77129  0.18106  0.63618  1.0000
  C   C1118     1.0  0.89264  0.22809  0.59999  1.0000
  C   C1119     1.0  0.00622  0.41998  0.50272  1.0000
  Fe  Fe125     1.0  0.67026  0.49398  0.58239  1.0000
  C   C1120     1.0  0.98280  0.22511  0.69652  1.0000
  H   H1993     1.0  0.86181  0.42274  0.56207  1.0000
  H   H1994     1.0  0.80937  0.09899  0.62382  1.0000
  H   H1995     1.0  0.73057  0.12579  0.69829  1.0000
  H   H1996     1.0  0.54581  0.10282  0.65828  1.0000
  C   C1121     1.0  0.96453  0.19997  0.67534  1.0000
  C   C1122     1.0  0.57462  0.50441  0.53729  1.0000
  H   H1997     1.0  0.93173  0.11190  0.62609  1.0000
  C   C1123     1.0  0.99275  0.21287  0.66621  1.0000
  H   H1998     1.0  0.54793  0.11028  0.60746  1.0000
  C   C1124     1.0  0.95986  0.20584  0.69056  1.0000
  C   C1125     1.0  0.76894  0.11530  0.61107  1.0000
  S   S252      1.0  0.63323  0.49675  0.56527  1.0000
  C   C1126     1.0  0.87830  0.19382  0.60542  1.0000
  H   H1999     1.0  0.81694  0.45542  0.51854  1.0000
  H   H2000     1.0  0.73163  0.35052  0.47579  1.0000
  H   H2001     1.0  0.78233  0.11063  0.59996  1.0000
  S   S253      1.0  0.89267  0.13380  0.70741  1.0000
  N   N62       1.0  0.83923  0.16218  0.62690  1.0000
  C   C1127     1.0  0.82172  0.16665  0.64235  1.0000
  C   C1128     1.0  0.86522  0.13506  0.62858  1.0000
  C   C1129     1.0  0.85479  0.19472  0.62032  1.0000
  C   C1130     1.0  0.81525  0.15235  0.61636  1.0000
  H   H2002     1.0  0.52782  0.50183  0.55103  1.0000
  N   N63       1.0  0.82912  0.50848  0.53617  1.0000
  H   H2003     1.0  0.87214  0.47538  0.53509  1.0000
  H   H2004     1.0  0.96828  0.08572  0.69854  1.0000
  H   H2005     1.0  0.95559  0.22015  0.47275  1.0000
  C   C1131     1.0  0.79418  0.50759  0.54412  1.0000
  S   S254      1.0  0.63066  0.49091  0.60239  1.0000
  C   C1132     1.0  0.00095  0.28558  0.54085  1.0000
  H   H2006     1.0  0.83142  0.47548  0.56661  1.0000
  H   H2007     1.0  0.56404  0.50040  0.52666  1.0000
  H   H2008     1.0  0.68049  0.03321  0.67986  1.0000
  H   H2009     1.0  0.85484  0.50471  0.51388  1.0000
  H   H2010     1.0  0.73923  0.28142  0.47034  1.0000
  C   C1133     1.0  0.80883  0.24348  0.46695  1.0000
  H   H2011     1.0  0.98068  0.41551  0.50843  1.0000
  H   H2012     1.0  0.54866  0.17156  0.60496  1.0000
  S   S255      1.0  0.78841  0.20600  0.46600  1.0000
  C   C1134     1.0  0.82900  0.50799  0.51930  1.0000
  C   C1135     1.0  0.01093  0.23815  0.68740  1.0000
  C   C1136     1.0  0.97700  0.51075  0.53238  1.0000
  C   C1137     1.0  0.70130  0.24605  0.47779  1.0000
  H   H2013     1.0  0.79455  0.50891  0.55647  1.0000
  C   C1138     1.0  0.70348  0.01262  0.48237  1.0000
  C   C1139     1.0  0.52033  0.10831  0.60840  1.0000
  C   C1140     1.0  0.52822  0.04840  0.61215  1.0000
  H   H2014     1.0  0.52576  0.02612  0.62055  1.0000
  H   H2015     1.0  0.51957  0.16936  0.59100  1.0000
  H   H2016     1.0  0.79659  0.50532  0.87757  1.0000
  S   S256      1.0  0.55124  0.19093  0.78754  1.0000
  H   H2017     1.0  0.64901  0.50369  0.72906  1.0000
  C   C1141     1.0  0.59662  0.20311  0.74403  1.0000
  Fe  Fe126     1.0  0.72304  0.26680  0.79617  1.0000
  S   S257      1.0  0.71655  0.31131  0.80905  1.0000
  S   S258      1.0  0.69505  0.22011  0.80414  1.0000
  Fe  Fe127     1.0  0.78052  0.29616  0.77487  1.0000
  S   S259      1.0  0.77933  0.34359  0.78599  1.0000
  S   S260      1.0  0.81708  0.28786  0.75460  1.0000
  Fe  Fe128     1.0  0.77250  0.30997  0.80786  1.0000
  S   S261      1.0  0.79495  0.31581  0.82958  1.0000
  Fe  Fe129     1.0  0.72366  0.34105  0.78626  1.0000
  S   S262      1.0  0.68930  0.38212  0.77736  1.0000
  S   S263      1.0  0.77840  0.26304  0.79670  1.0000
  S   S264      1.0  0.72551  0.29591  0.77343  1.0000
  Fe  Fe130     1.0  0.65140  0.29492  0.93919  1.0000
  S   S265      1.0  0.61658  0.33487  0.93058  1.0000
  Fe  Fe131     1.0  0.69721  0.30185  0.91022  1.0000
  S   S266      1.0  0.66581  0.34159  0.89932  1.0000
  S   S267      1.0  0.74426  0.29249  0.89570  1.0000
  Fe  Fe132     1.0  0.66311  0.36310  0.92150  1.0000
  S   S268      1.0  0.66796  0.41890  0.92164  1.0000
  Fe  Fe133     1.0  0.62276  0.30971  0.90910  1.0000
  S   S269      1.0  0.57939  0.30574  0.89518  1.0000
  S   S270      1.0  0.69746  0.32517  0.93179  1.0000
  S   S271      1.0  0.65455  0.26769  0.91834  1.0000
  Fe  Fe134     1.0  0.91921  0.19773  0.87211  1.0000
  S   S272      1.0  0.89737  0.14755  0.87994  1.0000
  S   S273      1.0  0.91530  0.22199  0.84817  1.0000
  Fe  Fe135     1.0  0.94602  0.20535  0.90257  1.0000
  S   S274      1.0  0.92578  0.15557  0.91271  1.0000
  Fe  Fe136     1.0  0.94482  0.13617  0.89059  1.0000
  S   S275      1.0  0.97534  0.08787  0.88978  1.0000
  Fe  Fe137     1.0  0.88014  0.17048  0.90127  1.0000
  S   S276      1.0  0.82837  0.16393  0.91333  1.0000
  S   S277      1.0  0.96857  0.18513  0.88116  1.0000
  S   S278      1.0  0.89873  0.22134  0.89270  1.0000
  H   H2018     1.0  0.88039  0.31316  0.90119  1.0000
  H   H2019     1.0  0.74602  0.42216  0.73125  1.0000
  H   H2020     1.0  0.86145  0.45621  0.91112  1.0000
  C   C1142     1.0  0.95667  0.48162  0.95085  1.0000
  C   C1143     1.0  0.81263  0.25076  0.74646  1.0000
  H   H2021     1.0  0.86591  0.30345  0.94708  1.0000
  H   H2022     1.0  0.94182  0.18785  0.72544  1.0000
  C   C1144     1.0  0.76618  0.25606  0.90087  1.0000
  C   C1145     1.0  0.79456  0.24811  0.89154  1.0000
  C   C1146     1.0  0.81269  0.21908  0.89507  1.0000
  C   C1147     1.0  0.80330  0.19840  0.90827  1.0000
  C   C1148     1.0  0.77443  0.20592  0.91754  1.0000
  C   C1149     1.0  0.75574  0.23480  0.91381  1.0000
  H   H2023     1.0  0.80243  0.26434  0.88150  1.0000
  H   H2024     1.0  0.83382  0.21257  0.88749  1.0000
  H   H2025     1.0  0.76693  0.18978  0.92772  1.0000
  H   H2026     1.0  0.73365  0.24081  0.92103  1.0000
  C   C1150     1.0  0.70605  0.43824  0.92321  1.0000
  C   C1151     1.0  0.73401  0.41991  0.92735  1.0000
  C   C1152     1.0  0.76351  0.43625  0.92909  1.0000
  C   C1153     1.0  0.76527  0.47101  0.92684  1.0000
  C   C1154     1.0  0.73762  0.48928  0.92231  1.0000
  C   C1155     1.0  0.70807  0.47295  0.92060  1.0000
  H   H2027     1.0  0.73279  0.39319  0.92938  1.0000
  H   H2028     1.0  0.78491  0.42190  0.93246  1.0000
  H   H2029     1.0  0.53827  0.13775  0.90867  1.0000
  H   H2030     1.0  0.68662  0.48732  0.91729  1.0000
  C   C1156     1.0  0.92886  0.04134  0.88488  1.0000
  C   C1157     1.0  0.96200  0.04780  0.88671  1.0000
  H   H2031     1.0  0.85926  0.36691  0.92693  1.0000
  H   H2032     1.0  0.91066  0.06135  0.88488  1.0000
  C   C1158     1.0  0.72507  0.46963  0.73699  1.0000
  C   C1159     1.0  0.79309  0.22520  0.75426  1.0000
  H   H2033     1.0  0.77986  0.22849  0.76520  1.0000
  C   C1160     1.0  0.82704  0.28805  0.83478  1.0000
  C   C1161     1.0  0.83283  0.28210  0.85004  1.0000
  C   C1162     1.0  0.85860  0.26042  0.85446  1.0000
  C   C1163     1.0  0.88000  0.24608  0.84350  1.0000
  C   C1164     1.0  0.87448  0.25261  0.82823  1.0000
  C   C1165     1.0  0.84768  0.27287  0.82389  1.0000
  H   H2034     1.0  0.81726  0.29434  0.85844  1.0000
  H   H2035     1.0  0.86237  0.25543  0.86628  1.0000
  H   H2036     1.0  0.89132  0.24226  0.81976  1.0000
  H   H2037     1.0  0.84368  0.27777  0.81208  1.0000
  C   C1166     1.0  0.67261  0.41585  0.78688  1.0000
  C   C1167     1.0  0.68596  0.42577  0.79949  1.0000
  C   C1168     1.0  0.67299  0.45411  0.80608  1.0000
  C   C1169     1.0  0.64653  0.47259  0.80017  1.0000
  C   C1170     1.0  0.63261  0.46197  0.78789  1.0000
  C   C1171     1.0  0.64581  0.43399  0.78118  1.0000
  H   H2038     1.0  0.70668  0.41204  0.80394  1.0000
  H   H2039     1.0  0.68381  0.46208  0.81564  1.0000
  H   H2040     1.0  0.61175  0.47548  0.78350  1.0000
  H   H2041     1.0  0.63516  0.42634  0.77151  1.0000
  C   C1172     1.0  0.59083  0.20045  0.79219  1.0000
  C   C1173     1.0  0.60941  0.22632  0.78386  1.0000
  C   C1174     1.0  0.64132  0.23334  0.78757  1.0000
  C   C1175     1.0  0.65470  0.21408  0.79948  1.0000
  C   C1176     1.0  0.63600  0.18843  0.80778  1.0000
  C   C1177     1.0  0.60404  0.18192  0.80428  1.0000
  H   H2042     1.0  0.59899  0.24094  0.77462  1.0000
  H   H2043     1.0  0.65579  0.25302  0.78105  1.0000
  H   H2044     1.0  0.64616  0.17349  0.81702  1.0000
  H   H2045     1.0  0.58995  0.16192  0.81074  1.0000
  C   C1178     1.0  0.56472  0.21717  0.86869  1.0000
  C   C1179     1.0  0.54381  0.24508  0.86746  1.0000
  C   C1180     1.0  0.54886  0.27219  0.87553  1.0000
  C   C1181     1.0  0.57525  0.27197  0.88458  1.0000
  C   C1182     1.0  0.59690  0.24458  0.88535  1.0000
  C   C1183     1.0  0.59143  0.21717  0.87755  1.0000
  C   C1184     1.0  0.65730  0.19323  0.73489  1.0000
  H   H2046     1.0  0.63551  0.37763  0.95751  1.0000
  H   H2047     1.0  0.61731  0.24421  0.89227  1.0000
  H   H2048     1.0  0.60771  0.19565  0.87852  1.0000
  H   H2049     1.0  0.68081  0.35811  0.83439  1.0000
  H   H2050     1.0  0.58093  0.20527  0.92339  1.0000
  H   H2051     1.0  0.73976  0.49252  0.75569  1.0000
  H   H2052     1.0  0.65393  0.43500  0.95481  1.0000
  C   C1185     1.0  0.82743  0.21607  0.72596  1.0000
  H   H2053     1.0  0.00928  0.37962  0.92079  1.0000
  H   H2054     1.0  0.53194  0.29325  0.87499  1.0000
  H   H2055     1.0  0.79842  0.14665  0.79713  1.0000
  H   H2056     1.0  0.93328  0.33202  0.88647  1.0000
  H   H2057     1.0  0.75501  0.44449  0.89244  1.0000
  H   H2058     1.0  0.72348  0.13482  0.72505  1.0000
  H   H2059     1.0  0.84538  0.26570  0.72632  1.0000
  H   H2060     1.0  0.93776  0.37263  0.86266  1.0000
  H   H2061     1.0  0.87094  0.28992  0.88626  1.0000
  C   C1186     1.0  0.83002  0.24606  0.73235  1.0000
  H   H2062     1.0  0.59574  0.47654  0.73673  1.0000
  N   N64       1.0  0.59849  0.31708  0.81957  1.0000
  C   C1187     1.0  0.53850  0.18897  0.91325  1.0000
  C   C1188     1.0  0.62412  0.34285  0.82104  1.0000
  C   C1189     1.0  0.58912  0.32161  0.80349  1.0000
  C   C1190     1.0  0.61243  0.28230  0.82228  1.0000
  C   C1191     1.0  0.62260  0.27147  0.83828  1.0000
  H   H2063     1.0  0.65316  0.39627  0.87452  1.0000
  C   C1192     1.0  0.61852  0.32554  0.79072  1.0000
  C   C1193     1.0  0.62671  0.35372  0.83705  1.0000
  C   C1194     1.0  0.65836  0.37342  0.83733  1.0000
  C   C1195     1.0  0.63123  0.23448  0.84018  1.0000
  H   H2064     1.0  0.72929  0.15932  0.74629  1.0000
  C   C1196     1.0  0.63233  0.20203  0.74829  1.0000
  H   H2065     1.0  0.97085  0.42354  0.86063  1.0000
  C   C1197     1.0  0.96304  0.30632  0.84188  1.0000
  H   H2066     1.0  0.64917  0.33451  0.81636  1.0000
  H   H2067     1.0  0.61877  0.36646  0.81404  1.0000
  C   C1198     1.0  0.98526  0.02135  0.88667  1.0000
  H   H2068     1.0  0.86827  0.36003  0.95188  1.0000
  H   H2069     1.0  0.59456  0.26384  0.81958  1.0000
  H   H2070     1.0  0.63515  0.27887  0.81438  1.0000
  H   H2071     1.0  0.60246  0.27619  0.84726  1.0000
  H   H2072     1.0  0.64534  0.28475  0.83992  1.0000
  H   H2073     1.0  0.51970  0.05771  0.87993  1.0000
  C   C1199     1.0  0.90860  0.38872  0.95803  1.0000
  H   H2074     1.0  0.63720  0.30529  0.79192  1.0000
  H   H2075     1.0  0.63121  0.34934  0.79090  1.0000
  H   H2076     1.0  0.60512  0.37003  0.84021  1.0000
  H   H2077     1.0  0.62667  0.33269  0.84599  1.0000
  H   H2078     1.0  0.65840  0.39614  0.82921  1.0000
  H   H2079     1.0  0.65950  0.38097  0.84883  1.0000
  S   S279      1.0  0.97634  0.44479  0.94566  1.0000
  H   H2080     1.0  0.60961  0.21948  0.83840  1.0000
  H   H2081     1.0  0.65274  0.22879  0.83204  1.0000
  H   H2082     1.0  0.63809  0.22726  0.85178  1.0000
  H   H2083     1.0  0.52438  0.26728  0.94194  1.0000
  C   C1200     1.0  0.92152  0.30946  0.88356  1.0000
  C   C1201     1.0  0.70313  0.16784  0.74897  1.0000
  H   H2084     1.0  0.57914  0.20880  0.75393  1.0000
  H   H2085     1.0  0.73033  0.22841  0.74233  1.0000
  C   C1202     1.0  0.79133  0.19499  0.74809  1.0000
  N   N65       1.0  0.74086  0.20554  0.85738  1.0000
  C   C1203     1.0  0.72869  0.17923  0.84862  1.0000
  C   C1204     1.0  0.72865  0.19740  0.87389  1.0000
  C   C1205     1.0  0.72771  0.23880  0.85110  1.0000
  C   C1206     1.0  0.77838  0.20665  0.85586  1.0000
  C   C1207     1.0  0.79622  0.17346  0.86074  1.0000
  C   C1208     1.0  0.74504  0.17888  0.83211  1.0000
  C   C1209     1.0  0.73218  0.26807  0.86051  1.0000
  C   C1210     1.0  0.69034  0.19879  0.87792  1.0000
  C   C1211     1.0  0.68142  0.19265  0.89505  1.0000
  C   C1212     1.0  0.83358  0.17504  0.85593  1.0000
  C   C1213     1.0  0.72971  0.15222  0.82423  1.0000
  C   C1214     1.0  0.71496  0.29966  0.85421  1.0000
  H   H2086     1.0  0.70134  0.18207  0.84803  1.0000
  H   H2087     1.0  0.73185  0.15402  0.85461  1.0000
  H   H2088     1.0  0.73677  0.17190  0.87798  1.0000
  H   H2089     1.0  0.74052  0.21365  0.88101  1.0000
  H   H2090     1.0  0.70080  0.23741  0.84964  1.0000
  H   H2091     1.0  0.74006  0.24614  0.83951  1.0000
  H   H2092     1.0  0.78830  0.21584  0.84406  1.0000
  H   H2093     1.0  0.78689  0.22516  0.86288  1.0000
  H   H2094     1.0  0.78668  0.15229  0.85569  1.0000
  H   H2095     1.0  0.79271  0.16790  0.87326  1.0000
  H   H2096     1.0  0.74177  0.20323  0.82552  1.0000
  H   H2097     1.0  0.77211  0.17337  0.83173  1.0000
  H   H2098     1.0  0.75893  0.27342  0.86059  1.0000
  H   H2099     1.0  0.72094  0.26255  0.87231  1.0000
  H   H2100     1.0  0.67954  0.22323  0.87409  1.0000
  H   H2101     1.0  0.67813  0.17947  0.87259  1.0000
  H   H2102     1.0  0.65397  0.19336  0.89776  1.0000
  H   H2103     1.0  0.69089  0.16799  0.89950  1.0000
  H   H2104     1.0  0.69232  0.21214  0.90081  1.0000
  H   H2105     1.0  0.84506  0.15018  0.85840  1.0000
  H   H2106     1.0  0.83881  0.18272  0.84360  1.0000
  H   H2107     1.0  0.84529  0.19266  0.86238  1.0000
  H   H2108     1.0  0.74044  0.15365  0.81220  1.0000
  H   H2109     1.0  0.73496  0.12714  0.82983  1.0000
  H   H2110     1.0  0.70235  0.15600  0.82445  1.0000
  H   H2111     1.0  0.71945  0.32000  0.86111  1.0000
  H   H2112     1.0  0.72491  0.30702  0.84230  1.0000
  H   H2113     1.0  0.68769  0.29606  0.85492  1.0000
  C   C1215     1.0  0.88426  0.31194  0.88882  1.0000
  H   H2114     1.0  0.58855  0.34688  0.77312  1.0000
  C   C1216     1.0  0.65828  0.42066  0.87829  1.0000
  H   H2115     1.0  0.75994  0.43567  0.74809  1.0000
  H   H2116     1.0  0.67961  0.37896  0.95193  1.0000
  C   C1217     1.0  0.88527  0.37523  0.92358  1.0000
  C   C1218     1.0  0.88368  0.41350  0.92319  1.0000
  C   C1219     1.0  0.87591  0.30225  0.93509  1.0000
  H   H2117     1.0  0.97963  0.39570  0.87685  1.0000
  H   H2118     1.0  0.60005  0.47863  0.75644  1.0000
  H   H2119     1.0  0.52153  0.18872  0.92387  1.0000
  H   H2120     1.0  0.61271  0.23062  0.94445  1.0000
  H   H2121     1.0  0.94194  0.29487  0.81410  1.0000
  H   H2122     1.0  0.53735  0.21392  0.90684  1.0000
  Fe  Fe138     1.0  0.51828  0.17854  0.80928  1.0000
  H   H2123     1.0  0.88471  0.01920  0.93893  1.0000
  H   H2124     1.0  0.85696  0.31287  0.92778  1.0000
  C   C1220     1.0  0.86241  0.42882  0.91102  1.0000
  H   H2125     1.0  0.65295  0.50250  0.76324  1.0000
  H   H2126     1.0  0.65074  0.16783  0.73275  1.0000
  H   H2127     1.0  0.89361  0.31670  0.76605  1.0000
  S   S280      1.0  0.96294  0.24086  0.91848  1.0000
  H   H2128     1.0  0.57584  0.16083  0.92540  1.0000
  H   H2129     1.0  0.85591  0.25292  0.93520  1.0000
  H   H2130     1.0  0.70109  0.31199  0.72627  1.0000
  N   N66       1.0  0.75564  0.41194  0.87454  1.0000
  C   C1221     1.0  0.71947  0.40520  0.87980  1.0000
  C   C1222     1.0  0.77634  0.38295  0.88049  1.0000
  C   C1223     1.0  0.76487  0.44379  0.88033  1.0000
  C   C1224     1.0  0.76189  0.41599  0.85747  1.0000
  C   C1225     1.0  0.74924  0.38761  0.84926  1.0000
  C   C1226     1.0  0.69422  0.43085  0.87320  1.0000
  C   C1227     1.0  0.77557  0.37680  0.89798  1.0000
  C   C1228     1.0  0.80354  0.35305  0.90263  1.0000
  C   C1229     1.0  0.75432  0.39583  0.83207  1.0000
  H   H2131     1.0  0.65408  0.46772  0.74261  1.0000
  H   H2132     1.0  0.71496  0.40454  0.89236  1.0000
  H   H2133     1.0  0.71273  0.38002  0.87737  1.0000
  H   H2134     1.0  0.76781  0.35943  0.87684  1.0000
  H   H2135     1.0  0.80269  0.38534  0.87543  1.0000
  H   H2136     1.0  0.75253  0.46535  0.87430  1.0000
  H   H2137     1.0  0.75106  0.43983  0.85269  1.0000
  H   H2138     1.0  0.78904  0.41789  0.85382  1.0000
  H   H2139     1.0  0.72231  0.38325  0.85236  1.0000
  H   H2140     1.0  0.76301  0.36416  0.85210  1.0000
  H   H2141     1.0  0.69764  0.45551  0.87709  1.0000
  H   H2142     1.0  0.69707  0.43347  0.86065  1.0000
  H   H2143     1.0  0.77875  0.39989  0.90317  1.0000
  H   H2144     1.0  0.75136  0.36582  0.90291  1.0000
  H   H2145     1.0  0.80023  0.34643  0.91508  1.0000
  H   H2146     1.0  0.80326  0.32988  0.89705  1.0000
  H   H2147     1.0  0.82808  0.36500  0.89948  1.0000
  H   H2148     1.0  0.74037  0.41880  0.82854  1.0000
  H   H2149     1.0  0.78120  0.39896  0.82812  1.0000
  H   H2150     1.0  0.74498  0.37518  0.82651  1.0000
  H   H2151     1.0  0.55734  0.34813  0.82725  1.0000
  H   H2152     1.0  0.92588  0.06517  0.93656  1.0000
  H   H2153     1.0  0.70186  0.47125  0.76003  1.0000
  N   N67       1.0  0.88972  0.21144  0.77347  1.0000
  C   C1230     1.0  0.85519  0.20824  0.78177  1.0000
  C   C1231     1.0  0.89860  0.24774  0.76989  1.0000
  C   C1232     1.0  0.88927  0.19686  0.75860  1.0000
  C   C1233     1.0  0.91555  0.19237  0.78208  1.0000
  C   C1234     1.0  0.91713  0.19948  0.79863  1.0000
  C   C1235     1.0  0.84124  0.17264  0.78509  1.0000
  C   C1236     1.0  0.92133  0.20176  0.74733  1.0000
  C   C1237     1.0  0.88512  0.27182  0.78160  1.0000
  C   C1238     1.0  0.89973  0.30638  0.77748  1.0000
  C   C1239     1.0  0.94132  0.17567  0.80650  1.0000
  C   C1240     1.0  0.91819  0.18517  0.73301  1.0000
  H   H2154     1.0  0.83732  0.22339  0.77519  1.0000
  H   H2155     1.0  0.85367  0.21895  0.79275  1.0000
  H   H2156     1.0  0.92612  0.25056  0.76774  1.0000
  H   H2157     1.0  0.88851  0.25819  0.75918  1.0000
  H   H2158     1.0  0.86802  0.20744  0.75261  1.0000
  H   H2159     1.0  0.88514  0.16965  0.76052  1.0000
  H   H2160     1.0  0.91225  0.16519  0.78207  1.0000
  H   H2161     1.0  0.94094  0.19739  0.77628  1.0000
  H   H2162     1.0  0.89259  0.19643  0.80541  1.0000
  H   H2163     1.0  0.92657  0.22480  0.79886  1.0000
  H   H2164     1.0  0.83691  0.16245  0.77442  1.0000
  H   H2165     1.0  0.85857  0.15586  0.79120  1.0000
  H   H2166     1.0  0.94340  0.19050  0.75237  1.0000
  H   H2167     1.0  0.92620  0.22843  0.74383  1.0000
  H   H2168     1.0  0.85763  0.27459  0.78180  1.0000
  H   H2169     1.0  0.89080  0.26301  0.79316  1.0000
  H   H2170     1.0  0.92719  0.30550  0.77766  1.0000
  H   H2171     1.0  0.54670  0.27300  0.83513  1.0000
  H   H2172     1.0  0.88887  0.32318  0.78581  1.0000
  H   H2173     1.0  0.94229  0.18178  0.81829  1.0000
  H   H2174     1.0  0.81045  0.18193  0.80589  1.0000
  H   H2175     1.0  0.78908  0.18790  0.78896  1.0000
  H   H2176     1.0  0.91325  0.15829  0.73586  1.0000
  C   C1241     1.0  0.92354  0.48736  0.94793  1.0000
  C   C1242     1.0  0.92685  0.30646  0.86628  1.0000
  H   H2177     1.0  0.67017  0.25970  0.72694  1.0000
  H   H2178     1.0  0.94463  0.37840  0.90558  1.0000
  H   H2179     1.0  0.57262  0.32144  0.84200  1.0000
  S   S281      1.0  0.63219  0.50932  0.80804  1.0000
  H   H2180     1.0  0.68783  0.14538  0.74892  1.0000
  C   C1243     1.0  0.52944  0.16189  0.90340  1.0000
  C   C1244     1.0  0.93331  0.32231  0.83391  1.0000
  C   C1245     1.0  0.93888  0.32099  0.81678  1.0000
  H   H2181     1.0  0.57444  0.30019  0.80116  1.0000
  H   H2182     1.0  0.67730  0.18830  0.76928  1.0000
  C   C1246     1.0  0.71572  0.48857  0.75111  1.0000
  H   H2183     1.0  0.91533  0.28290  0.86433  1.0000
  H   H2184     1.0  0.91139  0.32649  0.86103  1.0000
  C   C1247     1.0  0.57398  0.18391  0.91761  1.0000
  H   H2185     1.0  0.96400  0.28009  0.83910  1.0000
  C   C1248     1.0  0.99320  0.38712  0.91164  1.0000
  H   H2186     1.0  0.71014  0.48237  0.95134  1.0000
  H   H2187     1.0  0.54532  0.16607  0.89243  1.0000
  H   H2188     1.0  0.70583  0.15367  0.78828  1.0000
  C   C1249     1.0  0.98007  0.27678  0.86518  1.0000
  H   H2189     1.0  0.58977  0.17874  0.74072  1.0000
  C   C1250     1.0  0.98051  0.33735  0.86235  1.0000
  S   S282      1.0  0.52712  0.13811  0.82774  1.0000
  C   C1251     1.0  0.71358  0.18891  0.72210  1.0000
  H   H2190     1.0  0.90685  0.41266  0.95103  1.0000
  H   H2191     1.0  0.91012  0.30854  0.83797  1.0000
  H   H2192     1.0  0.92908  0.34850  0.83609  1.0000
  C   C1252     1.0  0.64411  0.49343  0.74108  1.0000
  H   H2193     1.0  0.92535  0.06940  0.91622  1.0000
  C   C1253     1.0  0.71205  0.15346  0.71706  1.0000
  H   H2194     1.0  0.53744  0.11767  0.78541  1.0000
  H   H2195     1.0  0.74499  0.48284  0.72929  1.0000
  H   H2196     1.0  0.76164  0.48758  0.95966  1.0000
  H   H2197     1.0  0.63738  0.22663  0.75180  1.0000
  H   H2198     1.0  0.87325  0.42310  0.89961  1.0000
  S   S283      1.0  0.55663  0.18067  0.86055  1.0000
  C   C1254     1.0  0.70329  0.22843  0.74087  1.0000
  C   C1255     1.0  0.80776  0.17241  0.79487  1.0000
  C   C1256     1.0  0.60634  0.32594  0.77509  1.0000
  H   H2199     1.0  0.77731  0.17491  0.75448  1.0000
  C   C1257     1.0  0.91063  0.06180  0.92722  1.0000
  H   H2200     1.0  0.00898  0.39946  0.85997  1.0000
  S   S284      1.0  0.64345  0.27218  0.96353  1.0000
  H   H2201     1.0  0.68658  0.12801  0.77651  1.0000
  H   H2202     1.0  0.71837  0.41972  0.74851  1.0000
  H   H2203     1.0  0.59367  0.22270  0.73457  1.0000
  N   N68       1.0  0.96227  0.30755  0.85888  1.0000
  H   H2204     1.0  0.81335  0.45258  0.86671  1.0000
  C   C1258     1.0  0.96071  0.36774  0.91421  1.0000
  H   H2205     1.0  0.87179  0.42072  0.93416  1.0000
  C   C1259     1.0  0.99617  0.26919  0.91727  1.0000
  H   H2206     1.0  0.98797  0.41418  0.91148  1.0000
  H   H2207     1.0  0.76178  0.44308  0.96103  1.0000
  H   H2208     1.0  0.74040  0.19437  0.72249  1.0000
  C   C1260     1.0  0.70140  0.17682  0.76555  1.0000
  N   N69       1.0  0.69380  0.19478  0.73698  1.0000
  N   N70       1.0  0.90858  0.35711  0.93388  1.0000
  H   H2209     1.0  0.90865  0.42476  0.92068  1.0000
  H   H2210     1.0  0.96690  0.34164  0.91226  1.0000
  C   C1261     1.0  0.96431  0.37152  0.85808  1.0000
  C   C1262     1.0  0.65998  0.38305  0.96126  1.0000
  H   H2211     1.0  0.93295  0.14965  0.80701  1.0000
  C   C1263     1.0  0.60520  0.22207  0.95617  1.0000
  H   H2212     1.0  0.57491  0.18258  0.95096  1.0000
  H   H2213     1.0  0.00602  0.33823  0.85623  1.0000
  H   H2214     1.0  0.72125  0.19466  0.76662  1.0000
  C   C1264     1.0  0.80873  0.48483  0.88435  1.0000
  H   H2215     1.0  0.53774  0.30703  0.94615  1.0000
  H   H2216     1.0  0.96013  0.35591  0.93845  1.0000
  C   C1265     1.0  0.70662  0.14622  0.77663  1.0000
  H   H2217     1.0  0.89777  0.19693  0.72684  1.0000
  H   H2218     1.0  0.63319  0.18277  0.75804  1.0000
  C   C1266     1.0  0.90947  0.32088  0.93124  1.0000
  C   C1267     1.0  0.56735  0.32258  0.83002  1.0000
  C   C1268     1.0  0.80261  0.45147  0.87871  1.0000
  C   C1269     1.0  0.53213  0.28117  0.95102  1.0000
  C   C1270     1.0  0.88021  0.26565  0.93256  1.0000
  H   H2219     1.0  0.87309  0.33457  0.88314  1.0000
  C   C1271     1.0  0.97277  0.50467  0.95807  1.0000
  H   H2220     1.0  0.94508  0.39588  0.93276  1.0000
  H   H2221     1.0  0.81645  0.43234  0.88545  1.0000
  C   C1272     1.0  0.80788  0.19051  0.73380  1.0000
  C   C1273     1.0  0.70477  0.29102  0.73502  1.0000
  H   H2222     1.0  0.73123  0.13440  0.77369  1.0000
  H   H2223     1.0  0.93188  0.28756  0.89011  1.0000
  H   H2224     1.0  0.88940  0.26292  0.92058  1.0000
  H   H2225     1.0  0.98185  0.28288  0.93975  1.0000
  H   H2226     1.0  0.83652  0.41956  0.91327  1.0000
  H   H2227     1.0  0.91104  0.46991  0.94221  1.0000
  H   H2228     1.0  0.64096  0.43938  0.87331  1.0000
  H   H2229     1.0  0.65322  0.41918  0.89080  1.0000
  C   C1274     1.0  0.94377  0.36968  0.93054  1.0000
  H   H2230     1.0  0.91810  0.31765  0.91925  1.0000
  S   S285      1.0  0.80277  0.49035  0.92940  1.0000
  C   C1275     1.0  0.53896  0.29766  0.82996  1.0000
  H   H2231     1.0  0.65161  0.20934  0.72457  1.0000
  H   H2232     1.0  0.89118  0.36874  0.91179  1.0000
  H   H2233     1.0  0.92810  0.30721  0.93798  1.0000
  H   H2234     1.0  0.89814  0.25318  0.94000  1.0000
  C   C1276     1.0  0.73817  0.43472  0.74153  1.0000
  H   H2235     1.0  0.71250  0.42537  0.95894  1.0000
  H   H2236     1.0  0.90342  0.33684  0.95756  1.0000
  H   H2237     1.0  0.96682  0.17788  0.80046  1.0000
  H   H2238     1.0  0.88363  0.02433  0.91872  1.0000
  H   H2239     1.0  0.73113  0.29096  0.73758  1.0000
  C   C1277     1.0  0.53435  0.09211  0.79119  1.0000
  H   H2240     1.0  0.59197  0.18226  0.90742  1.0000
  H   H2241     1.0  0.98619  0.31778  0.83586  1.0000
  H   H2242     1.0  0.69046  0.23412  0.75193  1.0000
  H   H2243     1.0  0.98466  0.33512  0.87456  1.0000
  C   C1278     1.0  0.58378  0.19496  0.95985  1.0000
  H   H2244     1.0  0.53246  0.29527  0.81839  1.0000
  C   C1279     1.0  0.69666  0.25837  0.72920  1.0000
  H   H2245     1.0  0.53031  0.09330  0.80359  1.0000
  H   H2246     1.0  0.70376  0.46721  0.73040  1.0000
  Fe  Fe139     1.0  0.51976  0.17873  0.84315  1.0000
  H   H2247     1.0  0.88834  0.07832  0.92825  1.0000
  C   C1280     1.0  0.98212  0.39914  0.86428  1.0000
  C   C1281     1.0  0.89601  0.35944  0.95037  1.0000
  H   H2248     1.0  0.73735  0.19809  0.95839  1.0000
  H   H2249     1.0  0.79886  0.48482  0.89643  1.0000
  H   H2250     1.0  0.96685  0.25421  0.86302  1.0000
  H   H2251     1.0  0.01096  0.02602  0.88804  1.0000
  H   H2252     1.0  0.83589  0.48954  0.88335  1.0000
  H   H2253     1.0  0.52302  0.24524  0.86076  1.0000
  H   H2254     1.0  0.57273  0.34395  0.80178  1.0000
  H   H2255     1.0  0.99834  0.50032  0.96038  1.0000
  C   C1282     1.0  0.99901  0.28735  0.92962  1.0000
  C   C1283     1.0  0.60634  0.49118  0.74485  1.0000
  H   H2256     1.0  0.91689  0.33193  0.81149  1.0000
  H   H2257     1.0  0.62792  0.32917  0.76626  1.0000
  H   H2258     1.0  0.96126  0.33527  0.81183  1.0000
  S   S286      1.0  0.80161  0.15349  0.72587  1.0000
  S   S287      1.0  0.51514  0.21904  0.82444  1.0000
  H   H2259     1.0  0.55772  0.07786  0.78862  1.0000
  H   H2260     1.0  0.55528  0.26982  0.95502  1.0000
  H   H2261     1.0  0.59401  0.30227  0.77401  1.0000
  H   H2262     1.0  0.93517  0.38441  0.95999  1.0000
  H   H2263     1.0  0.97941  0.27551  0.87768  1.0000
  C   C1284     1.0  0.69305  0.48752  0.96141  1.0000
  C   C1285     1.0  0.89983  0.02578  0.92794  1.0000
  H   H2264     1.0  0.53824  0.11176  0.88565  1.0000
  H   H2265     1.0  0.00719  0.38224  0.90069  1.0000
  H   H2266     1.0  0.96637  0.37699  0.84558  1.0000
  H   H2267     1.0  0.68807  0.29510  0.74540  1.0000
  H   H2268     1.0  0.66760  0.48601  0.95788  1.0000
  C   C1286     1.0  0.66027  0.41894  0.96498  1.0000
  H   H2269     1.0  0.70254  0.50519  0.77980  1.0000
  H   H2270     1.0  0.71262  0.25678  0.71838  1.0000
  H   H2271     1.0  0.68607  0.14610  0.71639  1.0000
  S   S288      1.0  0.81101  0.98485  0.06142  1.0000
  Fe  Fe140     1.0  0.76055  0.97664  0.10105  1.0000
  S   S289      1.0  0.81054  0.95246  0.09666  1.0000
  S   S290      1.0  0.73321  0.96699  0.12459  1.0000
  Fe  Fe141     1.0  0.82589  0.00059  0.08321  1.0000
  Fe  Fe142     1.0  0.79113  0.93886  0.07558  1.0000
  S   S291      1.0  0.79676  0.88684  0.06854  1.0000
  S   S292      1.0  0.74021  0.96027  0.08077  1.0000
  Fe  Fe143     1.0  0.60931  0.73084  0.04207  1.0000
  S   S293      1.0  0.64851  0.76697  0.03142  1.0000
  S   S294      1.0  0.55871  0.72825  0.03344  1.0000
  Fe  Fe144     1.0  0.65341  0.70010  0.06587  1.0000
  S   S295      1.0  0.69552  0.73421  0.05734  1.0000
  S   S296      1.0  0.65430  0.66282  0.08656  1.0000
  Fe  Fe145     1.0  0.65627  0.77390  0.05538  1.0000
  S   S297      1.0  0.65698  0.82347  0.06451  1.0000
  Fe  Fe146     1.0  0.68432  0.72376  0.03415  1.0000
  S   S298      1.0  0.72952  0.71524  0.01751  1.0000
  S   S299      1.0  0.61468  0.74068  0.06589  1.0000
  S   S300      1.0  0.64455  0.68672  0.04286  1.0000
  Fe  Fe147     1.0  0.79424  0.56054  0.12012  1.0000
  S   S301      1.0  0.84158  0.57222  0.12935  1.0000
  S   S302      1.0  0.78923  0.58427  0.09630  1.0000
  Fe  Fe148     1.0  0.80836  0.58350  0.14994  1.0000
  S   S303      1.0  0.81598  0.63155  0.15956  1.0000
  H   H2272     1.0  0.78013  0.69382  0.99572  1.0000
  S   S304      1.0  0.76104  0.57578  0.13996  1.0000
  Fe  Fe149     1.0  0.60199  0.77767  0.18276  1.0000
  S   S305      1.0  0.54586  0.77258  0.18727  1.0000
  Fe  Fe150     1.0  0.66644  0.79884  0.16375  1.0000
  S   S306      1.0  0.69905  0.77908  0.18155  1.0000
  S   S307      1.0  0.69130  0.81661  0.14061  1.0000
  Fe  Fe151     1.0  0.66509  0.73563  0.18476  1.0000
  S   S308      1.0  0.67897  0.68218  0.19003  1.0000
  S   S309      1.0  0.63543  0.75288  0.16557  1.0000
  S   S310      1.0  0.63048  0.82572  0.17946  1.0000
  H   H2273     1.0  0.81870  0.64236  0.19680  1.0000
  H   H2274     1.0  0.81454  0.63054  0.00358  1.0000
  H   H2275     1.0  0.62510  0.67495  0.17070  1.0000
  C   C1287     1.0  0.53037  0.73397  0.16515  1.0000
  N   N71       1.0  0.64686  0.94359  0.04255  1.0000
  C   C1288     1.0  0.66038  0.74954  0.10994  1.0000
  H   H2276     1.0  0.55342  0.74234  0.15875  1.0000
  C   C1289     1.0  0.71735  0.66900  0.18152  1.0000
  C   C1290     1.0  0.72481  0.63504  0.18255  1.0000
  C   C1291     1.0  0.75489  0.62349  0.17558  1.0000
  C   C1292     1.0  0.77838  0.64602  0.16824  1.0000
  C   C1293     1.0  0.77150  0.68017  0.16761  1.0000
  C   C1294     1.0  0.74058  0.69165  0.17393  1.0000
  H   H2277     1.0  0.70733  0.61752  0.18873  1.0000
  H   H2278     1.0  0.76024  0.59712  0.17615  1.0000
  H   H2279     1.0  0.78983  0.69762  0.16203  1.0000
  H   H2280     1.0  0.73496  0.71790  0.17311  1.0000
  C   C1295     1.0  0.97043  0.54575  0.13823  1.0000
  H   H2281     1.0  0.79030  0.60721  0.05862  1.0000
  C   C1296     1.0  0.99361  0.52871  0.07151  1.0000
  H   H2282     1.0  0.91717  0.55373  0.13830  1.0000
  C   C1297     1.0  0.72939  0.68447  0.00498  1.0000
  H   H2283     1.0  0.76187  0.60771  0.01427  1.0000
  C   C1298     1.0  0.70165  0.66465  0.00477  1.0000
  H   H2284     1.0  0.67960  0.74340  0.10083  1.0000
  H   H2285     1.0  0.67913  0.66874  0.01209  1.0000
  C   C1299     1.0  0.69191  0.64099  0.08896  1.0000
  C   C1300     1.0  0.72185  0.65150  0.08071  1.0000
  C   C1301     1.0  0.75161  0.63408  0.08314  1.0000
  C   C1302     1.0  0.75162  0.60593  0.09372  1.0000
  C   C1303     1.0  0.72170  0.59543  0.10198  1.0000
  C   C1304     1.0  0.69194  0.61298  0.09960  1.0000
  H   H2286     1.0  0.72213  0.67323  0.07259  1.0000
  H   H2287     1.0  0.77480  0.64287  0.07709  1.0000
  H   H2288     1.0  0.72146  0.57366  0.11012  1.0000
  H   H2289     1.0  0.66884  0.60481  0.10600  1.0000
  C   C1305     1.0  0.75867  0.86639  0.06861  1.0000
  C   C1306     1.0  0.73016  0.87627  0.07738  1.0000
  C   C1307     1.0  0.69918  0.86269  0.07614  1.0000
  C   C1308     1.0  0.69658  0.83831  0.06641  1.0000
  C   C1309     1.0  0.72521  0.82713  0.05808  1.0000
  C   C1310     1.0  0.75627  0.84116  0.05920  1.0000
  H   H2290     1.0  0.73190  0.89428  0.08520  1.0000
  H   H2291     1.0  0.67720  0.87137  0.08264  1.0000
  H   H2292     1.0  0.72330  0.80840  0.05046  1.0000
  H   H2293     1.0  0.77822  0.83329  0.05239  1.0000
  C   C1311     1.0  0.72194  0.92515  0.12934  1.0000
  C   C1312     1.0  0.70492  0.91474  0.14354  1.0000
  C   C1313     1.0  0.69592  0.88131  0.14730  1.0000
  C   C1314     1.0  0.70360  0.85831  0.13677  1.0000
  C   C1315     1.0  0.72071  0.86876  0.12264  1.0000
  C   C1316     1.0  0.73009  0.90197  0.11902  1.0000
  H   H2294     1.0  0.69838  0.93261  0.15156  1.0000
  H   H2295     1.0  0.68257  0.87349  0.15820  1.0000
  H   H2296     1.0  0.72669  0.85118  0.11441  1.0000
  H   H2297     1.0  0.74360  0.90974  0.10818  1.0000
  H   H2298     1.0  0.81900  0.72835  0.97613  1.0000
  C   C1317     1.0  0.92665  0.99172  0.07684  1.0000
  C   C1318     1.0  0.96119  0.98518  0.07441  1.0000
  H   H2299     1.0  0.90919  0.97657  0.07235  1.0000
  H   H2300     1.0  0.97004  0.96486  0.06806  1.0000
  H   H2301     1.0  0.54659  0.83257  0.07829  1.0000
  C   C1319     1.0  0.75078  0.78327  0.98321  1.0000
  H   H2302     1.0  0.57571  0.85428  0.09826  1.0000
  H   H2303     1.0  0.55955  0.78766  0.04892  1.0000
  H   H2304     1.0  0.53689  0.65964  0.17602  1.0000
  H   H2305     1.0  0.64941  0.85251  0.10699  1.0000
  C   C1320     1.0  0.60511  0.66006  0.15083  1.0000
  H   H2306     1.0  0.81134  0.65907  0.05420  1.0000
  N   N72       1.0  0.76876  0.70082  0.11779  1.0000
  C   C1321     1.0  0.77735  0.71242  0.10121  1.0000
  C   C1322     1.0  0.79654  0.67886  0.12363  1.0000
  C   C1323     1.0  0.73767  0.68025  0.11919  1.0000
  C   C1324     1.0  0.76156  0.72935  0.12724  1.0000
  C   C1325     1.0  0.79010  0.75402  0.12714  1.0000
  C   C1326     1.0  0.75082  0.73401  0.09329  1.0000
  C   C1327     1.0  0.72507  0.66498  0.13545  1.0000
  C   C1328     1.0  0.83269  0.68668  0.11643  1.0000
  C   C1329     1.0  0.85865  0.66903  0.12575  1.0000
  C   C1330     1.0  0.77844  0.78319  0.13594  1.0000
  C   C1331     1.0  0.76490  0.74875  0.07750  1.0000
  C   C1332     1.0  0.69693  0.64068  0.13523  1.0000
  H   H2307     1.0  0.78277  0.69054  0.09473  1.0000
  H   H2308     1.0  0.80046  0.72708  0.09937  1.0000
  H   H2309     1.0  0.79602  0.67899  0.13608  1.0000
  H   H2310     1.0  0.79278  0.65238  0.12193  1.0000
  H   H2311     1.0  0.74175  0.65964  0.11189  1.0000
  H   H2312     1.0  0.71643  0.69518  0.11505  1.0000
  H   H2313     1.0  0.73874  0.74327  0.12419  1.0000
  H   H2314     1.0  0.75566  0.71989  0.13935  1.0000
  H   H2315     1.0  0.79945  0.76425  0.11549  1.0000
  H   H2316     1.0  0.81079  0.74152  0.13285  1.0000
  H   H2317     1.0  0.72924  0.71871  0.09183  1.0000
  H   H2318     1.0  0.74212  0.75503  0.09973  1.0000
  H   H2319     1.0  0.71497  0.68462  0.14249  1.0000
  H   H2320     1.0  0.74520  0.65141  0.14111  1.0000
  H   H2321     1.0  0.83639  0.67818  0.10493  1.0000
  H   H2322     1.0  0.83815  0.71346  0.11533  1.0000
  H   H2323     1.0  0.88399  0.67369  0.11987  1.0000
  H   H2324     1.0  0.85737  0.67832  0.13706  1.0000
  H   H2325     1.0  0.85455  0.64192  0.12727  1.0000
  H   H2326     1.0  0.76521  0.77447  0.14716  1.0000
  H   H2327     1.0  0.80030  0.79769  0.13780  1.0000
  H   H2328     1.0  0.76139  0.79960  0.12945  1.0000
  H   H2329     1.0  0.77157  0.72875  0.07011  1.0000
  H   H2330     1.0  0.74586  0.76517  0.07239  1.0000
  H   H2331     1.0  0.78712  0.76402  0.07806  1.0000
  H   H2332     1.0  0.68671  0.63242  0.14701  1.0000
  H   H2333     1.0  0.67674  0.65240  0.12891  1.0000
  H   H2334     1.0  0.70642  0.61848  0.12986  1.0000
  C   C1333     1.0  0.61816  0.69046  0.14051  1.0000
  H   H2335     1.0  0.90109  0.53565  0.11178  1.0000
  H   H2336     1.0  0.62094  0.68462  0.12856  1.0000
  H   H2337     1.0  0.60051  0.71174  0.14149  1.0000
  H   H2338     1.0  0.64288  0.69754  0.14345  1.0000
  H   H2339     1.0  0.72694  0.84790  0.19526  1.0000
  H   H2340     1.0  0.72372  0.57898  0.03302  1.0000
  C   C1334     1.0  0.89780  0.52648  0.10077  1.0000
  H   H2341     1.0  0.66335  0.91329  0.10810  1.0000
  C   C1335     1.0  0.61239  0.53408  0.14077  1.0000
  C   C1336     1.0  0.60452  0.60703  0.17681  1.0000
  C   C1337     1.0  0.64256  0.60706  0.17793  1.0000
  H   H2342     1.0  0.62512  0.58639  0.13553  1.0000
  H   H2343     1.0  0.81369  0.79264  0.17291  1.0000
  H   H2344     1.0  0.69545  0.98382  0.20583  1.0000
  H   H2345     1.0  0.74851  0.74141  0.19792  1.0000
  H   H2346     1.0  0.53965  0.70992  0.08759  1.0000
  C   C1338     1.0  0.98436  0.00476  0.08004  1.0000
  C   C1339     1.0  0.82968  0.71622  0.96610  1.0000
  C   C1340     1.0  0.58714  0.86929  0.04170  1.0000
  H   H2347     1.0  0.93564  0.55794  0.08877  1.0000
  H   H2348     1.0  0.59565  0.93051  0.05015  1.0000
  H   H2349     1.0  0.52924  0.61796  0.19974  1.0000
  N   N73       1.0  0.82705  0.93625  0.14544  1.0000
  C   C1341     1.0  0.80949  0.91403  0.13638  1.0000
  C   C1342     1.0  0.80202  0.96062  0.15195  1.0000
  C   C1343     1.0  0.99444  0.57539  0.09647  1.0000
  C   C1344     1.0  0.82388  0.66283  0.20354  1.0000
  C   C1345     1.0  0.82879  0.88448  0.16562  1.0000
  C   C1346     1.0  0.83233  0.89112  0.12672  1.0000
  C   C1347     1.0  0.85226  0.95607  0.13453  1.0000
  C   C1348     1.0  0.77362  0.94615  0.16365  1.0000
  C   C1349     1.0  0.65481  0.98136  0.08048  1.0000
  H   H2350     1.0  0.77996  0.69034  0.19803  1.0000
  C   C1350     1.0  0.81190  0.86674  0.11970  1.0000
  H   H2351     1.0  0.78585  0.66583  0.02254  1.0000
  H   H2352     1.0  0.79444  0.92932  0.12844  1.0000
  H   H2353     1.0  0.79102  0.89818  0.14371  1.0000
  H   H2354     1.0  0.62056  0.98021  0.05546  1.0000
  H   H2355     1.0  0.92428  0.52474  0.07881  1.0000
  C   C1351     1.0  0.84614  0.57224  0.06008  1.0000
  H   H2356     1.0  0.87206  0.93941  0.12979  1.0000
  H   H2357     1.0  0.51512  0.82919  0.05508  1.0000
  H   H2358     1.0  0.83409  0.84829  0.18504  1.0000
  H   H2359     1.0  0.83156  0.86469  0.15791  1.0000
  H   H2360     1.0  0.80188  0.88725  0.16905  1.0000
  H   H2361     1.0  0.84693  0.90580  0.11717  1.0000
  H   H2362     1.0  0.85026  0.87697  0.13357  1.0000
  H   H2363     1.0  0.77954  0.87691  0.19720  1.0000
  C   C1352     1.0  0.52899  0.76022  0.03651  1.0000
  H   H2364     1.0  0.76043  0.92605  0.15940  1.0000
  H   H2365     1.0  0.78382  0.93665  0.17437  1.0000
  C   C1353     1.0  0.84494  0.91718  0.15774  1.0000
  H   H2366     1.0  0.59185  0.85553  0.05271  1.0000
  H   H2367     1.0  0.97086  0.57360  0.10413  1.0000
  H   H2368     1.0  0.51570  0.70600  0.14771  1.0000
  H   H2369     1.0  0.67497  0.99865  0.07556  1.0000
  H   H2370     1.0  0.87060  0.91005  0.15320  1.0000
  H   H2371     1.0  0.79379  0.85369  0.12840  1.0000
  H   H2372     1.0  0.79808  0.88004  0.11074  1.0000
  H   H2373     1.0  0.82867  0.84817  0.11440  1.0000
  H   H2374     1.0  0.62558  0.90311  0.05800  1.0000
  C   C1354     1.0  0.72224  0.59316  0.04303  1.0000
  N   N74       1.0  0.78136  0.61748  0.03511  1.0000
  N   N75       1.0  0.60325  0.82763  0.11530  1.0000
  C   C1355     1.0  0.57378  0.83022  0.12706  1.0000
  C   C1356     1.0  0.79129  0.68055  0.20837  1.0000
  C   C1357     1.0  0.62028  0.79450  0.11856  1.0000
  C   C1358     1.0  0.62800  0.85462  0.11577  1.0000
  C   C1359     1.0  0.61443  0.89065  0.11319  1.0000
  C   C1360     1.0  0.58210  0.83340  0.14342  1.0000
  C   C1361     1.0  0.64023  0.91562  0.11590  1.0000
  C   C1362     1.0  0.55036  0.83404  0.15436  1.0000
  H   H2375     1.0  0.55785  0.80799  0.12774  1.0000
  H   H2376     1.0  0.55728  0.85151  0.12372  1.0000
  H   H2377     1.0  0.63977  0.78689  0.09496  1.0000
  H   H2378     1.0  0.60177  0.77420  0.12052  1.0000
  H   H2379     1.0  0.63190  0.79355  0.12933  1.0000
  H   H2380     1.0  0.63923  0.85157  0.12665  1.0000
  H   H2381     1.0  0.59174  0.89473  0.12094  1.0000
  H   H2382     1.0  0.60845  0.89637  0.10134  1.0000
  H   H2383     1.0  0.59770  0.81224  0.14759  1.0000
  H   H2384     1.0  0.59551  0.85671  0.14399  1.0000
  H   H2385     1.0  0.58170  0.77824  0.09774  1.0000
  H   H2386     1.0  0.63005  0.94119  0.11391  1.0000
  H   H2387     1.0  0.64634  0.91166  0.12778  1.0000
  H   H2388     1.0  0.52425  0.67400  0.08013  1.0000
  H   H2389     1.0  0.83792  0.60126  0.01481  1.0000
  H   H2390     1.0  0.62322  0.63951  0.14907  1.0000
  H   H2391     1.0  0.84019  0.96821  0.12464  1.0000
  H   H2392     1.0  0.63959  0.73201  0.11023  1.0000
  H   H2393     1.0  0.64779  0.55298  0.17911  1.0000
  H   H2394     1.0  0.58113  0.65344  0.14703  1.0000
  C   C1363     1.0  0.79716  0.76234  0.19378  1.0000
  C   C1364     1.0  0.75845  0.67886  0.99545  1.0000
  H   H2395     1.0  0.93723  0.97880  0.98151  1.0000
  C   C1365     1.0  0.59086  0.83114  0.09987  1.0000
  H   H2396     1.0  0.80274  0.71965  0.03101  1.0000
  H   H2397     1.0  0.66982  0.94151  0.19154  1.0000
  C   C1366     1.0  0.64833  0.78518  0.10638  1.0000
  C   C1367     1.0  0.56875  0.80264  0.09653  1.0000
  C   C1368     1.0  0.55029  0.63531  0.17641  1.0000
  C   C1369     1.0  0.76450  0.86728  0.20738  1.0000
  H   H2398     1.0  0.67005  0.80165  0.10593  1.0000
  H   H2399     1.0  0.84211  0.70035  0.03522  1.0000
  C   C1370     1.0  0.60574  0.99693  0.01004  1.0000
  H   H2400     1.0  0.81625  0.71974  0.04958  1.0000
  C   C1371     1.0  0.83376  0.58874  0.04546  1.0000
  C   C1372     1.0  0.56956  0.67939  0.19930  1.0000
  H   H2401     1.0  0.84311  0.58942  0.06904  1.0000
  C   C1373     1.0  0.71124  0.94853  0.03944  1.0000
  H   H2402     1.0  0.61205  0.83437  0.09081  1.0000
  H   H2403     1.0  0.67123  0.74648  0.12093  1.0000
  H   H2404     1.0  0.58455  0.68966  0.16823  1.0000
  H   H2405     1.0  0.75801  0.76329  0.99180  1.0000
  C   C1374     1.0  0.68025  0.92598  0.04108  1.0000
  C   C1375     1.0  0.60067  0.66714  0.16767  1.0000
  H   H2406     1.0  0.77228  0.77682  0.17361  1.0000
  H   H2407     1.0  0.65403  0.55791  0.12677  1.0000
  H   H2408     1.0  0.68247  0.91155  0.03109  1.0000
  H   H2409     1.0  0.57588  0.51528  0.20233  1.0000
  H   H2410     1.0  0.83209  0.54924  0.06420  1.0000
  C   C1376     1.0  0.81459  0.60490  0.00938  1.0000
  H   H2411     1.0  0.72372  0.78148  0.98218  1.0000
  C   C1377     1.0  0.92575  0.96292  0.97414  1.0000
  C   C1378     1.0  0.75984  0.65363  0.98577  1.0000
  Fe  Fe152     1.0  0.76505  0.52259  0.14987  1.0000
  H   H2412     1.0  0.54846  0.62666  0.16513  1.0000
  H   H2413     1.0  0.60010  0.59830  0.16582  1.0000
  H   H2414     1.0  0.57859  0.70181  0.19193  1.0000
  H   H2415     1.0  0.65490  0.62842  0.17100  1.0000
  H   H2416     1.0  0.68155  0.62405  0.99500  1.0000
  C   C1379     1.0  0.70308  0.63935  0.99509  1.0000
  H   H2417     1.0  0.66320  0.98847  0.05041  1.0000
  H   H2418     1.0  0.56267  0.54481  0.13525  1.0000
  C   C1380     1.0  0.73216  0.63381  0.98555  1.0000
  S   S311      1.0  0.62966  0.75704  0.20213  1.0000
  C   C1381     1.0  0.65929  0.57547  0.17262  1.0000
  H   H2419     1.0  0.85367  0.00493  0.14307  1.0000
  Fe  Fe153     1.0  0.66124  0.80235  0.19752  1.0000
  C   C1382     1.0  0.78305  0.59969  0.02094  1.0000
  H   H2420     1.0  0.64756  0.94634  0.01811  1.0000
  C   C1383     1.0  0.89987  0.99700  0.12991  1.0000
  H   H2421     1.0  0.76504  0.94546  0.03518  1.0000
  H   H2422     1.0  0.71386  0.95865  0.05029  1.0000
  C   C1384     1.0  0.74322  0.92928  0.03521  1.0000
  N   N76       1.0  0.58626  0.63936  0.17890  1.0000
  H   H2423     1.0  0.63869  0.87744  0.03413  1.0000
  H   H2424     1.0  0.68616  0.57513  0.17431  1.0000
  C   C1385     1.0  0.77126  0.78039  0.96798  1.0000
  C   C1386     1.0  0.58935  0.64811  0.19468  1.0000
  H   H2425     1.0  0.65991  0.98305  0.02479  1.0000
  H   H2426     1.0  0.81682  0.77268  0.19951  1.0000
  H   H2427     1.0  0.75327  0.99100  0.20410  1.0000
  H   H2428     1.0  0.79055  0.97562  0.14256  1.0000
  C   C1387     1.0  0.81596  0.70494  0.03983  1.0000
  C   C1388     1.0  0.84556  0.87191  0.17975  1.0000
  H   H2429     1.0  0.81440  0.97858  0.15799  1.0000
  H   H2430     1.0  0.54534  0.80135  0.10428  1.0000
  H   H2431     1.0  0.87297  0.56564  0.05801  1.0000
  C   C1389     1.0  0.76492  0.75439  0.20460  1.0000
  C   C1390     1.0  0.97250  0.52129  0.04619  1.0000
  H   H2432     1.0  0.64735  0.60819  0.18988  1.0000
  H   H2433     1.0  0.70960  0.96968  0.03062  1.0000
  H   H2434     1.0  0.54035  0.58508  0.18797  1.0000
  H   H2435     1.0  0.74319  0.92089  0.02378  1.0000
  C   C1391     1.0  0.73474  0.85086  0.20626  1.0000
  H   H2436     1.0  0.63143  0.93728  0.07572  1.0000
  H   H2437     1.0  0.57264  0.56453  0.15079  1.0000
  H   H2438     1.0  0.72912  0.57642  0.05291  1.0000
  C   C1392     1.0  0.81552  0.58111  0.99717  1.0000
  Fe  Fe154     1.0  0.84096  0.51980  0.14006  1.0000
  C   C1393     1.0  0.64187  0.96246  0.02743  1.0000
  H   H2439     1.0  0.55693  0.83680  0.16593  1.0000
  H   H2440     1.0  0.67391  0.89802  0.19787  1.0000
  H   H2441     1.0  0.80746  0.73951  0.18908  1.0000
  H   H2442     1.0  0.58496  0.85094  0.03348  1.0000
  H   H2443     1.0  0.78380  0.57160  0.04977  1.0000
  H   H2444     1.0  0.01210  0.99365  0.04343  1.0000
  H   H2445     1.0  0.74585  0.90741  0.04355  1.0000
  H   H2446     1.0  0.78250  0.64897  0.97872  1.0000
  H   H2447     1.0  0.75930  0.99332  0.17239  1.0000
  H   H2448     1.0  0.77998  0.81083  0.18432  1.0000
  H   H2449     1.0  0.58226  0.62684  0.20326  1.0000
  H   H2450     1.0  0.63096  0.99553  0.08175  1.0000
  C   C1394     1.0  0.93711  0.53549  0.13881  1.0000
  H   H2451     1.0  0.59463  0.58726  0.18561  1.0000
  H   H2452     1.0  0.68257  0.90704  0.05090  1.0000
  C   C1395     1.0  0.79800  0.65079  0.03163  1.0000
  C   C1396     1.0  0.79594  0.59621  0.04775  1.0000
  H   H2453     1.0  0.72772  0.96190  0.17597  1.0000
  C   C1397     1.0  0.60695  0.97850  0.02584  1.0000
  H   H2454     1.0  0.87167  0.69796  0.97798  1.0000
  C   C1398     1.0  0.79022  0.78723  0.18036  1.0000
  S   S312      1.0  0.73350  0.60131  0.97386  1.0000
  H   H2455     1.0  0.60086  0.99683  0.03412  1.0000
  H   H2456     1.0  0.67708  0.61902  0.03670  1.0000
  H   H2457     1.0  0.79785  0.78221  0.96974  1.0000
  H   H2458     1.0  0.73615  0.98314  0.15725  1.0000
  H   H2459     1.0  0.82435  0.64822  0.02697  1.0000
  N   N77       1.0  0.99338  0.51593  0.08804  1.0000
  H   H2460     1.0  0.61580  0.65272  0.19604  1.0000
  H   H2461     1.0  0.58714  0.95959  0.02752  1.0000
  C   C1399     1.0  0.64548  0.96797  0.05423  1.0000
  H   H2462     1.0  0.61078  0.97961  0.00121  1.0000
  H   H2463     1.0  0.77990  0.57252  0.02402  1.0000
  C   C1400     1.0  0.74771  0.97287  0.16754  1.0000
  C   C1401     1.0  0.61577  0.89283  0.03588  1.0000
  H   H2464     1.0  0.54251  0.67705  0.19855  1.0000
  C   C1402     1.0  0.79813  0.67222  0.04500  1.0000
  H   H2465     1.0  0.88059  0.97409  0.15184  1.0000
  H   H2466     1.0  0.61016  0.90534  0.02477  1.0000
  H   H2467     1.0  0.73418  0.64216  0.03178  1.0000
  C   C1403     1.0  0.52127  0.74459  0.17944  1.0000
  C   C1404     1.0  0.62014  0.91816  0.04735  1.0000
  H   H2468     1.0  0.58062  0.00811  0.00905  1.0000
  H   H2469     1.0  0.77250  0.67874  0.04961  1.0000
  H   H2470     1.0  0.75539  0.80752  0.98728  1.0000
  C   C1405     1.0  0.62720  0.56307  0.13000  1.0000
  H   H2471     1.0  0.87700  0.54079  0.09587  1.0000
  C   C1406     1.0  0.57493  0.54045  0.14582  1.0000
  H   H2472     1.0  0.74227  0.63544  0.05098  1.0000
  H   H2473     1.0  0.84232  0.89022  0.18823  1.0000
  C   C1407     1.0  0.65215  0.95349  0.07043  1.0000
  C   C1408     1.0  0.52143  0.52308  0.16088  1.0000
  H   H2474     1.0  0.57700  0.53630  0.17490  1.0000
  H   H2475     1.0  0.87257  0.86734  0.17677  1.0000
  H   H2476     1.0  0.66092  0.97087  0.09185  1.0000
  H   H2477     1.0  0.84853  0.93350  0.16669  1.0000
  H   H2478     1.0  0.67554  0.93868  0.07043  1.0000
  Fe  Fe155     1.0  0.76044  0.00720  0.06801  1.0000
  H   H2479     1.0  0.65750  0.57457  0.16036  1.0000
  C   C1409     1.0  0.74507  0.62394  0.04019  1.0000
  H   H2480     1.0  0.84843  0.61152  0.04204  1.0000
  H   H2481     1.0  0.84121  0.68023  0.19632  1.0000
  H   H2482     1.0  0.76341  0.72698  0.97088  1.0000
  C   C1410     1.0  0.87070  0.98357  0.14105  1.0000
  H   H2483     1.0  0.67007  0.58119  0.04905  1.0000
  H   H2484     1.0  0.56317  0.88323  0.04309  1.0000
  H   H2485     1.0  0.61442  0.56643  0.11952  1.0000
  C   C1411     1.0  0.68586  0.60354  0.04656  1.0000
  H   H2486     1.0  0.97578  0.57193  0.13727  1.0000
  S   S313      1.0  0.81053  0.53180  0.16154  1.0000
  H   H2487     1.0  0.68278  0.61777  0.05661  1.0000
  H   H2488     1.0  0.82352  0.96532  0.20598  1.0000
  H   H2489     1.0  0.75175  0.77824  0.20662  1.0000
  H   H2490     1.0  0.79275  0.58415  0.99119  1.0000
  H   H2491     1.0  0.83749  0.58645  0.98871  1.0000
  H   H2492     1.0  0.83898  0.57119  0.03675  1.0000
  C   C1412     1.0  0.55942  0.80825  0.08034  1.0000
  H   H2493     1.0  0.89867  0.96120  0.97792  1.0000
  H   H2494     1.0  0.81755  0.55501  0.00222  1.0000
  C   C1413     1.0  0.92978  0.53125  0.09003  1.0000
  C   C1414     1.0  0.99683  0.52249  0.13886  1.0000
  C   C1415     1.0  0.52991  0.61059  0.18810  1.0000
  C   C1416     1.0  0.53006  0.70076  0.07761  1.0000
  C   C1417     1.0  0.81739  0.99010  0.20986  1.0000
  H   H2495     1.0  0.72299  0.92780  0.20266  1.0000
  H   H2496     1.0  0.53652  0.81055  0.15484  1.0000
  C   C1418     1.0  0.67080  0.92323  0.20168  1.0000
  H   H2497     1.0  0.00447  0.62375  0.10319  1.0000
  H   H2498     1.0  0.01247  0.53124  0.10793  1.0000
  H   H2499     1.0  0.58209  0.80760  0.07215  1.0000
  H   H2500     1.0  0.89086  0.00745  0.11905  1.0000
  H   H2501     1.0  0.64687  0.92400  0.20904  1.0000
  H   H2502     1.0  0.82078  0.72043  0.21409  1.0000
  C   C1419     1.0  0.53541  0.78615  0.04488  1.0000
  H   H2503     1.0  0.53399  0.85525  0.15088  1.0000
  H   H2504     1.0  0.95078  0.53818  0.04823  1.0000
  H   H2505     1.0  0.91859  0.97714  0.12764  1.0000
  H   H2506     1.0  0.54992  0.70352  0.06796  1.0000
  H   H2507     1.0  0.62743  0.53097  0.15050  1.0000
  H   H2508     1.0  0.83593  0.65212  0.21360  1.0000
  H   H2509     1.0  0.81291  0.00802  0.19997  1.0000
  H   H2510     1.0  0.97823  0.55156  0.07002  1.0000
  H   H2511     1.0  0.98935  0.58685  0.08513  1.0000
  H   H2512     1.0  0.96788  0.55116  0.96797  1.0000
  H   H2513     1.0  0.99378  0.53577  0.04012  1.0000
  H   H2514     1.0  0.72296  0.52843  0.96724  1.0000
  H   H2515     1.0  0.67924  0.53144  0.97349  1.0000
  H   H2516     1.0  0.54262  0.78834  0.07832  1.0000
  H   H2517     1.0  0.51890  0.53852  0.17056  1.0000
  C   C1420     1.0  0.86713  0.71195  0.96699  1.0000
  H   H2518     1.0  0.81910  0.69116  0.96688  1.0000
  C   C1421     1.0  0.69995  0.93032  0.21040  1.0000
  H   H2519     1.0  0.76322  0.95017  0.21192  1.0000
  C   C1422     1.0  0.01085  0.54058  0.09591  1.0000
  N   N78       1.0  0.55764  0.51377  0.15680  1.0000
  H   H2520     1.0  0.87929  0.73646  0.96610  1.0000
  H   H2521     1.0  0.93732  0.93779  0.97549  1.0000
  H   H2522     1.0  0.77421  0.66169  0.21478  1.0000
  H   H2523     1.0  0.83916  0.99848  0.21501  1.0000
  C   C1423     1.0  0.75611  0.97545  0.21497  1.0000
  Fe  Fe156     1.0  0.58924  0.89735  0.45373  1.0000
  S   S314      1.0  0.62613  0.89670  0.43303  1.0000
  H   H2524     1.0  0.62820  0.70209  0.42529  1.0000
  H   H2525     1.0  0.81945  0.77293  0.25219  1.0000
  S   S315      1.0  0.56371  0.91679  0.41327  1.0000
  H   H2526     1.0  0.68525  0.79236  0.45112  1.0000
  Fe  Fe157     1.0  0.58609  0.86970  0.42344  1.0000
  S   S316      1.0  0.59563  0.82618  0.40932  1.0000
  Fe  Fe158     1.0  0.60009  0.94387  0.42478  1.0000
  C   C1424     1.0  0.99327  0.97042  0.25846  1.0000
  S   S317      1.0  0.55135  0.86680  0.44482  1.0000
  S   S318      1.0  0.56560  0.94626  0.44607  1.0000
  N   N79       1.0  0.72979  0.91148  0.31511  1.0000
  N   N80       1.0  0.76883  0.73409  0.21953  1.0000
  H   H2527     1.0  0.70642  0.75114  0.23768  1.0000
  Fe  Fe159     1.0  0.82920  0.90197  0.24504  1.0000
  S   S319      1.0  0.79962  0.89785  0.26799  1.0000
  H   H2528     1.0  0.97609  0.56130  0.30209  1.0000
  Fe  Fe160     1.0  0.89297  0.91797  0.25773  1.0000
  S   S320      1.0  0.86842  0.91541  0.28146  1.0000
  S   S321      1.0  0.94850  0.92377  0.25471  1.0000
  Fe  Fe161     1.0  0.84445  0.86962  0.27610  1.0000
  S   S322      1.0  0.84104  0.82367  0.29315  1.0000
  Fe  Fe162     1.0  0.82640  0.94417  0.27136  1.0000
  H   H2529     1.0  0.69999  0.91090  0.22012  1.0000
  S   S323      1.0  0.87168  0.87016  0.25287  1.0000
  S   S324      1.0  0.85318  0.95040  0.24788  1.0000
  Fe  Fe163     1.0  0.98843  0.69547  0.31947  1.0000
  C   C1425     1.0  0.99122  0.52393  0.33248  1.0000
  S   S325      1.0  0.97539  0.74330  0.30516  1.0000
  H   H2530     1.0  0.94303  0.67816  0.40014  1.0000
  Fe  Fe164     1.0  0.98143  0.62152  0.33154  1.0000
  S   S326      1.0  0.94639  0.57724  0.33331  1.0000
  H   H2531     1.0  0.94530  0.63767  0.38105  1.0000
  S   S327      1.0  0.96461  0.66930  0.34144  1.0000
  H   H2532     1.0  0.97919  0.80688  0.34311  1.0000
  H   H2533     1.0  0.79048  0.80634  0.24785  1.0000
  H   H2534     1.0  0.01147  0.88514  0.25746  1.0000
  H   H2535     1.0  0.68546  0.97199  0.46235  1.0000
  C   C1426     1.0  0.51485  0.74962  0.40604  1.0000
  C   C1427     1.0  0.87830  0.80114  0.29651  1.0000
  C   C1428     1.0  0.87733  0.77286  0.30716  1.0000
  C   C1429     1.0  0.90668  0.75458  0.30996  1.0000
  C   C1430     1.0  0.93726  0.76444  0.30206  1.0000
  C   C1431     1.0  0.93811  0.79270  0.29145  1.0000
  C   C1432     1.0  0.90892  0.81099  0.28870  1.0000
  H   H2536     1.0  0.85377  0.76501  0.31324  1.0000
  H   H2537     1.0  0.90564  0.73289  0.31816  1.0000
  H   H2538     1.0  0.96148  0.80035  0.28520  1.0000
  H   H2539     1.0  0.91010  0.83265  0.28048  1.0000
  H   H2540     1.0  0.00214  0.80883  0.26232  1.0000
  C   C1433     1.0  0.01324  0.75875  0.41003  1.0000
  H   H2541     1.0  0.83362  0.91745  0.31223  1.0000
  H   H2542     1.0  0.71620  0.91462  0.33894  1.0000
  C   C1434     1.0  0.96319  0.96450  0.25285  1.0000
  C   C1435     1.0  0.01007  0.89936  0.29219  1.0000
  C   C1436     1.0  0.76385  0.92595  0.31557  1.0000
  H   H2543     1.0  0.00349  0.87892  0.30122  1.0000
  C   C1437     1.0  0.96994  0.78311  0.34014  1.0000
  H   H2544     1.0  0.67672  0.69750  0.24166  1.0000
  H   H2545     1.0  0.67168  0.96634  0.22238  1.0000
  H   H2546     1.0  0.95909  0.52280  0.25815  1.0000
  C   C1438     1.0  0.97507  0.83902  0.24659  1.0000
  C   C1439     1.0  0.75438  0.86019  0.23470  1.0000
  C   C1440     1.0  0.72437  0.84427  0.23358  1.0000
  H   H2547     1.0  0.67008  0.88557  0.35624  1.0000
  C   C1441     1.0  0.70610  0.93939  0.31054  1.0000
  H   H2548     1.0  0.76166  0.86391  0.24569  1.0000
  H   H2549     1.0  0.70859  0.83577  0.24376  1.0000
  C   C1442     1.0  0.56353  0.79787  0.40787  1.0000
  C   C1443     1.0  0.56640  0.77761  0.39593  1.0000
  H   H2550     1.0  0.97768  0.86240  0.23887  1.0000
  C   C1444     1.0  0.99675  0.76421  0.39532  1.0000
  H   H2551     1.0  0.59003  0.68804  0.43650  1.0000
  C   C1445     1.0  0.67418  0.71534  0.23150  1.0000
  H   H2552     1.0  0.58764  0.78025  0.38745  1.0000
  H   H2553     1.0  0.55095  0.56751  0.39805  1.0000
  H   H2554     1.0  0.65189  0.73129  0.23387  1.0000
  H   H2555     1.0  0.54885  0.98944  0.41579  1.0000
  H   H2556     1.0  0.64009  0.99141  0.44275  1.0000
  C   C1446     1.0  0.94075  0.70691  0.37769  1.0000
  C   C1447     1.0  0.61739  0.73761  0.45080  1.0000
  H   H2557     1.0  0.99145  0.76699  0.33668  1.0000
  C   C1448     1.0  0.54196  0.75386  0.39490  1.0000
  H   H2558     1.0  0.60580  0.71672  0.45857  1.0000
  H   H2559     1.0  0.58844  0.71180  0.41835  1.0000
  H   H2560     1.0  0.75399  0.77447  0.23301  1.0000
  H   H2561     1.0  0.95516  0.78860  0.33035  1.0000
  H   H2562     1.0  0.76478  0.80943  0.29641  1.0000
  H   H2563     1.0  0.61622  0.80506  0.43958  1.0000
  C   C1449     1.0  0.71651  0.89588  0.33064  1.0000
  H   H2564     1.0  0.70515  0.81862  0.42552  1.0000
  N   N81       1.0  0.72362  0.97482  0.22515  1.0000
  C   C1450     1.0  0.60180  0.70861  0.42868  1.0000
  H   H2565     1.0  0.57257  0.74664  0.43860  1.0000
  C   C1451     1.0  0.00999  0.86150  0.26513  1.0000
  Fe  Fe165     1.0  0.53130  0.91558  0.43526  1.0000
  H   H2566     1.0  0.89947  0.75762  0.37769  1.0000
  H   H2567     1.0  0.98512  0.78917  0.39469  1.0000
  H   H2568     1.0  0.74693  0.95784  0.24537  1.0000
  H   H2569     1.0  0.82904  0.76305  0.22550  1.0000
  C   C1452     1.0  0.69125  0.98591  0.29067  1.0000
  C   C1453     1.0  0.88579  0.81126  0.39189  1.0000
  H   H2570     1.0  0.61086  0.76050  0.42772  1.0000
  S   S328      1.0  0.62412  0.99000  0.41178  1.0000
  H   H2571     1.0  0.92328  0.98616  0.24076  1.0000
  C   C1454     1.0  0.89657  0.99977  0.28837  1.0000
  C   C1455     1.0  0.94621  0.99073  0.24538  1.0000
  H   H2572     1.0  0.60071  0.68817  0.21694  1.0000
  H   H2573     1.0  0.83377  0.81019  0.24077  1.0000
  H   H2574     1.0  0.99076  0.74401  0.36408  1.0000
  S   S329      1.0  0.80305  0.98507  0.28480  1.0000
  H   H2575     1.0  0.97520  0.57423  0.28214  1.0000
  C   C1456     1.0  0.79668  0.70865  0.21838  1.0000
  C   C1457     1.0  0.94822  0.76537  0.35347  1.0000
  C   C1458     1.0  0.63190  0.79765  0.44892  1.0000
  S   S330      1.0  0.67475  0.82326  0.21855  1.0000
  H   H2576     1.0  0.64311  0.72906  0.44746  1.0000
  H   H2577     1.0  0.93998  0.74208  0.34964  1.0000
  H   H2578     1.0  0.92612  0.78143  0.35594  1.0000
  H   H2579     1.0  0.73013  0.01210  0.24017  1.0000
  C   C1459     1.0  0.67938  0.82302  0.43067  1.0000
  H   H2580     1.0  0.95218  0.84076  0.25459  1.0000
  C   C1460     1.0  0.92014  0.79471  0.38978  1.0000
  H   H2581     1.0  0.71576  0.90682  0.45207  1.0000
  H   H2582     1.0  0.97222  0.81820  0.23973  1.0000
  C   C1461     1.0  0.66840  0.79351  0.44205  1.0000
  H   H2583     1.0  0.91506  0.00238  0.29651  1.0000
  H   H2584     1.0  0.56366  0.51362  0.38938  1.0000
  H   H2585     1.0  0.55469  0.51975  0.41826  1.0000
  H   H2586     1.0  0.70115  0.75460  0.21776  1.0000
  C   C1462     1.0  0.72739  0.94994  0.23868  1.0000
  C   C1463     1.0  0.69609  0.94377  0.25013  1.0000
  H   H2587     1.0  0.80061  0.69643  0.22985  1.0000
  H   H2588     1.0  0.87349  0.81240  0.38130  1.0000
  H   H2589     1.0  0.80305  0.79837  0.22010  1.0000
  C   C1464     1.0  0.96793  0.75856  0.36749  1.0000
  C   C1465     1.0  0.70165  0.91448  0.26188  1.0000
  C   C1466     1.0  0.74767  0.83105  0.29469  1.0000
  C   C1467     1.0  0.80641  0.77747  0.22894  1.0000
  H   H2590     1.0  0.93510  0.80983  0.38052  1.0000
  H   H2591     1.0  0.87776  0.98143  0.29371  1.0000
  C   C1468     1.0  0.92618  0.68204  0.39107  1.0000
  S   S331      1.0  0.80995  0.89582  0.22251  1.0000
  H   H2592     1.0  0.67026  0.70144  0.22179  1.0000
  H   H2593     1.0  0.73671  0.92583  0.23497  1.0000
  C   C1469     1.0  0.73690  0.71551  0.22475  1.0000
  H   H2594     1.0  0.67401  0.93814  0.24454  1.0000
  H   H2595     1.0  0.69078  0.96587  0.25636  1.0000
  H   H2596     1.0  0.53368  0.80911  0.42815  1.0000
  H   H2597     1.0  0.56363  0.66436  0.22361  1.0000
  C   C1470     1.0  0.59944  0.74088  0.43616  1.0000
  H   H2598     1.0  0.77476  0.74082  0.24276  1.0000
  S   S332      1.0  0.00194  0.64797  0.30904  1.0000
  H   H2599     1.0  0.00775  0.82946  0.29178  1.0000
  H   H2600     1.0  0.90377  0.65023  0.37674  1.0000
  H   H2601     1.0  0.88846  0.83700  0.39475  1.0000
  H   H2602     1.0  0.72449  0.91805  0.26735  1.0000
  H   H2603     1.0  0.68006  0.91226  0.27072  1.0000
  H   H2604     1.0  0.70417  0.89106  0.25644  1.0000
  H   H2605     1.0  0.72167  0.82202  0.29649  1.0000
  C   C1471     1.0  0.81278  0.79259  0.24333  1.0000
  H   H2606     1.0  0.66280  0.82647  0.42145  1.0000
  H   H2607     1.0  0.69622  0.93940  0.44059  1.0000
  C   C1472     1.0  0.91729  0.75838  0.38634  1.0000
  C   C1473     1.0  0.68114  0.88103  0.33204  1.0000
  H   H2608     1.0  0.70539  0.87915  0.30198  1.0000
  C   C1474     1.0  0.53611  0.79397  0.41883  1.0000
  H   H2609     1.0  0.67186  0.77101  0.43601  1.0000
  H   H2610     1.0  0.94476  0.52111  0.28301  1.0000
  H   H2611     1.0  0.92215  0.70880  0.36930  1.0000
  C   C1475     1.0  0.00610  0.00249  0.25697  1.0000
  H   H2612     1.0  0.98831  0.90511  0.28571  1.0000
  H   H2613     1.0  0.52126  0.57104  0.41439  1.0000
  C   C1476     1.0  0.71062  0.93393  0.45052  1.0000
  H   H2614     1.0  0.01073  0.54187  0.33222  1.0000
  H   H2615     1.0  0.54452  0.73834  0.38570  1.0000
  H   H2616     1.0  0.98615  0.86297  0.27255  1.0000
  C   C1477     1.0  0.71711  0.00925  0.23003  1.0000
  H   H2617     1.0  0.75305  0.84244  0.28283  1.0000
  C   C1478     1.0  0.69052  0.94519  0.46459  1.0000
  C   C1479     1.0  0.92110  0.64815  0.38567  1.0000
  C   C1480     1.0  0.77464  0.75609  0.23161  1.0000
  H   H2618     1.0  0.99299  0.53421  0.36813  1.0000
  H   H2619     1.0  0.66057  0.86922  0.46036  1.0000
  H   H2620     1.0  0.86977  0.79745  0.40127  1.0000
  H   H2621     1.0  0.67924  0.84598  0.43639  1.0000
  C   C1481     1.0  0.70504  0.73699  0.22781  1.0000
  H   H2622     1.0  0.96314  0.69488  0.37213  1.0000
  C   C1482     1.0  0.98991  0.56062  0.29070  1.0000
  H   H2623     1.0  0.73981  0.69868  0.23526  1.0000
  C   C1483     1.0  0.95801  0.53470  0.33283  1.0000
  C   C1484     1.0  0.77422  0.87232  0.22159  1.0000
  H   H2624     1.0  0.77754  0.91085  0.33847  1.0000
  H   H2625     1.0  0.56763  0.78478  0.45394  1.0000
  C   C1485     1.0  0.97156  0.73635  0.39431  1.0000
  H   H2626     1.0  0.91039  0.63076  0.39532  1.0000
  C   C1486     1.0  0.71934  0.96471  0.29702  1.0000
  H   H2627     1.0  0.74792  0.84296  0.31742  1.0000
  C   C1487     1.0  0.75313  0.85592  0.30589  1.0000
  H   H2628     1.0  0.90165  0.69089  0.39603  1.0000
  H   H2629     1.0  0.90460  0.74502  0.39683  1.0000
  C   C1488     1.0  0.53492  0.52023  0.41053  1.0000
  H   H2630     1.0  0.93149  0.79531  0.40052  1.0000
  H   H2631     1.0  0.73285  0.95252  0.28762  1.0000
  H   H2632     1.0  0.95617  0.73212  0.40544  1.0000
  H   H2633     1.0  0.68255  0.92924  0.30759  1.0000
  H   H2634     1.0  0.00655  0.95022  0.26409  1.0000
  C   C1489     1.0  0.00568  0.83289  0.25525  1.0000
  N   N82       1.0  0.61716  0.76830  0.45905  1.0000
  H   H2635     1.0  0.66527  0.00144  0.24089  1.0000
  H   H2636     1.0  0.68042  0.86086  0.32462  1.0000
  N   N83       1.0  0.94941  0.74087  0.38154  1.0000
  C   C1490     1.0  0.82227  0.92164  0.32375  1.0000
  H   H2637     1.0  0.53071  0.00876  0.45270  1.0000
  H   H2638     1.0  0.73452  0.94742  0.44812  1.0000
  H   H2639     1.0  0.99367  0.93665  0.30720  1.0000
  H   H2640     1.0  0.63145  0.81978  0.45523  1.0000
  H   H2641     1.0  0.83813  0.90899  0.33210  1.0000
  C   C1491     1.0  0.78688  0.98816  0.22162  1.0000
  H   H2642     1.0  0.78912  0.88066  0.32553  1.0000
  C   C1492     1.0  0.78714  0.90756  0.32657  1.0000
  H   H2643     1.0  0.67765  0.99955  0.29964  1.0000
  H   H2644     1.0  0.96276  0.51483  0.23104  1.0000
  H   H2645     1.0  0.64523  0.85581  0.34903  1.0000
  H   H2646     1.0  0.66231  0.90027  0.32903  1.0000
  C   C1493     1.0  0.67062  0.86622  0.34828  1.0000
  H   H2647     1.0  0.77974  0.86296  0.30390  1.0000
  H   H2648     1.0  0.97711  0.78295  0.36965  1.0000
  H   H2649     1.0  0.99456  0.76095  0.41996  1.0000
  H   H2650     1.0  0.74031  0.89940  0.29207  1.0000
  H   H2651     1.0  0.68798  0.84590  0.35183  1.0000
  H   H2652     1.0  0.77753  0.92862  0.30400  1.0000
  H   H2653     1.0  0.79336  0.97100  0.23141  1.0000
  H   H2654     1.0  0.67356  0.97023  0.28599  1.0000
  H   H2655     1.0  0.73311  0.87560  0.33486  1.0000
  C   C1494     1.0  0.71425  0.83994  0.21938  1.0000
  H   H2656     1.0  0.69869  0.95416  0.32024  1.0000
  C   C1495     1.0  0.73091  0.88718  0.30337  1.0000
  H   H2657     1.0  0.98739  0.71360  0.39341  1.0000
  H   H2658     1.0  0.56047  0.70844  0.21835  1.0000
  H   H2659     1.0  0.70191  0.00438  0.28142  1.0000
  H   H2660     1.0  0.68280  0.74196  0.46242  1.0000
  C   C1496     1.0  0.52837  0.55638  0.40469  1.0000
  H   H2661     1.0  0.73671  0.98196  0.30090  1.0000
  H   H2662     1.0  0.76143  0.95149  0.31914  1.0000
  C   C1497     1.0  0.53101  0.00769  0.41090  1.0000
  C   C1498     1.0  0.58117  0.77658  0.46394  1.0000
  H   H2663     1.0  0.90729  0.51904  0.33321  1.0000
  H   H2664     1.0  0.90937  0.99015  0.27803  1.0000
  C   C1499     1.0  0.99666  0.52486  0.28716  1.0000
  H   H2665     1.0  0.52069  0.51924  0.35238  1.0000
  H   H2666     1.0  0.82177  0.94867  0.32488  1.0000
  H   H2667     1.0  0.78709  0.01006  0.25442  1.0000
  H   H2668     1.0  0.73104  0.69926  0.21610  1.0000
  C   C1500     1.0  0.69665  0.96536  0.21596  1.0000
  H   H2669     1.0  0.01013  0.52600  0.27565  1.0000
  H   H2670     1.0  0.01300  0.51320  0.29553  1.0000
  H   H2671     1.0  0.01387  0.57361  0.29054  1.0000
  C   C1501     1.0  0.65262  0.01172  0.43574  1.0000
  C   C1502     1.0  0.57394  0.68529  0.21557  1.0000
  S   S333      1.0  0.98310  0.76843  0.67860  1.0000
  H   H2672     1.0  0.61953  0.86051  0.50693  1.0000
  Fe  Fe166     1.0  0.63514  0.55171  0.56589  1.0000
  S   S334      1.0  0.67510  0.54918  0.58141  1.0000
  S   S335      1.0  0.64102  0.58720  0.54473  1.0000
  Fe  Fe167     1.0  0.63355  0.54662  0.60007  1.0000
  S   S336      1.0  0.63304  0.57977  0.61902  1.0000
  S   S337      1.0  0.59328  0.55390  0.58436  1.0000
  Fe  Fe168     1.0  0.71963  0.75513  0.54880  1.0000
  S   S338      1.0  0.76667  0.76019  0.55948  1.0000
  S   S339      1.0  0.67904  0.72634  0.56333  1.0000
  Fe  Fe169     1.0  0.74311  0.80127  0.52081  1.0000
  S   S340      1.0  0.79192  0.81081  0.52962  1.0000
  S   S341      1.0  0.73493  0.82077  0.49670  1.0000
  Fe  Fe170     1.0  0.79360  0.75581  0.53641  1.0000
  S   S342      1.0  0.83432  0.71816  0.53015  1.0000
  Fe  Fe171     1.0  0.76054  0.81456  0.55197  1.0000
  S   S343      1.0  0.76745  0.84971  0.56959  1.0000
  S   S344      1.0  0.74639  0.74613  0.52635  1.0000
  S   S345      1.0  0.71188  0.80953  0.54251  1.0000
  Fe  Fe172     1.0  0.79289  0.72958  0.66675  1.0000
  S   S346      1.0  0.74851  0.73707  0.68365  1.0000
  S   S347      1.0  0.83176  0.77045  0.66350  1.0000
  Fe  Fe173     1.0  0.76173  0.66882  0.65647  1.0000
  S   S348      1.0  0.71569  0.67163  0.67258  1.0000
  S   S349      1.0  0.76677  0.62815  0.64084  1.0000
  Fe  Fe174     1.0  0.71771  0.72616  0.66545  1.0000
  S   S350      1.0  0.66950  0.75182  0.66072  1.0000
  Fe  Fe175     1.0  0.75012  0.68204  0.68950  1.0000
  S   S351      1.0  0.76129  0.72294  0.64790  1.0000
  S   S352      1.0  0.79701  0.67487  0.67398  1.0000
  Fe  Fe176     1.0  0.63821  0.95717  0.61771  1.0000
  S   S353      1.0  0.60472  0.92662  0.63559  1.0000
  S   S354      1.0  0.64705  0.94124  0.59387  1.0000
  C   C1503     1.0  0.77366  0.62961  0.55723  1.0000
  Fe  Fe177     1.0  0.64278  0.93771  0.65093  1.0000
  S   S355      1.0  0.66723  0.90464  0.66864  1.0000
  C   C1504     1.0  0.93162  0.00898  0.70331  1.0000
  S   S356      1.0  0.67790  0.96477  0.63278  1.0000
  H   H2673     1.0  0.65198  0.61645  0.68432  1.0000
  C   C1505     1.0  0.65718  0.95385  0.49392  1.0000
  S   S357      1.0  0.98316  0.69498  0.54671  1.0000
  H   H2674     1.0  0.76871  0.90853  0.67986  1.0000
  C   C1506     1.0  0.97164  0.52875  0.51860  1.0000
  H   H2675     1.0  0.74949  0.97992  0.65129  1.0000
  C   C1507     1.0  0.69575  0.98125  0.67999  1.0000
  C   C1508     1.0  0.66853  0.79400  0.66353  1.0000
  C   C1509     1.0  0.69668  0.80917  0.66740  1.0000
  C   C1510     1.0  0.69573  0.84302  0.66937  1.0000
  C   C1511     1.0  0.66705  0.86206  0.66688  1.0000
  C   C1512     1.0  0.63891  0.84697  0.66296  1.0000
  C   C1513     1.0  0.63945  0.81278  0.66160  1.0000
  H   H2676     1.0  0.71933  0.79500  0.66869  1.0000
  H   H2677     1.0  0.71757  0.85470  0.67232  1.0000
  H   H2678     1.0  0.61669  0.86162  0.66110  1.0000
  H   H2679     1.0  0.61761  0.80113  0.65862  1.0000
  H   H2680     1.0  0.68618  0.64523  0.70016  1.0000
  H   H2681     1.0  0.79770  0.61769  0.55331  1.0000
  S   S358      1.0  0.97423  0.93036  0.67353  1.0000
  C   C1514     1.0  0.66940  0.84087  0.50269  1.0000
  H   H2682     1.0  0.67200  0.83361  0.51452  1.0000
  C   C1515     1.0  0.73467  0.87665  0.57573  1.0000
  C   C1516     1.0  0.73720  0.89336  0.58856  1.0000
  C   C1517     1.0  0.71084  0.91367  0.59414  1.0000
  C   C1518     1.0  0.68171  0.91749  0.58691  1.0000
  C   C1519     1.0  0.67986  0.90197  0.57371  1.0000
  C   C1520     1.0  0.70603  0.88146  0.56821  1.0000
  H   H2683     1.0  0.75946  0.89025  0.59434  1.0000
  H   H2684     1.0  0.71294  0.92621  0.60409  1.0000
  H   H2685     1.0  0.65769  0.90525  0.56787  1.0000
  H   H2686     1.0  0.70395  0.86938  0.55815  1.0000
  C   C1521     1.0  0.87565  0.71270  0.53490  1.0000
  C   C1522     1.0  0.89063  0.73500  0.54292  1.0000
  C   C1523     1.0  0.92356  0.72920  0.54652  1.0000
  C   C1524     1.0  0.94174  0.70114  0.54212  1.0000
  C   C1525     1.0  0.92669  0.67892  0.53410  1.0000
  C   C1526     1.0  0.89386  0.68473  0.53049  1.0000
  H   H2687     1.0  0.87689  0.75669  0.54628  1.0000
  H   H2688     1.0  0.93509  0.74656  0.55269  1.0000
  H   H2689     1.0  0.94032  0.65721  0.53070  1.0000
  H   H2690     1.0  0.88245  0.66740  0.52426  1.0000
  C   C1527     1.0  0.65113  0.62628  0.54956  1.0000
  C   C1528     1.0  0.66768  0.64948  0.53873  1.0000
  C   C1529     1.0  0.67632  0.68047  0.54278  1.0000
  C   C1530     1.0  0.66792  0.68840  0.55760  1.0000
  C   C1531     1.0  0.65060  0.66551  0.56826  1.0000
  C   C1532     1.0  0.64280  0.63431  0.56435  1.0000
  H   H2691     1.0  0.67413  0.64335  0.52728  1.0000
  H   H2692     1.0  0.68931  0.69821  0.53445  1.0000
  H   H2693     1.0  0.64333  0.67180  0.57962  1.0000
  H   H2694     1.0  0.62989  0.61667  0.57276  1.0000
  C   C1533     1.0  0.67073  0.59286  0.62469  1.0000
  C   C1534     1.0  0.67038  0.62126  0.63241  1.0000
  C   C1535     1.0  0.69967  0.63219  0.63741  1.0000
  C   C1536     1.0  0.72949  0.61442  0.63499  1.0000
  C   C1537     1.0  0.72976  0.58560  0.62755  1.0000
  C   C1538     1.0  0.70053  0.57496  0.62229  1.0000
  H   H2695     1.0  0.64743  0.63517  0.63431  1.0000
  H   H2696     1.0  0.69921  0.65471  0.64289  1.0000
  H   H2697     1.0  0.75268  0.57157  0.62580  1.0000
  H   H2698     1.0  0.70095  0.55272  0.61657  1.0000
  C   C1539     1.0  0.95752  0.95961  0.68541  1.0000
  C   C1540     1.0  0.96459  0.95852  0.70044  1.0000
  H   H2699     1.0  0.58385  0.82838  0.46845  1.0000
  H   H2700     1.0  0.74822  0.57084  0.57315  1.0000
  H   H2701     1.0  0.83769  0.65994  0.70244  1.0000
  C   C1541     1.0  0.59181  0.56576  0.69645  1.0000
  C   C1542     1.0  0.94098  0.76940  0.67444  1.0000
  C   C1543     1.0  0.92471  0.73938  0.67374  1.0000
  C   C1544     1.0  0.89143  0.73917  0.67029  1.0000
  C   C1545     1.0  0.87390  0.76903  0.66766  1.0000
  C   C1546     1.0  0.89041  0.79902  0.66801  1.0000
  C   C1547     1.0  0.92361  0.79925  0.67153  1.0000
  H   H2702     1.0  0.93808  0.71617  0.67577  1.0000
  H   H2703     1.0  0.87951  0.71591  0.66955  1.0000
  H   H2704     1.0  0.87750  0.82231  0.66556  1.0000
  H   H2705     1.0  0.93592  0.82254  0.67183  1.0000
  C   C1548     1.0  0.54851  0.51967  0.54828  1.0000
  C   C1549     1.0  0.73296  0.55034  0.67044  1.0000
  C   C1550     1.0  0.70276  0.92748  0.50673  1.0000
  H   H2706     1.0  0.52395  0.58198  0.59623  1.0000
  S   S359      1.0  0.00301  0.52576  0.54454  1.0000
  H   H2707     1.0  0.77833  0.85420  0.63052  1.0000
  H   H2708     1.0  0.71870  0.55188  0.54301  1.0000
  H   H2709     1.0  0.92476  0.80615  0.50459  1.0000
  C   C1551     1.0  0.53611  0.55380  0.54126  1.0000
  N   N84       1.0  0.00890  0.74540  0.49520  1.0000
  H   H2710     1.0  0.83098  0.80643  0.56393  1.0000
  H   H2711     1.0  0.95618  0.75999  0.51761  1.0000
  H   H2712     1.0  0.82043  0.53229  0.51395  1.0000
  H   H2713     1.0  0.77335  0.81240  0.63940  1.0000
  H   H2714     1.0  0.63101  0.52036  0.65425  1.0000
  H   H2715     1.0  0.60567  0.63437  0.65922  1.0000
  C   C1552     1.0  0.53814  0.80865  0.47977  1.0000
  C   C1553     1.0  0.71034  0.98399  0.49455  1.0000
  C   C1554     1.0  0.00192  0.70868  0.49746  1.0000
  C   C1555     1.0  0.78111  0.82769  0.62855  1.0000
  H   H2716     1.0  0.70889  0.90910  0.48080  1.0000
  C   C1556     1.0  0.81734  0.77615  0.70479  1.0000
  H   H2717     1.0  0.72451  0.94522  0.65826  1.0000
  S   S360      1.0  0.61613  0.98364  0.65768  1.0000
  H   H2718     1.0  0.64820  0.00405  0.68684  1.0000
  H   H2719     1.0  0.98009  0.93876  0.70514  1.0000
  H   H2720     1.0  0.58994  0.59190  0.69902  1.0000
  C   C1557     1.0  0.83943  0.99494  0.68578  1.0000
  C   C1558     1.0  0.62746  0.55795  0.68942  1.0000
  C   C1559     1.0  0.70101  0.56725  0.67673  1.0000
  H   H2721     1.0  0.67481  0.79310  0.70299  1.0000
  N   N85       1.0  0.63779  0.57409  0.67363  1.0000
  H   H2722     1.0  0.80655  0.82648  0.68200  1.0000
  H   H2723     1.0  0.52351  0.81362  0.46991  1.0000
  H   H2724     1.0  0.89774  0.77302  0.51301  1.0000
  C   C1560     1.0  0.74752  0.56389  0.71263  1.0000
  H   H2725     1.0  0.96810  0.76382  0.48252  1.0000
  H   H2726     1.0  0.59697  0.68594  0.67150  1.0000
  C   C1561     1.0  0.89685  0.57566  0.53716  1.0000
  C   C1562     1.0  0.80768  0.81304  0.70628  1.0000
  C   C1563     1.0  0.88294  0.54325  0.53327  1.0000
  H   H2727     1.0  0.55822  0.57025  0.53871  1.0000
  H   H2728     1.0  0.88347  0.67634  0.56724  1.0000
  H   H2729     1.0  0.78890  0.53361  0.58497  1.0000
  H   H2730     1.0  0.80492  0.59313  0.57772  1.0000
  H   H2731     1.0  0.62470  0.67134  0.68539  1.0000
  H   H2732     1.0  0.62173  0.58035  0.65125  1.0000
  C   C1564     1.0  0.80171  0.99167  0.68618  1.0000
  C   C1565     1.0  0.74437  0.89271  0.52117  1.0000
  H   H2733     1.0  0.68863  0.98022  0.66839  1.0000
  C   C1566     1.0  0.79820  0.66150  0.57562  1.0000
  H   H2734     1.0  0.78599  0.60846  0.59444  1.0000
  C   C1567     1.0  0.75492  0.57628  0.58430  1.0000
  H   H2735     1.0  0.89458  0.57650  0.54962  1.0000
  H   H2736     1.0  0.58861  0.57837  0.66572  1.0000
  H   H2737     1.0  0.82353  0.83569  0.61208  1.0000
  H   H2738     1.0  0.77841  0.56000  0.54180  1.0000
  C   C1568     1.0  0.98332  0.69515  0.48507  1.0000
  C   C1569     1.0  0.76782  0.54390  0.59215  1.0000
  H   H2739     1.0  0.63279  0.61920  0.71067  1.0000
  Fe  Fe178     1.0  0.01154  0.81432  0.68249  1.0000
  H   H2740     1.0  0.99998  0.00006  0.65892  1.0000
  H   H2741     1.0  0.75232  0.87308  0.70497  1.0000
  H   H2742     1.0  0.98269  0.55282  0.51552  1.0000
  C   C1570     1.0  0.60122  0.96970  0.50704  1.0000
  H   H2743     1.0  0.73961  0.91778  0.63434  1.0000
  H   H2744     1.0  0.78295  0.91502  0.62722  1.0000
  N   N86       1.0  0.77292  0.63595  0.57360  1.0000
  C   C1571     1.0  0.91825  0.77991  0.50399  1.0000
  H   H2745     1.0  0.83907  0.71976  0.69200  1.0000
  S   S361      1.0  0.00350  0.61873  0.52258  1.0000
  H   H2746     1.0  0.83278  0.56191  0.53344  1.0000
  H   H2747     1.0  0.63697  0.78070  0.69634  1.0000
  C   C1572     1.0  0.75059  0.92765  0.68376  1.0000
  H   H2748     1.0  0.77100  0.88532  0.52124  1.0000
  H   H2749     1.0  0.76442  0.82280  0.61996  1.0000
  H   H2750     1.0  0.72963  0.87003  0.52105  1.0000
  H   H2751     1.0  0.77420  0.90695  0.65538  1.0000
  C   C1573     1.0  0.69602  0.83622  0.49173  1.0000
  H   H2752     1.0  0.58354  0.54119  0.63992  1.0000
  C   C1574     1.0  0.84878  0.71218  0.70304  1.0000
  C   C1575     1.0  0.64225  0.61106  0.67367  1.0000
  H   H2753     1.0  0.73556  0.94351  0.47610  1.0000
  C   C1576     1.0  0.76414  0.92998  0.63363  1.0000
  H   H2754     1.0  0.54700  0.58975  0.56255  1.0000
  H   H2755     1.0  0.64178  0.94884  0.51851  1.0000
  H   H2756     1.0  0.69543  0.93845  0.51753  1.0000
  N   N87       1.0  0.66376  0.79047  0.60435  1.0000
  C   C1577     1.0  0.64764  0.76994  0.61819  1.0000
  C   C1578     1.0  0.67035  0.82525  0.60803  1.0000
  C   C1579     1.0  0.63942  0.79310  0.59253  1.0000
  C   C1580     1.0  0.69549  0.77457  0.59770  1.0000
  C   C1581     1.0  0.71955  0.75892  0.60892  1.0000
  C   C1582     1.0  0.63566  0.73520  0.61552  1.0000
  C   C1583     1.0  0.64936  0.81703  0.57811  1.0000
  C   C1584     1.0  0.67880  0.82910  0.62428  1.0000
  C   C1585     1.0  0.69196  0.86351  0.62553  1.0000
  C   C1586     1.0  0.75087  0.74538  0.60038  1.0000
  C   C1587     1.0  0.62932  0.71277  0.63038  1.0000
  C   C1588     1.0  0.62613  0.81392  0.56593  1.0000
  H   H2757     1.0  0.62549  0.78343  0.62322  1.0000
  H   H2758     1.0  0.66457  0.76650  0.62726  1.0000
  H   H2759     1.0  0.69026  0.83723  0.59978  1.0000
  H   H2760     1.0  0.64796  0.84155  0.60670  1.0000
  H   H2761     1.0  0.61443  0.80132  0.59748  1.0000
  H   H2762     1.0  0.63573  0.76838  0.58861  1.0000
  H   H2763     1.0  0.68968  0.75462  0.59079  1.0000
  H   H2764     1.0  0.71015  0.79275  0.58952  1.0000
  H   H2765     1.0  0.70773  0.73792  0.61642  1.0000
  H   H2766     1.0  0.72767  0.77740  0.61591  1.0000
  H   H2767     1.0  0.61196  0.73769  0.61020  1.0000
  H   H2768     1.0  0.65414  0.72266  0.60791  1.0000
  H   H2769     1.0  0.67505  0.81192  0.57318  1.0000
  H   H2770     1.0  0.64773  0.84303  0.58087  1.0000
  H   H2771     1.0  0.65569  0.82584  0.63212  1.0000
  H   H2772     1.0  0.69741  0.81081  0.62827  1.0000
  H   H2773     1.0  0.71635  0.86706  0.61866  1.0000
  H   H2774     1.0  0.67395  0.88304  0.62178  1.0000
  H   H2775     1.0  0.69583  0.86611  0.63743  1.0000
  H   H2776     1.0  0.74422  0.72872  0.59212  1.0000
  H   H2777     1.0  0.76570  0.76614  0.59412  1.0000
  H   H2778     1.0  0.76623  0.73116  0.60849  1.0000
  H   H2779     1.0  0.61157  0.72482  0.63857  1.0000
  H   H2780     1.0  0.61857  0.68904  0.62819  1.0000
  H   H2781     1.0  0.65303  0.70721  0.63547  1.0000
  H   H2782     1.0  0.59996  0.81930  0.57025  1.0000
  H   H2783     1.0  0.63347  0.83195  0.55593  1.0000
  H   H2784     1.0  0.62794  0.78856  0.56223  1.0000
  C   C1589     1.0  0.65562  0.77354  0.70444  1.0000
  C   C1590     1.0  0.78128  0.60392  0.58276  1.0000
  C   C1591     1.0  0.83407  0.65590  0.56815  1.0000
  H   H2785     1.0  0.53835  0.98743  0.60058  1.0000
  H   H2786     1.0  0.77941  0.92849  0.70307  1.0000
  H   H2787     1.0  0.64927  0.97026  0.48417  1.0000
  H   H2788     1.0  0.90910  0.77741  0.49288  1.0000
  H   H2789     1.0  0.80029  0.66261  0.58788  1.0000
  H   H2790     1.0  0.84568  0.83440  0.68910  1.0000
  C   C1592     1.0  0.73990  0.91678  0.50714  1.0000
  C   C1593     1.0  0.73358  0.98752  0.67959  1.0000
  H   H2791     1.0  0.64041  0.67948  0.66560  1.0000
  C   C1594     1.0  0.63861  0.96647  0.50836  1.0000
  H   H2792     1.0  0.68858  0.95779  0.68700  1.0000
  H   H2793     1.0  0.69658  0.55845  0.68894  1.0000
  H   H2794     1.0  0.84351  0.77575  0.69958  1.0000
  H   H2795     1.0  0.78031  0.81593  0.70867  1.0000
  N   N88       1.0  0.69466  0.95113  0.49331  1.0000
  C   C1595     1.0  0.79260  0.97073  0.67364  1.0000
  H   H2796     1.0  0.79996  0.94195  0.64816  1.0000
  H   H2797     1.0  0.66164  0.62032  0.66451  1.0000
  C   C1596     1.0  0.93713  0.98495  0.67944  1.0000
  H   H2798     1.0  0.59625  0.98838  0.49750  1.0000
  H   H2799     1.0  0.61776  0.75108  0.48293  1.0000
  H   H2800     1.0  0.52841  0.54959  0.53009  1.0000
  H   H2801     1.0  0.68803  0.90441  0.50736  1.0000
  N   N89       1.0  0.75669  0.96034  0.67421  1.0000
  C   C1597     1.0  0.73873  0.64873  0.57883  1.0000
  C   C1598     1.0  0.76735  0.66029  0.54596  1.0000
  C   C1599     1.0  0.73268  0.65410  0.59583  1.0000
  C   C1600     1.0  0.69774  0.66788  0.59975  1.0000
  C   C1601     1.0  0.77363  0.65195  0.52961  1.0000
  H   H2802     1.0  0.73381  0.67319  0.57248  1.0000
  H   H2803     1.0  0.71902  0.63213  0.57618  1.0000
  H   H2804     1.0  0.63043  0.53053  0.68985  1.0000
  H   H2805     1.0  0.78341  0.68118  0.54728  1.0000
  H   H2806     1.0  0.74116  0.66888  0.54783  1.0000
  H   H2807     1.0  0.73541  0.63062  0.60304  1.0000
  H   H2808     1.0  0.75054  0.67184  0.59889  1.0000
  H   H2809     1.0  0.67885  0.64888  0.59893  1.0000
  H   H2810     1.0  0.69523  0.67502  0.61145  1.0000
  H   H2811     1.0  0.69298  0.69035  0.59204  1.0000
  H   H2812     1.0  0.75711  0.63166  0.52767  1.0000
  H   H2813     1.0  0.80010  0.64459  0.52693  1.0000
  N   N90       1.0  0.85598  0.77210  0.61405  1.0000
  C   C1602     1.0  0.86449  0.79076  0.59863  1.0000
  C   C1603     1.0  0.88202  0.77921  0.62413  1.0000
  C   C1604     1.0  0.85486  0.73551  0.61228  1.0000
  C   C1605     1.0  0.82233  0.78261  0.62116  1.0000
  C   C1606     1.0  0.81733  0.82009  0.62294  1.0000
  C   C1607     1.0  0.83772  0.79045  0.58740  1.0000
  C   C1608     1.0  0.85404  0.71163  0.62714  1.0000
  C   C1609     1.0  0.91824  0.76886  0.61878  1.0000
  C   C1610     1.0  0.94138  0.77234  0.63097  1.0000
  H   H2814     1.0  0.76264  0.95499  0.62729  1.0000
  C   C1611     1.0  0.51778  0.60543  0.58943  1.0000
  C   C1612     1.0  0.84732  0.67605  0.62426  1.0000
  H   H2815     1.0  0.88773  0.78032  0.59297  1.0000
  H   H2816     1.0  0.87036  0.81706  0.59964  1.0000
  H   H2817     1.0  0.88282  0.80621  0.62525  1.0000
  H   H2818     1.0  0.87536  0.76745  0.63585  1.0000
  H   H2819     1.0  0.87639  0.72786  0.60449  1.0000
  H   H2820     1.0  0.83251  0.73009  0.60673  1.0000
  H   H2821     1.0  0.80221  0.77477  0.61481  1.0000
  H   H2822     1.0  0.81705  0.76969  0.63273  1.0000
  H   H2823     1.0  0.95738  0.65134  0.48094  1.0000
  H   H2824     1.0  0.83307  0.82764  0.63141  1.0000
  H   H2825     1.0  0.83126  0.76474  0.58580  1.0000
  H   H2826     1.0  0.81469  0.80369  0.59150  1.0000
  H   H2827     1.0  0.83442  0.71880  0.63586  1.0000
  H   H2828     1.0  0.87825  0.71159  0.63197  1.0000
  H   H2829     1.0  0.91996  0.74279  0.61609  1.0000
  H   H2830     1.0  0.92785  0.78506  0.60849  1.0000
  H   H2831     1.0  0.94035  0.79799  0.63432  1.0000
  H   H2832     1.0  0.93429  0.75472  0.64112  1.0000
  H   H2833     1.0  0.96745  0.76660  0.62661  1.0000
  H   H2834     1.0  0.73412  0.52619  0.55857  1.0000
  H   H2835     1.0  0.71287  0.84210  0.46789  1.0000
  H   H2836     1.0  0.56821  0.75406  0.46978  1.0000
  H   H2837     1.0  0.85008  0.70632  0.56960  1.0000
  H   H2838     1.0  0.80272  0.76768  0.69607  1.0000
  H   H2839     1.0  0.88356  0.59739  0.53182  1.0000
  H   H2840     1.0  0.82261  0.67442  0.62000  1.0000
  H   H2841     1.0  0.86700  0.66709  0.61593  1.0000
  H   H2842     1.0  0.84715  0.65952  0.63503  1.0000
  Fe  Fe179     1.0  0.00626  0.88870  0.68288  1.0000
  H   H2843     1.0  0.73904  0.01108  0.67225  1.0000
  H   H2844     1.0  0.65596  0.71131  0.47297  1.0000
  H   H2845     1.0  0.75589  0.93840  0.50757  1.0000
  H   H2846     1.0  0.67776  0.56742  0.65597  1.0000
  C   C1613     1.0  0.81817  0.83497  0.69163  1.0000
  C   C1614     1.0  0.61350  0.56748  0.66261  1.0000
  C   C1615     1.0  0.57934  0.52660  0.65119  1.0000
  H   H2847     1.0  0.76833  0.67417  0.52180  1.0000
  H   H2848     1.0  0.55562  0.53494  0.65721  1.0000
  H   H2849     1.0  0.93127  0.98558  0.66787  1.0000
  H   H2850     1.0  0.81024  0.86102  0.69285  1.0000
  H   H2851     1.0  0.83494  0.65953  0.55561  1.0000
  H   H2852     1.0  0.72586  0.91789  0.68217  1.0000
  H   H2853     1.0  0.58822  0.97779  0.51766  1.0000
  C   C1616     1.0  0.73477  0.53008  0.54605  1.0000
  C   C1617     1.0  0.74972  0.95559  0.65827  1.0000
  H   H2854     1.0  0.70572  0.59429  0.67556  1.0000
  H   H2855     1.0  0.73639  0.90439  0.53170  1.0000
  C   C1618     1.0  0.85022  0.80774  0.57185  1.0000
  H   H2856     1.0  0.96106  0.71033  0.48258  1.0000
  H   H2857     1.0  0.85153  0.97024  0.68791  1.0000
  C   C1619     1.0  0.97133  0.65980  0.48985  1.0000
  H   H2858     1.0  0.80946  0.94857  0.67358  1.0000
  H   H2859     1.0  0.66801  0.73271  0.49715  1.0000
  H   H2860     1.0  0.98245  0.79242  0.49375  1.0000
  H   H2861     1.0  0.64683  0.92913  0.49281  1.0000
  S   S362      1.0  0.60025  0.88843  0.47823  1.0000
  H   H2862     1.0  0.75410  0.61173  0.55583  1.0000
  C   C1620     1.0  0.85941  0.67573  0.70323  1.0000
  H   H2863     1.0  0.73191  0.58366  0.59111  1.0000
  H   H2864     1.0  0.80009  0.98651  0.66284  1.0000
  H   H2865     1.0  0.78990  0.68686  0.57139  1.0000
  H   H2866     1.0  0.64437  0.56534  0.69748  1.0000
  C   C1621     1.0  0.61898  0.66983  0.67358  1.0000
  H   H2867     1.0  0.84350  0.63059  0.57146  1.0000
  H   H2868     1.0  0.52843  0.60653  0.52016  1.0000
  H   H2869     1.0  0.64764  0.99118  0.51019  1.0000
  C   C1622     1.0  0.63644  0.86647  0.48308  1.0000
  H   H2870     1.0  0.92368  0.57740  0.53286  1.0000
  H   H2871     1.0  0.00022  0.69467  0.47443  1.0000
  H   H2872     1.0  0.58929  0.62609  0.67869  1.0000
  H   H2873     1.0  0.54107  0.61931  0.58559  1.0000
  H   H2874     1.0  0.84213  0.54332  0.55133  1.0000
  H   H2875     1.0  0.76954  0.53802  0.52624  1.0000
  H   H2876     1.0  0.79207  0.98100  0.69766  1.0000
  C   C1623     1.0  0.85808  0.68041  0.57292  1.0000
  H   H2877     1.0  0.98781  0.70176  0.50874  1.0000
  H   H2878     1.0  0.70510  0.71961  0.48616  1.0000
  C   C1624     1.0  0.77417  0.93245  0.64950  1.0000
  C   C1625     1.0  0.75293  0.92714  0.70095  1.0000
  H   H2879     1.0  0.00961  0.74360  0.51948  1.0000
  H   H2880     1.0  0.57262  0.56097  0.68901  1.0000
  H   H2881     1.0  0.94808  0.52939  0.49801  1.0000
  C   C1626     1.0  0.63974  0.85614  0.49837  1.0000
  H   H2882     1.0  0.85929  0.67677  0.58536  1.0000
  S   S363      1.0  0.99089  0.84640  0.70036  1.0000
  C   C1627     1.0  0.84539  0.53998  0.53904  1.0000
  H   H2883     1.0  0.74790  0.54189  0.70620  1.0000
  H   H2884     1.0  0.88686  0.54323  0.52078  1.0000
  C   C1628     1.0  0.68087  0.63965  0.71219  1.0000
  H   H2885     1.0  0.69552  0.76313  0.48632  1.0000
  C   C1629     1.0  0.66267  0.86079  0.47211  1.0000
  C   C1630     1.0  0.61168  0.63411  0.67110  1.0000
  H   H2886     1.0  0.73879  0.55836  0.65818  1.0000
  H   H2887     1.0  0.87122  0.72686  0.70364  1.0000
  C   C1631     1.0  0.69231  0.84560  0.47641  1.0000
  H   H2888     1.0  0.53456  0.82999  0.48665  1.0000
  H   H2889     1.0  0.66977  0.53169  0.66903  1.0000
  H   H2890     1.0  0.87816  0.67257  0.69343  1.0000
  Fe  Fe180     1.0  0.58035  0.97554  0.64072  1.0000
  H   H2891     1.0  0.58833  0.79985  0.48487  1.0000
  H   H2892     1.0  0.74928  0.90400  0.49710  1.0000
  H   H2893     1.0  0.93993  0.73125  0.50631  1.0000
  H   H2894     1.0  0.70302  0.99242  0.50591  1.0000
  C   C1632     1.0  0.77035  0.53592  0.53867  1.0000
  C   C1633     1.0  0.68450  0.73825  0.48644  1.0000
  H   H2895     1.0  0.64372  0.78554  0.47657  1.0000
  H   H2896     1.0  0.60301  0.51532  0.67149  1.0000
  C   C1634     1.0  0.97733  0.76558  0.49370  1.0000
  H   H2897     1.0  0.87333  0.79554  0.56709  1.0000
  H   H2898     1.0  0.73790  0.98128  0.49379  1.0000
  S   S364      1.0  0.52608  0.98827  0.64916  1.0000
  C   C1635     1.0  0.67107  0.55921  0.66820  1.0000
  C   C1636     1.0  0.70891  0.93668  0.47898  1.0000
  H   H2899     1.0  0.74757  0.52540  0.59411  1.0000
  H   H2900     1.0  0.77607  0.54783  0.60328  1.0000
  H   H2901     1.0  0.85511  0.83430  0.57264  1.0000
  H   H2902     1.0  0.99283  0.64268  0.49129  1.0000
  H   H2903     1.0  0.95456  0.65864  0.50059  1.0000
  H   H2904     1.0  0.73050  0.52295  0.67209  1.0000
  H   H2905     1.0  0.66797  0.74987  0.70160  1.0000
  H   H2906     1.0  0.52861  0.78600  0.48686  1.0000
  H   H2907     1.0  0.77244  0.57551  0.71053  1.0000
  H   H2908     1.0  0.75414  0.55733  0.67637  1.0000
  H   H2909     1.0  0.73859  0.94768  0.70589  1.0000
  H   H2910     1.0  0.89793  0.52268  0.53843  1.0000
  C   C1637     1.0  0.60842  0.53054  0.66047  1.0000
  C   C1638     1.0  0.95177  0.98337  0.70937  1.0000
  H   H2911     1.0  0.57150  0.99986  0.47149  1.0000
  C   C1639     1.0  0.94836  0.75708  0.50630  1.0000
  H   H2912     1.0  0.59092  0.94546  0.50518  1.0000
  H   H2913     1.0  0.79886  0.70525  0.71246  1.0000
  H   H2914     1.0  0.72894  0.58233  0.70847  1.0000
  H   H2915     1.0  0.51669  0.62365  0.54499  1.0000
  S   S365      1.0  0.74334  0.66313  0.71442  1.0000
  H   H2916     1.0  0.99839  0.99555  0.63911  1.0000
  H   H2917     1.0  0.52725  0.55348  0.57206  1.0000
  H   H2918     1.0  0.85008  0.00719  0.67464  1.0000
  H   H2919     1.0  0.68043  0.01102  0.69859  1.0000
  C   C1640     1.0  0.52244  0.57721  0.56518  1.0000
  H   H2920     1.0  0.71629  0.00739  0.47123  1.0000
  C   C1641     1.0  0.66513  0.73701  0.47270  1.0000
  H   H2921     1.0  0.73796  0.99314  0.69107  1.0000
  S   S366      1.0  0.61156  0.00562  0.62190  1.0000
  C   C1642     1.0  0.63514  0.76174  0.47315  1.0000
  H   H2922     1.0  0.52970  0.99073  0.47977  1.0000
  C   C1643     1.0  0.57516  0.80455  0.47456  1.0000
  H   H2923     1.0  0.87084  0.66735  0.71378  1.0000
  H   H2924     1.0  0.56042  0.52223  0.55870  1.0000
  H   H2925     1.0  0.58227  0.51768  0.70950  1.0000
  C   C1644     1.0  0.58347  0.54421  0.71142  1.0000
  C   C1645     1.0  0.92410  0.00945  0.68839  1.0000
  C   C1646     1.0  0.73912  0.89484  0.70947  1.0000
  C   C1647     1.0  0.95209  0.51544  0.50869  1.0000
  C   C1648     1.0  0.54657  0.01096  0.47452  1.0000
  H   H2926     1.0  0.71209  0.89304  0.70835  1.0000
  H   H2927     1.0  0.53271  0.00159  0.58120  1.0000
  H   H2928     1.0  0.59663  0.52075  0.53459  1.0000
  C   C1649     1.0  0.54050  0.00920  0.59187  1.0000
  H   H2929     1.0  0.84521  0.01033  0.69471  1.0000
  C   C1650     1.0  0.67511  0.00917  0.68677  1.0000
  H   H2930     1.0  0.66619  0.93242  0.46597  1.0000
  Fe  Fe181     1.0  0.64887  0.01036  0.63865  1.0000
  C   C1651     1.0  0.00605  0.01198  0.64725  1.0000
  H   H2931     1.0  0.99809  0.78202  0.92015  1.0000
  Fe  Fe182     1.0  0.95823  0.89253  0.88401  1.0000
  S   S367      1.0  0.94099  0.84821  0.87359  1.0000
  S   S368      1.0  0.92798  0.94121  0.88284  1.0000
  C   C1652     1.0  0.73564  0.66879  0.93433  1.0000
  Fe  Fe183     1.0  0.95069  0.81749  0.89537  1.0000
  S   S369      1.0  0.92391  0.77892  0.91265  1.0000
  S   S370      1.0  0.96341  0.86241  0.90628  1.0000
  H   H2932     1.0  0.82903  0.74415  0.74147  1.0000
  Fe  Fe184     1.0  0.57480  0.62035  0.79447  1.0000
  S   S371      1.0  0.54574  0.61551  0.77491  1.0000
  S   S372      1.0  0.57545  0.66856  0.80533  1.0000
  Fe  Fe185     1.0  0.59943  0.54732  0.79560  1.0000
  S   S373      1.0  0.57157  0.53743  0.77612  1.0000
  Fe  Fe186     1.0  0.59028  0.58727  0.76555  1.0000
  S   S374      1.0  0.60657  0.59577  0.74048  1.0000
  H   H2933     1.0  0.89746  0.96648  0.91002  1.0000
  H   H2934     1.0  0.52207  0.66985  0.72876  1.0000
  S   S375      1.0  0.62110  0.59546  0.78420  1.0000
  S   S376      1.0  0.55602  0.57312  0.80773  1.0000
  H   H2935     1.0  0.73745  0.75000  0.95889  1.0000
  S   S377      1.0  0.77322  0.58779  0.93290  1.0000
  H   H2936     1.0  0.58616  0.63240  0.85959  1.0000
  Fe  Fe187     1.0  0.85334  0.57964  0.95313  1.0000
  S   S378      1.0  0.85348  0.57261  0.92857  1.0000
  H   H2937     1.0  0.54157  0.78883  0.77944  1.0000
  Fe  Fe188     1.0  0.82031  0.61789  0.92783  1.0000
  S   S379      1.0  0.82658  0.66007  0.90885  1.0000
  Fe  Fe189     1.0  0.80682  0.54306  0.93591  1.0000
  C   C1653     1.0  0.74228  0.70384  0.93793  1.0000
  S   S380      1.0  0.82333  0.62696  0.95199  1.0000
  C   C1654     1.0  0.95258  0.94516  0.92429  1.0000
  H   H2938     1.0  0.00878  0.67618  0.92068  1.0000
  C   C1655     1.0  0.64146  0.68485  0.77160  1.0000
  H   H2939     1.0  0.56676  0.77843  0.73893  1.0000
  C   C1656     1.0  0.54142  0.72550  0.81219  1.0000
  C   C1657     1.0  0.96439  0.78170  0.80849  1.0000
  H   H2940     1.0  0.54007  0.67295  0.85764  1.0000
  C   C1658     1.0  0.95288  0.77699  0.82545  1.0000
  H   H2941     1.0  0.59111  0.69868  0.76845  1.0000
  H   H2942     1.0  0.97312  0.76553  0.83180  1.0000
  H   H2943     1.0  0.66801  0.53431  0.77963  1.0000
  C   C1659     1.0  0.69693  0.63926  0.73750  1.0000
  C   C1660     1.0  0.66646  0.62466  0.74349  1.0000
  C   C1661     1.0  0.64363  0.61673  0.73378  1.0000
  H   H2944     1.0  0.84821  0.88746  0.91698  1.0000
  H   H2945     1.0  0.87708  0.80524  0.74130  1.0000
  H   H2946     1.0  0.71492  0.64464  0.74503  1.0000
  H   H2947     1.0  0.66095  0.61894  0.75558  1.0000
  C   C1662     1.0  0.57436  0.68198  0.72900  1.0000
  C   C1663     1.0  0.94233  0.98227  0.88343  1.0000
  H   H2948     1.0  0.90526  0.90643  0.91625  1.0000
  S   S381      1.0  0.80935  0.54720  0.96065  1.0000
  H   H2949     1.0  0.97200  0.75712  0.80490  1.0000
  N   N91       1.0  0.69645  0.52090  0.74881  1.0000
  C   C1664     1.0  0.90031  0.74409  0.91015  1.0000
  C   C1665     1.0  0.89608  0.71865  0.92212  1.0000
  C   C1666     1.0  0.87487  0.69192  0.92150  1.0000
  C   C1667     1.0  0.85687  0.69088  0.90904  1.0000
  C   C1668     1.0  0.86163  0.71595  0.89688  1.0000
  C   C1669     1.0  0.88349  0.74236  0.89736  1.0000
  H   H2950     1.0  0.90881  0.72003  0.93207  1.0000
  H   H2951     1.0  0.87168  0.67268  0.93087  1.0000
  H   H2952     1.0  0.84785  0.71530  0.88718  1.0000
  H   H2953     1.0  0.88634  0.76195  0.88811  1.0000
  H   H2954     1.0  0.52205  0.67727  0.78561  1.0000
  C   C1670     1.0  0.57021  0.63253  0.85019  1.0000
  H   H2955     1.0  0.87065  0.96957  0.92685  1.0000
  H   H2956     1.0  0.73900  0.54962  0.78591  1.0000
  H   H2957     1.0  0.99373  0.96881  0.88511  1.0000
  C   C1671     1.0  0.65073  0.62469  0.71816  1.0000
  H   H2958     1.0  0.93111  0.76033  0.82761  1.0000
  H   H2959     1.0  0.66714  0.54415  0.94649  1.0000
  C   C1672     1.0  0.93151  0.97801  0.95765  1.0000
  C   C1673     1.0  0.88676  0.77990  0.73958  1.0000
  H   H2960     1.0  0.58649  0.75205  0.77053  1.0000
  C   C1674     1.0  0.61099  0.74395  0.72299  1.0000
  C   C1675     1.0  0.54572  0.65743  0.73163  1.0000
  H   H2961     1.0  0.70433  0.57889  0.78527  1.0000
  H   H2962     1.0  0.82221  0.78627  0.73540  1.0000
  H   H2963     1.0  0.94560  0.80115  0.82975  1.0000
  N   N92       1.0  0.78636  0.73906  0.94799  1.0000
  C   C1676     1.0  0.58457  0.76462  0.74612  1.0000
  H   H2964     1.0  0.71713  0.75490  0.74456  1.0000
  H   H2965     1.0  0.64158  0.70273  0.73985  1.0000
  C   C1677     1.0  0.80250  0.75922  0.91973  1.0000
  H   H2966     1.0  0.81081  0.78161  0.89653  1.0000
  H   H2967     1.0  0.74105  0.57637  0.73544  1.0000
  H   H2968     1.0  0.00083  0.86337  0.78465  1.0000
  H   H2969     1.0  0.75622  0.77021  0.93335  1.0000
  C   C1678     1.0  0.00423  0.69649  0.92809  1.0000
  H   H2970     1.0  0.55893  0.55188  0.71694  1.0000
  H   H2971     1.0  0.63370  0.66604  0.78119  1.0000
  H   H2972     1.0  0.73292  0.54719  0.75898  1.0000
  H   H2973     1.0  0.64694  0.70799  0.77643  1.0000
  C   C1679     1.0  0.88563  0.91958  0.92309  1.0000
  H   H2974     1.0  0.77493  0.73600  0.74913  1.0000
  H   H2975     1.0  0.71078  0.66796  0.93016  1.0000
  H   H2976     1.0  0.76843  0.77898  0.72824  1.0000
  C   C1680     1.0  0.56770  0.75999  0.76263  1.0000
  H   H2977     1.0  0.60550  0.78175  0.74643  1.0000
  C   C1681     1.0  0.51604  0.74982  0.81092  1.0000
  C   C1682     1.0  0.73937  0.55372  0.72957  1.0000
  C   C1683     1.0  0.69533  0.53153  0.77704  1.0000
  H   H2978     1.0  0.66440  0.67581  0.76523  1.0000
  C   C1684     1.0  0.93020  0.00190  0.92579  1.0000
  H   H2979     1.0  0.75861  0.53572  0.73342  1.0000
  C   C1685     1.0  0.99286  0.80729  0.80491  1.0000
  H   H2980     1.0  0.71883  0.71211  0.75242  1.0000
  H   H2981     1.0  0.71144  0.54282  0.94067  1.0000
  H   H2982     1.0  0.79585  0.69589  0.93559  1.0000
  H   H2983     1.0  0.59757  0.66874  0.73174  1.0000
  C   C1686     1.0  0.54369  0.69904  0.80315  1.0000
  H   H2984     1.0  0.83178  0.92610  0.92317  1.0000
  C   C1687     1.0  0.69223  0.54748  0.95007  1.0000
  C   C1688     1.0  0.61345  0.69093  0.76136  1.0000
  C   C1689     1.0  0.62412  0.71654  0.74756  1.0000
  H   H2985     1.0  0.97127  0.81517  0.93933  1.0000
  H   H2986     1.0  0.79193  0.78971  0.93788  1.0000
  H   H2987     1.0  0.63981  0.73548  0.75145  1.0000
  H   H2988     1.0  0.57160  0.81208  0.76638  1.0000
  H   H2989     1.0  0.85440  0.92524  0.90453  1.0000
  H   H2990     1.0  0.94019  0.00597  0.91366  1.0000
  H   H2991     1.0  0.72188  0.71058  0.94643  1.0000
  Fe  Fe190     1.0  0.99573  0.84005  0.86639  1.0000
  H   H2992     1.0  0.55125  0.63695  0.72438  1.0000
  S   S382      1.0  0.01209  0.88618  0.87544  1.0000
  H   H2993     1.0  0.54662  0.72632  0.73389  1.0000
  H   H2994     1.0  0.87623  0.78290  0.71656  1.0000
  H   H2995     1.0  0.60757  0.66692  0.75738  1.0000
  C   C1690     1.0  0.00157  0.80879  0.76072  1.0000
  H   H2996     1.0  0.54739  0.74171  0.76410  1.0000
  H   H2997     1.0  0.98743  0.94584  0.94143  1.0000
  C   C1691     1.0  0.96364  0.65900  0.94528  1.0000
  C   C1692     1.0  0.97614  0.79946  0.75045  1.0000
  H   H2998     1.0  0.99140  0.69749  0.95270  1.0000
  H   H2999     1.0  0.54264  0.64646  0.74361  1.0000
  H   H3000     1.0  0.97651  0.77954  0.77984  1.0000
  H   H3001     1.0  0.00933  0.76264  0.85562  1.0000
  H   H3002     1.0  0.95499  0.94763  0.91169  1.0000
  H   H3003     1.0  0.82963  0.75844  0.92071  1.0000
  H   H3004     1.0  0.80417  0.81111  0.91030  1.0000
  N   N93       1.0  0.59683  0.73361  0.73916  1.0000
  H   H3005     1.0  0.52690  0.65919  0.83144  1.0000
  H   H3006     1.0  0.79541  0.73551  0.91589  1.0000
  H   H3007     1.0  0.92080  0.00352  0.95709  1.0000
  H   H3008     1.0  0.88369  0.90790  0.93496  1.0000
  H   H3009     1.0  0.95837  0.64604  0.95686  1.0000
  C   C1693     1.0  0.97555  0.98883  0.88502  1.0000
  C   C1694     1.0  0.77575  0.75397  0.72492  1.0000
  C   C1695     1.0  0.63900  0.77014  0.72075  1.0000
  H   H3010     1.0  0.94257  0.79070  0.80255  1.0000
  H   H3011     1.0  0.52527  0.63245  0.86529  1.0000
  C   C1696     1.0  0.78289  0.76564  0.93508  1.0000
  H   H3012     1.0  0.00833  0.83493  0.75701  1.0000
  Fe  Fe191     1.0  0.77897  0.59387  0.95727  1.0000
  C   C1697     1.0  0.56747  0.71154  0.73861  1.0000
  H   H3013     1.0  0.69973  0.52317  0.72425  1.0000
  H   H3014     1.0  0.96918  0.77301  0.75317  1.0000
  H   H3015     1.0  0.95350  0.81544  0.75169  1.0000
  H   H3016     1.0  0.98721  0.80314  0.73845  1.0000
  Fe  Fe192     1.0  0.52977  0.56665  0.78732  1.0000
  H   H3017     1.0  0.94862  0.91833  0.92791  1.0000
  C   C1698     1.0  0.70552  0.54345  0.76014  1.0000
  H   H3018     1.0  0.65859  0.76332  0.72837  1.0000
  S   S383      1.0  0.00384  0.80615  0.88720  1.0000
  H   H3019     1.0  0.97325  0.75637  0.93469  1.0000
  H   H3020     1.0  0.77199  0.70334  0.73724  1.0000
  C   C1699     1.0  0.92232  0.53898  0.95939  1.0000
  C   C1700     1.0  0.76429  0.72922  0.73894  1.0000
  N   N94       1.0  0.01072  0.81074  0.78901  1.0000
  C   C1701     1.0  0.82231  0.73715  0.95123  1.0000
  H   H3021     1.0  0.83261  0.76234  0.95129  1.0000
  H   H3022     1.0  0.74096  0.72057  0.92735  1.0000
  H   H3023     1.0  0.75471  0.66125  0.92538  1.0000
  C   C1702     1.0  0.79618  0.78685  0.90731  1.0000
  H   H3024     1.0  0.55707  0.70129  0.75011  1.0000
  H   H3025     1.0  0.83780  0.72637  0.94190  1.0000
  H   H3026     1.0  0.55931  0.72714  0.82027  1.0000
  H   H3027     1.0  0.98142  0.70936  0.92431  1.0000
  C   C1703     1.0  0.98704  0.80476  0.77761  1.0000
  H   H3028     1.0  0.98108  0.83134  0.80773  1.0000
  C   C1704     1.0  0.72634  0.72970  0.74229  1.0000
  C   C1705     1.0  0.87016  0.76599  0.72704  1.0000
  C   C1706     1.0  0.77670  0.70556  0.94402  1.0000
  H   H3029     1.0  0.76938  0.78825  0.90550  1.0000
  H   H3030     1.0  0.71452  0.72184  0.73259  1.0000
  H   H3031     1.0  0.92046  0.93045  0.95029  1.0000
  H   H3032     1.0  0.96522  0.82202  0.77877  1.0000
  S   S384      1.0  0.90055  0.57487  0.96451  1.0000
  C   C1707     1.0  0.71146  0.55233  0.78749  1.0000
  C   C1708     1.0  0.52060  0.69734  0.79267  1.0000
  C   C1709     1.0  0.91475  0.95711  0.94704  1.0000
  H   H3033     1.0  0.60257  0.54712  0.71921  1.0000
  H   H3034     1.0  0.69412  0.56848  0.75787  1.0000
  H   H3035     1.0  0.87858  0.69769  0.95776  1.0000
  H   H3036     1.0  0.99017  0.79012  0.95414  1.0000
  H   H3037     1.0  0.56786  0.60661  0.84751  1.0000
  N   N95       1.0  0.81231  0.75267  0.71915  1.0000
  C   C1710     1.0  0.53600  0.64745  0.85486  1.0000
  C   C1711     1.0  0.55240  0.79259  0.76742  1.0000
  C   C1712     1.0  0.85291  0.91442  0.91656  1.0000
  H   H3038     1.0  0.73596  0.65089  0.94465  1.0000
  H   H3039     1.0  0.53211  0.80119  0.76041  1.0000
  C   C1713     1.0  0.99544  0.67924  0.94427  1.0000
  H   H3040     1.0  0.01102  0.80134  0.81333  1.0000
  C   C1714     1.0  0.91915  0.00880  0.88324  1.0000
  N   N96       1.0  0.92314  0.96557  0.93016  1.0000
  H   H3041     1.0  0.58269  0.64746  0.84008  1.0000
  H   H3042     1.0  0.88746  0.95974  0.95027  1.0000
  H   H3043     1.0  0.89340  0.00408  0.88200  1.0000
  H   H3044     1.0  0.88241  0.76354  0.75038  1.0000
  H   H3045     1.0  0.94201  0.67533  0.94285  1.0000
  C   C1715     1.0  0.83211  0.76265  0.73130  1.0000
  H   H3046     1.0  0.95744  0.98277  0.72096  1.0000
  C   C1716     1.0  0.99335  0.79960  0.94195  1.0000
  H   H3047     1.0  0.74244  0.89428  0.72168  1.0000
  C   C1717     1.0  0.70391  0.53908  0.73319  1.0000
  C   C1718     1.0  0.95550  0.53332  0.96240  1.0000
  H   H3048     1.0  0.88084  0.51987  0.94988  1.0000
  H   H3049     1.0  0.70269  0.54374  0.79947  1.0000
  C   C1719     1.0  0.89371  0.95698  0.92223  1.0000
  C   C1720     1.0  0.82088  0.71736  0.71592  1.0000
  H   H3050     1.0  0.82722  0.70210  0.72638  1.0000
  H   H3051     1.0  0.96641  0.63995  0.93714  1.0000
  H   H3052     1.0  0.68608  0.56023  0.73156  1.0000
  C   C1721     1.0  0.99642  0.77092  0.93208  1.0000
  C   C1722     1.0  0.70433  0.64654  0.72180  1.0000
  H   H3053     1.0  0.91404  0.78143  0.73628  1.0000
  C   C1723     1.0  0.76367  0.74759  0.96160  1.0000
  H   H3054     1.0  0.76469  0.80198  0.96007  1.0000
  H   H3055     1.0  0.77611  0.68697  0.95413  1.0000
  H   H3056     1.0  0.64571  0.53932  0.75146  1.0000
  H   H3057     1.0  0.62855  0.79492  0.72301  1.0000
  H   H3058     1.0  0.88160  0.74126  0.72557  1.0000
  H   H3059     1.0  0.69428  0.57363  0.95243  1.0000
  C   C1724     1.0  0.90643  0.51588  0.95217  1.0000
  H   H3060     1.0  0.95030  0.01051  0.93189  1.0000
  H   H3061     1.0  0.01254  0.74160  0.90559  1.0000
  H   H3062     1.0  0.62182  0.72204  0.71758  1.0000
  H   H3063     1.0  0.57711  0.69088  0.71674  1.0000
  H   H3064     1.0  0.95865  0.98020  0.95459  1.0000
  H   H3065     1.0  0.59455  0.51624  0.74412  1.0000
  H   H3066     1.0  0.99360  0.97920  0.92618  1.0000
  C   C1725     1.0  0.98700  0.95277  0.92912  1.0000
  C   C1726     1.0  0.69759  0.52415  0.96424  1.0000
  H   H3067     1.0  0.73904  0.51598  0.92012  1.0000
  C   C1727     1.0  0.65942  0.51512  0.75173  1.0000
  H   H3068     1.0  0.00977  0.90530  0.92405  1.0000
  H   H3069     1.0  0.59082  0.75391  0.71608  1.0000
  C   C1728     1.0  0.01439  0.93223  0.92113  1.0000
  H   H3070     1.0  0.51452  0.77011  0.81792  1.0000
  H   H3071     1.0  0.76038  0.74950  0.71568  1.0000
  H   H3072     1.0  0.81992  0.82277  0.71540  1.0000
