data_image0
_chemical_formula_structural       H2SH3SCSH2S2HSNFeS2CHC6H4C6H4CSC3H2C6H4C6H8CH4CFeH8FeHCHCHCSCH4CH3C2HC2FeHCHSCH3C2HCH8CHCH5C2HFeHCHC2SCHSCH2CHC4H6CNC3NHC2FeHCHCHC2H4SH6CH3CHC2H7CH4CH6CSH2CSFeH2C2HSH2SH2CSH5FeH2CHSH3CH5FeH2CH3CH2CHS2FeCH2SHS2C4H4CHC6H5FeHC3H2CSHCSCHSC8H6C6H7CHCH5CH2S2HSH2CH5FeHC2H8CH2SC2H3C2HCH3C2H2CHCH2CH2CH4CSNH3CH3CHC2HC2HSHCFeH5CH2C2H2SH6SNC6SHC3H2FeH9CH3CHNH3C2HCH3C2H2FeHC2HC3NCH3CHSH3CHCHC2H3C2H2CH3SH3NHCHFeH3FeCH3CHSH4CHNH2CHS2H4NSHSH2S2HCSHCH2SC6H4C6H4CH2C3H2C6H4C6H5C3HC2HSH5CFeC2H4CHSH2CH7C2H4CHSH2C2H3CH2CH2CH2CHSCH3C2FeHSH4CSCHCHCHCH3CH2FeH7C2H5SHFeH5CHC2HCHC2SFeHNSHCH2NHFe2HCH2SFeH4SHCH2C2H4CH2FeS2HFeS2HFeS2H2FeS2HFeSHSCFeS2HFeS2CFeHSCSFeSFeS2HC6H6C3H3C6H4C6H4C6H4CH4CH8C2H11NCH2CH10CHCHCHNC6HC3NH19CHC2H2C2H2CHSHNCHC2H3CH8CH2CHCH2C2H2C2H3CHCH3CH3C3SCH4C2H2CHCH3CH2CHCH3CHSH5CH3C2H2CHNHCHC2NH3C3H4CHCH4CH2C4H2C2H2CH10NCSCFeSCHFeS2HFeHCSCFeSHFeS3HC2HC3H5C6H4C3H2CFeS2HFeHSCFeS3HSFeS2FeSC6H4C6H5C4H3FeC2H2CHCH2CHC2H4CH2CH5CH2CH2C4H2FeCHCSHSH4FeNH4CHC3NC10HCH31CHCH2CH2CH4NHCNC5HCHCH20C2HSHNCH2C4H3CH2C3HCH7CH3CNH16C3H2C4H2CHCHC3FeH4CH2C2H3CH5SH2CHC2H4CHC2H6CHNCHFeS2HFeS2H2NCSH2FeS2HFeSHSHFeHSC2SH2SHFeS3FeS2FeS2C6H4C6H4C6H4C6H5SHCSH2C4H3C2HCHCH2CH4NH3CH5C3H6CH2C2HC2HNC10H25N2C2HC2H2C4H4CH6CHCH3CHFeH9C3H3C2H6CHCHC2H2CH3C2HCH3CHCHC2FeCH6C2H5CH2CH4CHCHC2FeH2CH3CH2CHFeH2C2SH2FeHCH6NCH2CFeHFeH9C2SH3CNC2H5SHCH4SHSH2FeSHCFeS2H2FeCSHFeS2HFeSHSHCFeSFeS2HFeSCSHFeS2FeS2C7H3C2HC2H3C6H4CH4C6H4C6H4CH2C2SC2H3C2H3C2NC3HC4NH4CH14CHCH3SH3C2H2SHC3H7NH3CHCHC2HCH2C2HC2HCHCH3CH2FeH2CH7CH11SC3NHCH5CH5CH4CHNH2C2H2CHCH2CH5CH2CH5C5NH4NCH7C2H3C2NH2CNFeCH2C2SHCH3CHC2H11CH3CHCH3CH4C2SH3FeS2FeS2HFeHSFeS2FeCSH2C3H2C4HCH2SC7H4FeSC2FeSHSFeS2CFeSHSCS2FeSC6H4C3H4C6H5CH7CH2NC12H28SHCH5C3HCH3SH16CHCH2CH2FeC2H3CH3CHNH2CSH3CH3C2HCSNH4CHC2H3NH2C4HCHCH2CHC2H3CHCH3C3H3CH14C3H4FeCFeH2CHCFeCHCH5CH2SH4SC2H3SFeHSHFeS2H2FeS3H2FeS2HFeS2HSHFeSHSFeS2C3SCSCFeS2FeS2C6H4C6H5C2H2C6H4C2H2CHCHC6H4SHCH9CH2FeCH5C2H3C2H4CH5CHC2H2CH2CH7NCHCHC2HCHC2H3C2H6CNHC2HCNC8FeCH15CH4FeCH6CNH2C3H3NC2FeCHCHCH14NC5H3C2H13C2H9C3HCH4CH2C2HCH4CH2C2HCH11C2FeC3HCH2CNCH4NH2CH3C2H2C2HCH2CHCH3S2FeHSHS2C2S2CSC2SH4SH3CH2C6H4C6H4C2HSC5H2C6H4C4HCHFeH2C2H2FeHCH2SH2CHCH9SC2HCH3C2H4CFeC2H2CFeH2FeH3SFeHSH3NCH3CHCH2SH5NC12H28FeSC2HCH6CHFeCH3NHCH2CH2SH5CHC3H2C2HSH2FeC3FeCH6C2H7S2HSH2C3H2C6H4CH2C4H3S2HC3SHS2C3H3C6HCH2C5HCH2FeH2SH2SCHSH2NC4SH3CH3SH4C2SCH3FeSCH7CH5CH8NHCH4CH3CH7C2H2FeSH3NC3FeHSH3CFeHCHNHCHCH2C2H2CH13CHC4H2C3H2CHC2HCH8C2H5CH8NC4HFeH10S2H3SHSC2HS2C2HSCSHC3H2C6H4C6H4SCH2CH3SC6H4C4HCH2FeHCHCH3CH4NH8SHCSH3CH5C3H2CH3CHCHFeH2FeH7FeC2HCH3C2H2CSCH10CH2SHFeH2SH2C2HSHC8HCH2C2HCHCH2CFeHCH5CH5SH4CH4C2SH3CHCHNHCHC2H2CSC2H3CFeH2CH4CHCH5
_chemical_formula_sum              "H2048 S256 C1152 N64 Fe128"
_cell_length_a       33.6642
_cell_length_b       33.6563
_cell_length_c       47.9476
_cell_angle_alpha    90.0841
_cell_angle_beta     90.0962
_cell_angle_gamma    89.9649

_space_group_name_H-M_alt    "P 1"
_space_group_IT_number       1

loop_
  _space_group_symop_operation_xyz
  'x, y, z'

loop_
  _atom_site_type_symbol
  _atom_site_label
  _atom_site_symmetry_multiplicity
  _atom_site_fract_x
  _atom_site_fract_y
  _atom_site_fract_z
  _atom_site_occupancy
  H   H1        1.0  0.28473  0.00525  0.06922  1.0000
  H   H2        1.0  0.45282  0.16696  0.00128  1.0000
  S   S1        1.0  0.06109  0.18436  0.20027  1.0000
  H   H3        1.0  0.40691  0.00761  0.23981  1.0000
  H   H4        1.0  0.48330  0.46439  0.14395  1.0000
  H   H5        1.0  0.47168  0.42324  0.03394  1.0000
  S   S2        1.0  0.45926  0.18101  0.17902  1.0000
  C   C1        1.0  0.28959  0.34089  0.27658  1.0000
  S   S3        1.0  0.43720  0.31754  0.07735  1.0000
  H   H6        1.0  0.11172  0.49014  0.10855  1.0000
  H   H7        1.0  0.07591  0.15240  0.01234  1.0000
  S   S4        1.0  0.17957  0.43913  0.02254  1.0000
  S   S5        1.0  0.33470  0.47049  0.11047  1.0000
  H   H8        1.0  0.13539  0.11095  0.02257  1.0000
  S   S6        1.0  0.19004  0.44259  0.25861  1.0000
  N   N1        1.0  0.15330  0.37891  0.13390  1.0000
  Fe  Fe1       1.0  0.28185  0.49761  0.08718  1.0000
  S   S7        1.0  0.17346  0.04239  0.24181  1.0000
  S   S8        1.0  0.32721  0.05194  0.14634  1.0000
  C   C2        1.0  0.12157  0.10928  0.00222  1.0000
  H   H9        1.0  0.04815  0.41169  0.06461  1.0000
  C   C3        1.0  0.40849  0.35966  0.08711  1.0000
  C   C4        1.0  0.41413  0.37901  0.11264  1.0000
  C   C5        1.0  0.39135  0.41288  0.11939  1.0000
  C   C6        1.0  0.36222  0.42744  0.10094  1.0000
  C   C7        1.0  0.35633  0.40786  0.07549  1.0000
  C   C8        1.0  0.37958  0.37435  0.06856  1.0000
  H   H10       1.0  0.43602  0.36785  0.12717  1.0000
  H   H11       1.0  0.39610  0.42774  0.13913  1.0000
  H   H12       1.0  0.33407  0.41869  0.06108  1.0000
  H   H13       1.0  0.37498  0.35965  0.04873  1.0000
  C   C9        1.0  0.36305  0.08850  0.15590  1.0000
  C   C10       1.0  0.38537  0.10729  0.13489  1.0000
  C   C11       1.0  0.41442  0.13605  0.14156  1.0000
  C   C12       1.0  0.42181  0.14616  0.16941  1.0000
  C   C13       1.0  0.39950  0.12744  0.19042  1.0000
  C   C14       1.0  0.37004  0.09909  0.18372  1.0000
  H   H14       1.0  0.38012  0.09948  0.11330  1.0000
  H   H15       1.0  0.43126  0.15016  0.12518  1.0000
  H   H16       1.0  0.40486  0.13504  0.21202  1.0000
  H   H17       1.0  0.35283  0.08525  0.20007  1.0000
  C   C15       1.0  0.08020  0.36779  0.28147  1.0000
  S   S9        1.0  0.28459  0.02186  0.22202  1.0000
  C   C16       1.0  0.14769  0.41420  0.26788  1.0000
  C   C17       1.0  0.13281  0.38578  0.24903  1.0000
  C   C18       1.0  0.09922  0.36266  0.25579  1.0000
  H   H18       1.0  0.14726  0.38169  0.22911  1.0000
  H   H19       1.0  0.08797  0.34086  0.24124  1.0000
  C   C19       1.0  0.09249  0.14515  0.21212  1.0000
  C   C20       1.0  0.11656  0.12469  0.19284  1.0000
  C   C21       1.0  0.14177  0.09341  0.20147  1.0000
  C   C22       1.0  0.14330  0.08231  0.22958  1.0000
  C   C23       1.0  0.11967  0.10313  0.24885  1.0000
  C   C24       1.0  0.09430  0.13420  0.24025  1.0000
  H   H20       1.0  0.11550  0.13289  0.17104  1.0000
  H   H21       1.0  0.15976  0.07776  0.18635  1.0000
  H   H22       1.0  0.12126  0.09524  0.27058  1.0000
  H   H23       1.0  0.07624  0.14973  0.25538  1.0000
  C   C25       1.0  0.06280  0.36843  0.03307  1.0000
  C   C26       1.0  0.09130  0.35693  0.01345  1.0000
  C   C27       1.0  0.12664  0.37909  0.01042  1.0000
  C   C28       1.0  0.13409  0.41285  0.02701  1.0000
  C   C29       1.0  0.10554  0.42441  0.04657  1.0000
  C   C30       1.0  0.07014  0.40231  0.04956  1.0000
  H   H24       1.0  0.08615  0.33100  0.00060  1.0000
  H   H25       1.0  0.22252  0.02147  0.08367  1.0000
  H   H26       1.0  0.11058  0.45062  0.05915  1.0000
  H   H27       1.0  0.48349  0.33951  0.28262  1.0000
  H   H28       1.0  0.28979  0.25981  0.27908  1.0000
  H   H29       1.0  0.14698  0.33456  0.10144  1.0000
  H   H30       1.0  0.29803  0.06937  0.04655  1.0000
  H   H31       1.0  0.48117  0.25630  0.22920  1.0000
  C   C31       1.0  0.08822  0.47370  0.12001  1.0000
  H   H32       1.0  0.13949  0.44130  0.30815  1.0000
  H   H33       1.0  0.29889  0.45526  0.98585  1.0000
  H   H34       1.0  0.14269  0.05629  0.09695  1.0000
  H   H35       1.0  0.38705  0.47342  0.04184  1.0000
  C   C32       1.0  0.12865  0.41934  0.29354  1.0000
  Fe  Fe2       1.0  0.21949  0.00822  0.21613  1.0000
  H   H36       1.0  0.14195  0.29911  0.28277  1.0000
  H   H37       1.0  0.02913  0.08832  0.02965  1.0000
  H   H38       1.0  0.40811  0.25931  0.02573  1.0000
  H   H39       1.0  0.34533  0.21988  0.30475  1.0000
  H   H40       1.0  0.21311  0.24169  0.28421  1.0000
  H   H41       1.0  0.07010  0.09110  0.30329  1.0000
  H   H42       1.0  0.15941  0.27044  0.25320  1.0000
  H   H43       1.0  0.17124  0.40872  0.17196  1.0000
  Fe  Fe3       1.0  0.20959  0.48766  0.04881  1.0000
  H   H44       1.0  0.17484  0.38737  0.07399  1.0000
  C   C33       1.0  0.27177  0.38040  0.26599  1.0000
  H   H45       1.0  0.13536  0.02954  0.12912  1.0000
  C   C34       1.0  0.36158  0.02296  0.31024  1.0000
  H   H46       1.0  0.21799  0.34647  0.16569  1.0000
  C   C35       1.0  0.45252  0.03400  0.30460  1.0000
  S   S10       1.0  0.03794  0.33948  0.29114  1.0000
  C   C36       1.0  0.44747  0.12390  0.30243  1.0000
  H   H47       1.0  0.43109  0.31031  0.26688  1.0000
  H   H48       1.0  0.16090  0.30009  0.15552  1.0000
  H   H49       1.0  0.01250  0.34127  0.12186  1.0000
  H   H50       1.0  0.03460  0.01916  0.01319  1.0000
  C   C37       1.0  0.22619  0.30466  0.27695  1.0000
  H   H51       1.0  0.48851  0.29516  0.02544  1.0000
  H   H52       1.0  0.35350  0.21749  0.01738  1.0000
  H   H53       1.0  0.12679  0.45432  0.15279  1.0000
  C   C38       1.0  0.08784  0.13292  0.99646  1.0000
  C   C39       1.0  0.00909  0.35938  0.16457  1.0000
  H   H54       1.0  0.28747  0.43030  0.23964  1.0000
  C   C40       1.0  0.11009  0.29472  0.18168  1.0000
  C   C41       1.0  0.27188  0.05196  0.03948  1.0000
  Fe  Fe4       1.0  0.48159  0.28569  0.10551  1.0000
  H   H55       1.0  0.12360  0.27040  0.19417  1.0000
  C   C42       1.0  0.48800  0.37005  0.23326  1.0000
  H   H56       1.0  0.45727  0.36380  0.23986  1.0000
  S   S11       1.0  0.48108  0.28736  0.15215  1.0000
  C   C43       1.0  0.47669  0.28525  0.00492  1.0000
  H   H57       1.0  0.08169  0.42578  0.14878  1.0000
  H   H58       1.0  0.44758  0.05956  0.01661  1.0000
  H   H59       1.0  0.14829  0.42831  0.10513  1.0000
  C   C44       1.0  0.42519  0.01711  0.22172  1.0000
  C   C45       1.0  0.14276  0.32018  0.16862  1.0000
  H   H60       1.0  0.24509  0.06425  0.04974  1.0000
  C   C46       1.0  0.18431  0.39964  0.15157  1.0000
  H   H61       1.0  0.23471  0.29526  0.25546  1.0000
  H   H62       1.0  0.19372  0.42803  0.14161  1.0000
  H   H63       1.0  0.18349  0.04984  0.12115  1.0000
  H   H64       1.0  0.10036  0.34340  0.13858  1.0000
  H   H65       1.0  0.14846  0.36990  0.99517  1.0000
  H   H66       1.0  0.25618  0.42920  0.17129  1.0000
  H   H67       1.0  0.10681  0.39561  0.10476  1.0000
  H   H68       1.0  0.34466  0.04959  0.30341  1.0000
  C   C47       1.0  0.10642  0.44033  0.13746  1.0000
  H   H69       1.0  0.34855  0.29344  0.29816  1.0000
  C   C48       1.0  0.11074  0.48771  0.20929  1.0000
  H   H70       1.0  0.38710  0.36484  0.29866  1.0000
  H   H71       1.0  0.16121  0.33187  0.18600  1.0000
  H   H72       1.0  0.11074  0.37463  0.16770  1.0000
  H   H73       1.0  0.43115  0.30582  0.22921  1.0000
  H   H74       1.0  0.20728  0.33136  0.27379  1.0000
  C   C49       1.0  0.19968  0.27109  0.28904  1.0000
  C   C50       1.0  0.45895  0.09051  0.01572  1.0000
  H   H75       1.0  0.09121  0.31283  0.19574  1.0000
  Fe  Fe5       1.0  0.49284  0.22160  0.14907  1.0000
  H   H76       1.0  0.23539  0.35875  0.05487  1.0000
  C   C51       1.0  0.19846  0.00357  0.07394  1.0000
  H   H77       1.0  0.05364  0.29037  0.11907  1.0000
  C   C52       1.0  0.12895  0.41004  0.11882  1.0000
  C   C53       1.0  0.40544  0.25688  0.25098  1.0000
  S   S12       1.0  0.22270  0.00447  0.16921  1.0000
  C   C54       1.0  0.19526  0.37249  0.08879  1.0000
  H   H78       1.0  0.18414  0.02308  0.05800  1.0000
  S   S13       1.0  0.27492  0.49909  0.04068  1.0000
  C   C55       1.0  0.38342  0.49805  0.02665  1.0000
  H   H79       1.0  0.26000  0.07186  0.30910  1.0000
  H   H80       1.0  0.24144  0.37374  0.13840  1.0000
  C   C56       1.0  0.00446  0.01823  0.00345  1.0000
  H   H81       1.0  0.21561  0.39523  0.09744  1.0000
  C   C57       1.0  0.07613  0.24612  0.09139  1.0000
  C   C58       1.0  0.09511  0.39625  0.30026  1.0000
  C   C59       1.0  0.15799  0.27174  0.27634  1.0000
  C   C60       1.0  0.48747  0.39474  0.03020  1.0000
  H   H82       1.0  0.20015  0.31996  0.06236  1.0000
  H   H83       1.0  0.10278  0.45727  0.20230  1.0000
  H   H84       1.0  0.27711  0.38259  0.18236  1.0000
  H   H85       1.0  0.25935  0.42135  0.99435  1.0000
  H   H86       1.0  0.23302  0.40147  0.19925  1.0000
  H   H87       1.0  0.41358  0.04594  0.21420  1.0000
  C   C61       1.0  0.37476  0.19367  0.01141  1.0000
  N   N2        1.0  0.41109  0.19506  0.02985  1.0000
  C   C62       1.0  0.44086  0.16301  0.02265  1.0000
  C   C63       1.0  0.24886  0.39893  0.17899  1.0000
  C   C64       1.0  0.39759  0.18799  0.05952  1.0000
  N   N3        1.0  0.26284  0.31457  0.29380  1.0000
  H   H88       1.0  0.19005  0.05015  0.30177  1.0000
  C   C65       1.0  0.42601  0.11946  0.02419  1.0000
  C   C66       1.0  0.37035  0.22046  0.07249  1.0000
  Fe  Fe6       1.0  0.28868  0.01442  0.17566  1.0000
  H   H89       1.0  0.45519  0.18151  0.28321  1.0000
  C   C67       1.0  0.27813  0.00800  0.04662  1.0000
  H   H90       1.0  0.01522  0.39102  0.15969  1.0000
  C   C68       1.0  0.36439  0.21348  0.10370  1.0000
  H   H91       1.0  0.46716  0.16557  0.03675  1.0000
  C   C69       1.0  0.43082  0.23551  0.02857  1.0000
  C   C70       1.0  0.15675  0.03549  0.11200  1.0000
  H   H92       1.0  0.44569  0.24232  0.04880  1.0000
  H   H93       1.0  0.42383  0.18420  0.07341  1.0000
  H   H94       1.0  0.38042  0.15986  0.06113  1.0000
  H   H95       1.0  0.35824  0.16541  0.01461  1.0000
  S   S14       1.0  0.28665  0.49080  0.29119  1.0000
  H   H96       1.0  0.46751  0.11006  0.28689  1.0000
  H   H97       1.0  0.06639  0.46158  0.10484  1.0000
  H   H98       1.0  0.41704  0.11142  0.04570  1.0000
  H   H99       1.0  0.47270  0.37627  0.18921  1.0000
  H   H100      1.0  0.34057  0.21994  0.06253  1.0000
  H   H101      1.0  0.38280  0.25069  0.07008  1.0000
  C   C71       1.0  0.21975  0.34280  0.07191  1.0000
  H   H102      1.0  0.40046  0.11467  0.00993  1.0000
  H   H103      1.0  0.49077  0.41175  0.13940  1.0000
  H   H104      1.0  0.43793  0.03368  0.28377  1.0000
  C   C72       1.0  0.47909  0.27260  0.24927  1.0000
  H   H105      1.0  0.19053  0.32902  0.12165  1.0000
  C   C73       1.0  0.22342  0.37671  0.15764  1.0000
  C   C74       1.0  0.12497  0.35526  0.15179  1.0000
  H   H106      1.0  0.08191  0.47824  0.24852  1.0000
  H   H107      1.0  0.48084  0.24965  0.26599  1.0000
  H   H108      1.0  0.41118  0.17745  0.30434  1.0000
  H   H109      1.0  0.39313  0.21600  0.11500  1.0000
  H   H110      1.0  0.34387  0.23630  0.11222  1.0000
  H   H111      1.0  0.35134  0.18366  0.10753  1.0000
  H   H112      1.0  0.23227  0.48894  0.98913  1.0000
  C   C75       1.0  0.13764  0.08368  0.98189  1.0000
  H   H113      1.0  0.03733  0.34470  0.17047  1.0000
  H   H114      1.0  0.24234  0.32817  0.08534  1.0000
  H   H115      1.0  0.08710  0.22663  0.10845  1.0000
  H   H116      1.0  0.37524  0.26978  0.24877  1.0000
  C   C76       1.0  0.04192  0.27219  0.10163  1.0000
  H   H117      1.0  0.31004  0.38404  0.22931  1.0000
  H   H118      1.0  0.45429  0.23257  0.98520  1.0000
  H   H119      1.0  0.47715  0.09584  0.10734  1.0000
  H   H120      1.0  0.30058  0.32418  0.25801  1.0000
  H   H121      1.0  0.40989  0.23464  0.23408  1.0000
  H   H122      1.0  0.06642  0.22739  0.07354  1.0000
  C   C77       1.0  0.17098  0.35173  0.11208  1.0000
  S   S15       1.0  0.48971  0.21917  0.10225  1.0000
  H   H123      1.0  0.26491  0.40024  0.28379  1.0000
  H   H124      1.0  0.21394  0.38295  0.30801  1.0000
  C   C78       1.0  0.43042  0.16150  0.28922  1.0000
  S   S16       1.0  0.02519  0.22614  0.27405  1.0000
  Fe  Fe7       1.0  0.01723  0.21758  0.22814  1.0000
  H   H125      1.0  0.14079  0.24567  0.28378  1.0000
  H   H126      1.0  0.40737  0.24193  0.27156  1.0000
  C   C79       1.0  0.00659  0.24664  0.11171  1.0000
  C   C80       1.0  0.43648  0.28992  0.24915  1.0000
  H   H127      1.0  0.26860  0.05599  0.01663  1.0000
  S   S17       1.0  0.17981  0.05397  0.99052  1.0000
  H   H128      1.0  0.03329  0.29177  0.08419  1.0000
  H   H129      1.0  0.24470  0.37534  0.25331  1.0000
  S   S18       1.0  0.01777  0.34163  0.03809  1.0000
  H   H130      1.0  0.10099  0.26524  0.08425  1.0000
  H   H131      1.0  0.09117  0.28095  0.16530  1.0000
  C   C81       1.0  0.30139  0.40252  0.24751  1.0000
  S   S19       1.0  0.00451  0.28246  0.21953  1.0000
  H   H132      1.0  0.46745  0.42107  0.20958  1.0000
  H   H133      1.0  0.39700  0.08788  0.29171  1.0000
  H   H134      1.0  0.01897  0.22878  0.12917  1.0000
  H   H135      1.0  0.11955  0.03076  0.29860  1.0000
  H   H136      1.0  0.32843  0.41060  0.25954  1.0000
  Fe  Fe8       1.0  0.21973  0.48549  0.28903  1.0000
  H   H137      1.0  0.48472  0.09308  0.03013  1.0000
  H   H138      1.0  0.45121  0.30446  0.99895  1.0000
  C   C82       1.0  0.48600  0.39417  0.20635  1.0000
  H   H139      1.0  0.41301  0.15414  0.27019  1.0000
  S   S20       1.0  0.21790  0.48210  0.09505  1.0000
  H   H140      1.0  0.00271  0.28167  0.15856  1.0000
  H   H141      1.0  0.46497  0.37063  0.02976  1.0000
  H   H142      1.0  0.48140  0.04929  0.30113  1.0000
  C   C83       1.0  0.28533  0.27633  0.29903  1.0000
  H   H143      1.0  0.35769  0.49123  0.01295  1.0000
  H   H144      1.0  0.46910  0.09650  0.99409  1.0000
  H   H145      1.0  0.07274  0.49516  0.13387  1.0000
  H   H146      1.0  0.37712  0.01027  0.29191  1.0000
  H   H147      1.0  0.14163  0.48704  0.21744  1.0000
  Fe  Fe9       1.0  0.00836  0.28978  0.26611  1.0000
  H   H148      1.0  0.42045  0.49696  0.29242  1.0000
  H   H149      1.0  0.49064  0.22409  0.01192  1.0000
  C   C84       1.0  0.46386  0.24174  0.00633  1.0000
  H   H150      1.0  0.45649  0.02149  0.22839  1.0000
  H   H151      1.0  0.31633  0.34950  0.28871  1.0000
  H   H152      1.0  0.22369  0.00934  0.30642  1.0000
  C   C85       1.0  0.38180  0.19941  0.97988  1.0000
  H   H153      1.0  0.00759  0.07510  0.98059  1.0000
  H   H154      1.0  0.49763  0.12562  0.24207  1.0000
  C   C86       1.0  0.41392  0.09471  0.31110  1.0000
  H   H155      1.0  0.09132  0.25960  0.32485  1.0000
  S   S21       1.0  0.47229  0.21130  0.35419  1.0000
  S   S22       1.0  0.45097  0.17575  0.43116  1.0000
  Fe  Fe10      1.0  0.48248  0.27724  0.35603  1.0000
  C   C87       1.0  0.00727  0.33258  0.39549  1.0000
  H   H156      1.0  0.42381  0.27369  0.43640  1.0000
  H   H157      1.0  0.11036  0.13336  0.42864  1.0000
  S   S23       1.0  0.31775  0.45112  0.36649  1.0000
  H   H158      1.0  0.15284  0.07495  0.43976  1.0000
  S   S24       1.0  0.15941  0.02598  0.49017  1.0000
  S   S25       1.0  0.31140  0.05794  0.39577  1.0000
  C   C88       1.0  0.40706  0.35362  0.34064  1.0000
  C   C89       1.0  0.40352  0.36530  0.36852  1.0000
  C   C90       1.0  0.37676  0.39579  0.37598  1.0000
  C   C91       1.0  0.35279  0.41454  0.35580  1.0000
  H   H159      1.0  0.33756  0.26843  0.41926  1.0000
  H   H160      1.0  0.31172  0.39997  0.45788  1.0000
  H   H161      1.0  0.42139  0.35087  0.38430  1.0000
  H   H162      1.0  0.37481  0.40487  0.39753  1.0000
  C   C92       1.0  0.45494  0.32077  0.47805  1.0000
  H   H163      1.0  0.29121  0.12455  0.55955  1.0000
  C   C93       1.0  0.41140  0.14389  0.42130  1.0000
  C   C94       1.0  0.39501  0.14493  0.39449  1.0000
  C   C95       1.0  0.36384  0.11899  0.38728  1.0000
  C   C96       1.0  0.34880  0.09162  0.40668  1.0000
  C   C97       1.0  0.36459  0.09109  0.43367  1.0000
  C   C98       1.0  0.39576  0.11714  0.44093  1.0000
  H   H164      1.0  0.40619  0.16581  0.37935  1.0000
  H   H165      1.0  0.35117  0.12017  0.36657  1.0000
  H   H166      1.0  0.35305  0.07039  0.44888  1.0000
  H   H167      1.0  0.40805  0.11630  0.46178  1.0000
  H   H168      1.0  0.46264  0.33246  0.49915  1.0000
  Fe  Fe11      1.0  0.48602  0.21212  0.39973  1.0000
  H   H169      1.0  0.20496  0.36319  0.52128  1.0000
  C   C99       1.0  0.12988  0.06808  0.48131  1.0000
  C   C100      1.0  0.07928  0.11694  0.49496  1.0000
  C   C101      1.0  0.10319  0.08358  0.50112  1.0000
  H   H170      1.0  0.05873  0.12835  0.51034  1.0000
  H   H171      1.0  0.10084  0.06959  0.52133  1.0000
  C   C102      1.0  0.37105  0.32415  0.50533  1.0000
  S   S26       1.0  0.04137  0.32802  0.55099  1.0000
  H   H172      1.0  0.02651  0.38752  0.41509  1.0000
  C   C103      1.0  0.30703  0.40506  0.43522  1.0000
  S   S27       1.0  0.47503  0.33104  0.56101  1.0000
  C   C104      1.0  0.08156  0.13509  0.46875  1.0000
  H   H173      1.0  0.11680  0.27931  0.60702  1.0000
  S   S28       1.0  0.32573  0.43853  0.59487  1.0000
  C   C105      1.0  0.10833  0.11960  0.44896  1.0000
  C   C106      1.0  0.13245  0.08643  0.45520  1.0000
  C   C107      1.0  0.43337  0.36074  0.57033  1.0000
  C   C108      1.0  0.41057  0.35221  0.59387  1.0000
  C   C109      1.0  0.37733  0.37583  0.60050  1.0000
  C   C110      1.0  0.36659  0.40866  0.58399  1.0000
  C   C111      1.0  0.38922  0.41712  0.56025  1.0000
  C   C112      1.0  0.42236  0.39317  0.55344  1.0000
  H   H174      1.0  0.46982  0.40245  0.48470  1.0000
  H   H175      1.0  0.43466  0.22177  0.48749  1.0000
  H   H176      1.0  0.38143  0.44228  0.54733  1.0000
  H   H177      1.0  0.43972  0.40001  0.53511  1.0000
  H   H178      1.0  0.39039  0.08616  0.59961  1.0000
  H   H179      1.0  0.24656  0.38615  0.43612  1.0000
  C   C113      1.0  0.07247  0.36910  0.54269  1.0000
  C   C114      1.0  0.10264  0.37995  0.56161  1.0000
  C   C115      1.0  0.12689  0.41341  0.55677  1.0000
  C   C116      1.0  0.12052  0.43716  0.53328  1.0000
  C   C117      1.0  0.09025  0.42649  0.51440  1.0000
  C   C118      1.0  0.06666  0.39239  0.51886  1.0000
  H   H180      1.0  0.10725  0.36233  0.58019  1.0000
  H   H181      1.0  0.15011  0.42113  0.57142  1.0000
  H   H182      1.0  0.08494  0.44472  0.49620  1.0000
  H   H183      1.0  0.04330  0.38473  0.50430  1.0000
  H   H184      1.0  0.45938  0.41617  0.44909  1.0000
  H   H185      1.0  0.26380  0.45561  0.46366  1.0000
  H   H186      1.0  0.37575  0.23278  0.41005  1.0000
  C   C119      1.0  0.34212  0.32159  0.52980  1.0000
  H   H187      1.0  0.41085  0.36654  0.46547  1.0000
  C   C120      1.0  0.45300  0.24879  0.48430  1.0000
  H   H188      1.0  0.39298  0.11120  0.32492  1.0000
  H   H189      1.0  0.06807  0.21350  0.33483  1.0000
  H   H190      1.0  0.18316  0.39558  0.35349  1.0000
  H   H191      1.0  0.33071  0.21622  0.42649  1.0000
  H   H192      1.0  0.46396  0.04399  0.59785  1.0000
  C   C121      1.0  0.15200  0.24600  0.57793  1.0000
  H   H193      1.0  0.05112  0.00491  0.57842  1.0000
  H   H194      1.0  0.01531  0.02700  0.34727  1.0000
  S   S29       1.0  0.21330  0.00397  0.41628  1.0000
  S   S30       1.0  0.43908  0.31445  0.33002  1.0000
  H   H195      1.0  0.46675  0.24853  0.52925  1.0000
  S   S31       1.0  0.14912  0.48054  0.52669  1.0000
  H   H196      1.0  0.32269  0.34829  0.53006  1.0000
  H   H197      1.0  0.32394  0.22765  0.33901  1.0000
  C   C122      1.0  0.11739  0.07292  0.33219  1.0000
  H   H198      1.0  0.06996  0.47884  0.57991  1.0000
  H   H199      1.0  0.31708  0.37827  0.42367  1.0000
  H   H200      1.0  0.11337  0.04844  0.57163  1.0000
  H   H201      1.0  0.14811  0.22449  0.56053  1.0000
  H   H202      1.0  0.16333  0.49618  0.46652  1.0000
  Fe  Fe12      1.0  0.27802  0.48745  0.33737  1.0000
  H   H203      1.0  0.48387  0.31168  0.46863  1.0000
  C   C123      1.0  0.21090  0.37775  0.35257  1.0000
  C   C124      1.0  0.20884  0.03452  0.31725  1.0000
  H   H204      1.0  0.01892  0.26739  0.32566  1.0000
  H   H205      1.0  0.12404  0.44981  0.43167  1.0000
  H   H206      1.0  0.37343  0.24495  0.33156  1.0000
  H   H207      1.0  0.25920  0.41486  0.40612  1.0000
  H   H208      1.0  0.06642  0.14576  0.63469  1.0000
  H   H209      1.0  0.33911  0.41782  0.31208  1.0000
  H   H210      1.0  0.47915  0.41162  0.61205  1.0000
  H   H211      1.0  0.22788  0.09020  0.33632  1.0000
  C   C125      1.0  0.41964  0.12901  0.62618  1.0000
  H   H212      1.0  0.27725  0.16860  0.59987  1.0000
  H   H213      1.0  0.06329  0.14297  0.59747  1.0000
  S   S32       1.0  0.21201  0.47795  0.33503  1.0000
  C   C126      1.0  0.00674  0.36201  0.41982  1.0000
  C   C127      1.0  0.45160  0.04054  0.37614  1.0000
  H   H214      1.0  0.26046  0.04851  0.34296  1.0000
  H   H215      1.0  0.26771  0.25620  0.31264  1.0000
  H   H216      1.0  0.12809  0.02639  0.60462  1.0000
  C   C128      1.0  0.19743  0.04243  0.57603  1.0000
  C   C129      1.0  0.40096  0.28923  0.50579  1.0000
  H   H217      1.0  0.38483  0.21672  0.46030  1.0000
  C   C130      1.0  0.49262  0.05679  0.60504  1.0000
  H   H218      1.0  0.38725  0.35267  0.50737  1.0000
  H   H219      1.0  0.37375  0.05203  0.34947  1.0000
  H   H220      1.0  0.02380  0.49846  0.55293  1.0000
  C   C131      1.0  0.44103  0.35629  0.45986  1.0000
  C   C132      1.0  0.00864  0.24618  0.36803  1.0000
  H   H221      1.0  0.13897  0.47957  0.37209  1.0000
  H   H222      1.0  0.02963  0.08618  0.61889  1.0000
  C   C133      1.0  0.14128  0.46796  0.41671  1.0000
  H   H223      1.0  0.18325  0.39481  0.44803  1.0000
  C   C134      1.0  0.46937  0.39155  0.46281  1.0000
  H   H224      1.0  0.42173  0.04070  0.38602  1.0000
  H   H225      1.0  0.25053  0.31062  0.33821  1.0000
  C   C135      1.0  0.10566  0.48986  0.61590  1.0000
  H   H226      1.0  0.47052  0.24335  0.46495  1.0000
  H   H227      1.0  0.08119  0.20334  0.58178  1.0000
  C   C136      1.0  0.36810  0.08239  0.64167  1.0000
  H   H228      1.0  0.43799  0.14083  0.60966  1.0000
  H   H229      1.0  0.09169  0.46882  0.38797  1.0000
  H   H230      1.0  0.14250  0.08857  0.32203  1.0000
  H   H231      1.0  0.02778  0.23801  0.38614  1.0000
  C   C137      1.0  0.24128  0.06303  0.32710  1.0000
  S   S33       1.0  0.33502  0.04282  0.63330  1.0000
  N   N4        1.0  0.05352  0.22558  0.61948  1.0000
  H   H232      1.0  0.16625  0.27324  0.56953  1.0000
  H   H233      1.0  0.41909  0.29356  0.52491  1.0000
  H   H234      1.0  0.32519  0.43086  0.42855  1.0000
  C   C138      1.0  0.39254  0.09801  0.62054  1.0000
  H   H235      1.0  0.00374  0.00186  0.61210  1.0000
  H   H236      1.0  0.46559  0.13316  0.32063  1.0000
  H   H237      1.0  0.32962  0.15815  0.59678  1.0000
  C   C139      1.0  0.16783  0.07252  0.58917  1.0000
  H   H238      1.0  0.38689  0.30674  0.44838  1.0000
  C   C140      1.0  0.04596  0.14855  0.61677  1.0000
  C   C141      1.0  0.03113  0.26211  0.61016  1.0000
  H   H239      1.0  0.35961  0.36832  0.61848  1.0000
  C   C142      1.0  0.21478  0.35891  0.32368  1.0000
  C   C143      1.0  0.11179  0.25678  0.59061  1.0000
  H   H240      1.0  0.24094  0.39990  0.48420  1.0000
  S   S34       1.0  0.01647  0.22130  0.53369  1.0000
  H   H241      1.0  0.09391  0.27100  0.57393  1.0000
  C   C144      1.0  0.19062  0.37018  0.50099  1.0000
  Fe  Fe13      1.0  0.00282  0.28563  0.52488  1.0000
  H   H242      1.0  0.29817  0.03343  0.56644  1.0000
  H   H243      1.0  0.20947  0.35449  0.36895  1.0000
  H   H244      1.0  0.15611  0.42821  0.46891  1.0000
  H   H245      1.0  0.45895  0.00963  0.37033  1.0000
  H   H246      1.0  0.20923  0.43110  0.50453  1.0000
  C   C145      1.0  0.18615  0.45743  0.41754  1.0000
  H   H247      1.0  0.12637  0.42907  0.38173  1.0000
  H   H248      1.0  0.41813  0.32699  0.60678  1.0000
  C   C146      1.0  0.26317  0.41264  0.42907  1.0000
  C   C147      1.0  0.39093  0.03431  0.33398  1.0000
  H   H249      1.0  0.04209  0.29796  0.35128  1.0000
  H   H250      1.0  0.09261  0.00632  0.42666  1.0000
  S   S35       1.0  0.26614  0.49099  0.52973  1.0000
  H   H251      1.0  0.38450  0.26106  0.50952  1.0000
  H   H252      1.0  0.35319  0.32460  0.48591  1.0000
  H   H253      1.0  0.18267  0.02854  0.55757  1.0000
  H   H254      1.0  0.18798  0.34030  0.32045  1.0000
  H   H255      1.0  0.11148  0.19963  0.61217  1.0000
  H   H256      1.0  0.03272  0.49247  0.33627  1.0000
  S   S36       1.0  0.27243  0.01443  0.47060  1.0000
  N   N5        1.0  0.23837  0.05777  0.56825  1.0000
  C   C148      1.0  0.25103  0.09123  0.58739  1.0000
  C   C149      1.0  0.01481  0.11565  0.61893  1.0000
  C   C150      1.0  0.12369  0.46082  0.38778  1.0000
  C   C151      1.0  0.23936  0.06992  0.53801  1.0000
  C   C152      1.0  0.21326  0.10601  0.53001  1.0000
  C   C153      1.0  0.29142  0.11138  0.58074  1.0000
  S   S37       1.0  0.05154  0.17675  0.45955  1.0000
  H   H257      1.0  0.19973  0.01797  0.59162  1.0000
  C   C154      1.0  0.38403  0.37318  0.32034  1.0000
  C   C155      1.0  0.22133  0.11913  0.50002  1.0000
  C   C156      1.0  0.30014  0.14492  0.60142  1.0000
  H   H258      1.0  0.25235  0.08031  0.60933  1.0000
  H   H259      1.0  0.22898  0.11565  0.58753  1.0000
  Fe  Fe14      1.0  0.28790  0.48718  0.57424  1.0000
  H   H260      1.0  0.18996  0.42829  0.40685  1.0000
  H   H261      1.0  0.47999  0.03446  0.41669  1.0000
  H   H262      1.0  0.15840  0.37464  0.50467  1.0000
  H   H263      1.0  0.27043  0.07548  0.53115  1.0000
  H   H264      1.0  0.22891  0.04511  0.52454  1.0000
  H   H265      1.0  0.21881  0.13196  0.54368  1.0000
  H   H266      1.0  0.18142  0.09771  0.53131  1.0000
  H   H267      1.0  0.31642  0.09010  0.58214  1.0000
  H   H268      1.0  0.20948  0.49153  0.48347  1.0000
  C   C157      1.0  0.48282  0.24963  0.50907  1.0000
  H   H269      1.0  0.32314  0.29474  0.52789  1.0000
  H   H270      1.0  0.32534  0.30075  0.33159  1.0000
  H   H271      1.0  0.16481  0.09976  0.57641  1.0000
  C   C158      1.0  0.35690  0.40332  0.32786  1.0000
  H   H272      1.0  0.17187  0.23297  0.59402  1.0000
  N   N6        1.0  0.42735  0.28531  0.48058  1.0000
  H   H273      1.0  0.20040  0.14327  0.49418  1.0000
  H   H274      1.0  0.25221  0.13030  0.49793  1.0000
  H   H275      1.0  0.21689  0.09403  0.48527  1.0000
  C   C159      1.0  0.07394  0.24461  0.34145  1.0000
  C   C160      1.0  0.18685  0.42109  0.46193  1.0000
  H   H276      1.0  0.40814  0.01805  0.44000  1.0000
  C   C161      1.0  0.34320  0.24077  0.32265  1.0000
  H   H277      1.0  0.35850  0.32044  0.54991  1.0000
  H   H278      1.0  0.34787  0.25287  0.46959  1.0000
  H   H279      1.0  0.08790  0.02653  0.37739  1.0000
  C   C162      1.0  0.26765  0.02422  0.57233  1.0000
  C   C163      1.0  0.48143  0.05424  0.39824  1.0000
  H   H280      1.0  0.44160  0.09781  0.35906  1.0000
  H   H281      1.0  0.05488  0.08610  0.33920  1.0000
  Fe  Fe15      1.0  0.27849  0.01456  0.42402  1.0000
  H   H282      1.0  0.23657  0.39760  0.35686  1.0000
  C   C164      1.0  0.25336  0.33366  0.32165  1.0000
  C   C165      1.0  0.37190  0.24580  0.45455  1.0000
  H   H283      1.0  0.12479  0.46364  0.61170  1.0000
  C   C166      1.0  0.07929  0.09576  0.32530  1.0000
  C   C167      1.0  0.47637  0.49009  0.60928  1.0000
  C   C168      1.0  0.12652  0.05444  0.59245  1.0000
  N   N7        1.0  0.42758  0.05696  0.32525  1.0000
  C   C169      1.0  0.03491  0.26691  0.34587  1.0000
  H   H284      1.0  0.02450  0.25974  0.58748  1.0000
  H   H285      1.0  0.10690  0.07559  0.60370  1.0000
  H   H286      1.0  0.08236  0.48100  0.63104  1.0000
  C   C170      1.0  0.20953  0.40742  0.48851  1.0000
  H   H287      1.0  0.09180  0.24450  0.36095  1.0000
  S   S38       1.0  0.49239  0.27894  0.40244  1.0000
  H   H288      1.0  0.44081  0.34747  0.43751  1.0000
  H   H289      1.0  0.12203  0.07531  0.35494  1.0000
  H   H290      1.0  0.19455  0.34442  0.48675  1.0000
  C   C171      1.0  0.35284  0.24069  0.42579  1.0000
  H   H291      1.0  0.17823  0.08116  0.61035  1.0000
  C   C172      1.0  0.40343  0.27949  0.45416  1.0000
  H   H292      1.0  0.08409  0.12806  0.32871  1.0000
  C   C173      1.0  0.02617  0.19028  0.61578  1.0000
  C   C174      1.0  0.08973  0.21924  0.60131  1.0000
  H   H293      1.0  0.30082  0.13332  0.62311  1.0000
  H   H294      1.0  0.49328  0.18559  0.50910  1.0000
  H   H295      1.0  0.04938  0.28935  0.61230  1.0000
  C   C175      1.0  0.11550  0.02915  0.32167  1.0000
  C   C176      1.0  0.45201  0.06878  0.35057  1.0000
  H   H296      1.0  0.48359  0.07408  0.34463  1.0000
  H   H297      1.0  0.01060  0.19210  0.59532  1.0000
  C   C177      1.0  0.11419  0.00896  0.38402  1.0000
  H   H298      1.0  0.03866  0.32357  0.39248  1.0000
  H   H299      1.0  0.18014  0.04318  0.35729  1.0000
  H   H300      1.0  0.13815  0.02957  0.39036  1.0000
  S   S39       1.0  0.49031  0.28644  0.63637  1.0000
  H   H301      1.0  0.08050  0.40058  0.32013  1.0000
  H   H302      1.0  0.42113  0.41682  0.64348  1.0000
  H   H303      1.0  0.08459  0.01812  0.32450  1.0000
  N   N8        1.0  0.20450  0.45584  0.44623  1.0000
  H   H304      1.0  0.27853  0.35281  0.32863  1.0000
  C   C178      1.0  0.24883  0.45171  0.44309  1.0000
  H   H305      1.0  0.00243  0.19052  0.63197  1.0000
  Fe  Fe16      1.0  0.49792  0.22009  0.63382  1.0000
  H   H306      1.0  0.26918  0.01598  0.59484  1.0000
  H   H307      1.0  0.47457  0.08501  0.40520  1.0000
  H   H308      1.0  0.46810  0.46937  0.59235  1.0000
  Fe  Fe17      1.0  0.00872  0.21086  0.48796  1.0000
  C   C179      1.0  0.19576  0.49326  0.46244  1.0000
  H   H309      1.0  0.26093  0.47612  0.42995  1.0000
  H   H310      1.0  0.20204  0.47904  0.40396  1.0000
  H   H311      1.0  0.43918  0.01113  0.47025  1.0000
  C   C180      1.0  0.18391  0.01870  0.34207  1.0000
  H   H312      1.0  0.01740  0.34762  0.43928  1.0000
  S   S40       1.0  0.22651  0.49427  0.59310  1.0000
  H   H313      1.0  0.45483  0.48537  0.62647  1.0000
  H   H314      1.0  0.39889  0.00659  0.34516  1.0000
  H   H315      1.0  0.49208  0.08927  0.60095  1.0000
  H   H316      1.0  0.13679  0.49983  0.42195  1.0000
  C   C181      1.0  0.32677  0.28088  0.31312  1.0000
  H   H317      1.0  0.31665  0.00185  0.33961  1.0000
  N   N9        1.0  0.14457  0.00003  0.33443  1.0000
  H   H318      1.0  0.99990  0.21746  0.35806  1.0000
  H   H319      1.0  0.49831  0.01588  0.63865  1.0000
  C   C182      1.0  0.49812  0.04861  0.63617  1.0000
  H   H320      1.0  0.19689  0.27354  0.31204  1.0000
  S   S41       1.0  0.02913  0.15517  0.69616  1.0000
  S   S42       1.0  0.03347  0.30813  0.79418  1.0000
  H   H321      1.0  0.04273  0.45612  0.80095  1.0000
  H   H322      1.0  0.11591  0.17576  0.91859  1.0000
  H   H323      1.0  0.41985  0.25333  0.74895  1.0000
  H   H324      1.0  0.37956  0.28921  0.68538  1.0000
  N   N10       1.0  0.01229  0.20810  0.87582  1.0000
  S   S43       1.0  0.45861  0.17206  0.92724  1.0000
  H   H325      1.0  0.05164  0.21069  0.83998  1.0000
  S   S44       1.0  0.44216  0.32391  0.82767  1.0000
  H   H326      1.0  0.04491  0.17059  0.90446  1.0000
  H   H327      1.0  0.13154  0.06261  0.93980  1.0000
  S   S45       1.0  0.15209  0.44630  0.75749  1.0000
  S   S46       1.0  0.31385  0.46168  0.85085  1.0000
  H   H328      1.0  0.07119  0.10300  0.92981  1.0000
  C   C183      1.0  0.11938  0.08190  0.95567  1.0000
  S   S47       1.0  0.17903  0.04624  0.72773  1.0000
  H   H329      1.0  0.46364  0.09903  0.74018  1.0000
  C   C184      1.0  0.08525  0.10501  0.95006  1.0000
  H   H330      1.0  0.47875  0.20405  0.78428  1.0000
  H   H331      1.0  0.14112  0.22272  0.91517  1.0000
  S   S48       1.0  0.33048  0.03857  0.89390  1.0000
  C   C185      1.0  0.40605  0.36158  0.83483  1.0000
  C   C186      1.0  0.39962  0.37663  0.86167  1.0000
  C   C187      1.0  0.37137  0.40713  0.86608  1.0000
  C   C188      1.0  0.34872  0.42274  0.84388  1.0000
  C   C189      1.0  0.35510  0.40758  0.81703  1.0000
  C   C190      1.0  0.38372  0.37743  0.81256  1.0000
  H   H332      1.0  0.41636  0.36481  0.87903  1.0000
  H   H333      1.0  0.36681  0.41857  0.88692  1.0000
  H   H334      1.0  0.33805  0.41918  0.79972  1.0000
  H   H335      1.0  0.38831  0.36610  0.79170  1.0000
  C   C191      1.0  0.42226  0.13573  0.91760  1.0000
  C   C192      1.0  0.40800  0.13207  0.89028  1.0000
  C   C193      1.0  0.37982  0.10245  0.88347  1.0000
  C   C194      1.0  0.36465  0.07664  0.90396  1.0000
  C   C195      1.0  0.37854  0.08060  0.93137  1.0000
  C   C196      1.0  0.40744  0.10959  0.93801  1.0000
  H   H336      1.0  0.41881  0.15192  0.87429  1.0000
  H   H337      1.0  0.36945  0.09974  0.86219  1.0000
  H   H338      1.0  0.36755  0.06081  0.94735  1.0000
  H   H339      1.0  0.41831  0.11173  0.95912  1.0000
  C   C197      1.0  0.04408  0.14812  0.85023  1.0000
  H   H340      1.0  0.29776  0.40249  0.65582  1.0000
  H   H341      1.0  0.44918  0.24544  0.79606  1.0000
  C   C198      1.0  0.32061  0.44352  0.68727  1.0000
  C   C199      1.0  0.39896  0.12852  0.67438  1.0000
  C   C200      1.0  0.37123  0.09812  0.66861  1.0000
  H   H342      1.0  0.40134  0.14015  0.69535  1.0000
  H   H343      1.0  0.35257  0.08659  0.68506  1.0000
  C   C201      1.0  0.06646  0.34614  0.78328  1.0000
  C   C202      1.0  0.08691  0.36819  0.80370  1.0000
  C   C203      1.0  0.11341  0.39871  0.79614  1.0000
  C   C204      1.0  0.11957  0.40767  0.76801  1.0000
  C   C205      1.0  0.09894  0.38580  0.74757  1.0000
  C   C206      1.0  0.07258  0.35507  0.75512  1.0000
  H   H344      1.0  0.08233  0.36153  0.82552  1.0000
  H   H345      1.0  0.12900  0.41535  0.81207  1.0000
  H   H346      1.0  0.10351  0.39257  0.72576  1.0000
  H   H347      1.0  0.05702  0.33838  0.73922  1.0000
  C   C207      1.0  0.07008  0.12420  0.70563  1.0000
  C   C208      1.0  0.08548  0.09703  0.68602  1.0000
  C   C209      1.0  0.11892  0.07326  0.69228  1.0000
  C   C210      1.0  0.13708  0.07586  0.71850  1.0000
  C   C211      1.0  0.12115  0.10233  0.73833  1.0000
  C   C212      1.0  0.08807  0.12649  0.73192  1.0000
  H   H348      1.0  0.07134  0.09403  0.66593  1.0000
  H   H349      1.0  0.13042  0.05272  0.67692  1.0000
  H   H350      1.0  0.13466  0.10458  0.75872  1.0000
  H   H351      1.0  0.07668  0.14707  0.74728  1.0000
  H   H352      1.0  0.00114  0.04007  0.67053  1.0000
  C   C213      1.0  0.03494  0.00497  0.95777  1.0000
  C   C214      1.0  0.45090  0.22092  0.78064  1.0000
  C   C215      1.0  0.43734  0.29771  0.70472  1.0000
  H   H353      1.0  0.39884  0.24523  0.70194  1.0000
  C   C216      1.0  0.34452  0.18970  0.96296  1.0000
  C   C217      1.0  0.40694  0.27172  0.68946  1.0000
  H   H354      1.0  0.29215  0.44465  0.69884  1.0000
  S   S49       1.0  0.00997  0.20045  0.77141  1.0000
  H   H355      1.0  0.07077  0.14647  0.86376  1.0000
  H   H356      1.0  0.42292  0.31129  0.72313  1.0000
  H   H357      1.0  0.44477  0.32285  0.69068  1.0000
  H   H358      1.0  0.09696  0.21014  0.87477  1.0000
  H   H359      1.0  0.12286  0.49334  0.90140  1.0000
  C   C218      1.0  0.48275  0.41668  0.65719  1.0000
  Fe  Fe18      1.0  0.21590  0.01305  0.96180  1.0000
  C   C219      1.0  0.23366  0.03425  0.79980  1.0000
  C   C220      1.0  0.09280  0.26194  0.65872  1.0000
  H   H360      1.0  0.07981  0.20005  0.65660  1.0000
  H   H361      1.0  0.35055  0.19462  0.94044  1.0000
  H   H362      1.0  0.09966  0.21823  0.93875  1.0000
  H   H363      1.0  0.15287  0.02971  0.78959  1.0000
  C   C221      1.0  0.06932  0.13079  0.97036  1.0000
  H   H364      1.0  0.32888  0.48719  0.73467  1.0000
  S   S50       1.0  0.25614  0.49097  0.77755  1.0000
  H   H365      1.0  0.49960  0.42048  0.93401  1.0000
  H   H366      1.0  0.06552  0.49210  0.75896  1.0000
  C   C222      1.0  0.18601  0.48524  0.90996  1.0000
  H   H367      1.0  0.47191  0.38712  0.91151  1.0000
  H   H368      1.0  0.27884  0.42243  0.95937  1.0000
  H   H369      1.0  0.03022  0.21674  0.91865  1.0000
  H   H370      1.0  0.40567  0.17989  0.97226  1.0000
  H   H371      1.0  0.31816  0.37910  0.68651  1.0000
  H   H372      1.0  0.02936  0.13033  0.80775  1.0000
  H   H373      1.0  0.49451  0.06220  0.83923  1.0000
  C   C223      1.0  0.27142  0.44101  0.97781  1.0000
  C   C224      1.0  0.48136  0.30119  0.76111  1.0000
  H   H374      1.0  0.44713  0.21213  0.73586  1.0000
  H   H375      1.0  0.41893  0.26160  0.66911  1.0000
  H   H376      1.0  0.37413  0.02772  0.83259  1.0000
  H   H377      1.0  0.38745  0.20880  0.78419  1.0000
  C   C225      1.0  0.00485  0.25194  0.87214  1.0000
  H   H378      1.0  0.01467  0.49629  0.74689  1.0000
  S   S51       1.0  0.47517  0.21693  0.85188  1.0000
  H   H379      1.0  0.19225  0.07976  0.78343  1.0000
  H   H380      1.0  0.20587  0.45993  0.91486  1.0000
  C   C226      1.0  0.47643  0.27508  0.71201  1.0000
  C   C227      1.0  0.32504  0.47900  0.66704  1.0000
  H   H381      1.0  0.12276  0.25686  0.64980  1.0000
  H   H382      1.0  0.24315  0.47772  0.66819  1.0000
  H   H383      1.0  0.41657  0.02930  0.67661  1.0000
  C   C228      1.0  0.32196  0.40404  0.67160  1.0000
  H   H384      1.0  0.02132  0.12754  0.85858  1.0000
  H   H385      1.0  0.11954  0.28684  0.69616  1.0000
  C   C229      1.0  0.11170  0.20850  0.91826  1.0000
  H   H386      1.0  0.10885  0.23440  0.69846  1.0000
  H   H387      1.0  0.35544  0.47685  0.65809  1.0000
  C   C230      1.0  0.44080  0.39951  0.65758  1.0000
  H   H388      1.0  0.02678  0.43206  0.76935  1.0000
  H   H389      1.0  0.45013  0.31064  0.76497  1.0000
  C   C231      1.0  0.08359  0.22041  0.89461  1.0000
  H   H390      1.0  0.31940  0.20911  0.96931  1.0000
  S   S52       1.0  0.22231  0.01953  0.65321  1.0000
  C   C232      1.0  0.24040  0.47236  0.97006  1.0000
  H   H391      1.0  0.44028  0.00373  0.84744  1.0000
  H   H392      1.0  0.05061  0.02082  0.90131  1.0000
  H   H393      1.0  0.40341  0.01250  0.80296  1.0000
  C   C233      1.0  0.05597  0.13284  0.82139  1.0000
  C   C234      1.0  0.14377  0.46912  0.90714  1.0000
  Fe  Fe19      1.0  0.48958  0.21548  0.89735  1.0000
  H   H394      1.0  0.42853  0.40109  0.67904  1.0000
  S   S53       1.0  0.22096  0.01781  0.91535  1.0000
  H   H395      1.0  0.49724  0.34715  0.72982  1.0000
  H   H396      1.0  0.03245  0.26721  0.86522  1.0000
  H   H397      1.0  0.02576  0.03362  0.94837  1.0000
  H   H398      1.0  0.49923  0.48796  0.85334  1.0000
  C   C235      1.0  0.25176  0.09930  0.77643  1.0000
  S   S54       1.0  0.28350  0.00325  0.70624  1.0000
  C   C236      1.0  0.41618  0.19276  0.78618  1.0000
  H   H399      1.0  0.46861  0.10891  0.84086  1.0000
  C   C237      1.0  0.49540  0.37422  0.77000  1.0000
  H   H400      1.0  0.49277  0.29368  0.78227  1.0000
  C   C238      1.0  0.14760  0.07067  0.87059  1.0000
  H   H401      1.0  0.45737  0.07065  0.86591  1.0000
  C   C239      1.0  0.19042  0.02428  0.84140  1.0000
  H   H402      1.0  0.08217  0.25336  0.89428  1.0000
  H   H403      1.0  0.38970  0.23081  0.97551  1.0000
  H   H404      1.0  0.33601  0.15806  0.96576  1.0000
  C   C240      1.0  0.04162  0.20264  0.89927  1.0000
  H   H405      1.0  0.15706  0.07742  0.82664  1.0000
  H   H406      1.0  0.06362  0.01185  0.96846  1.0000
  Fe  Fe20      1.0  0.21682  0.00736  0.69899  1.0000
  H   H407      1.0  0.06953  0.10288  0.82329  1.0000
  H   H408      1.0  0.07791  0.15305  0.81151  1.0000
  H   H409      1.0  0.12110  0.09031  0.87038  1.0000
  H   H410      1.0  0.21905  0.09411  0.81446  1.0000
  H   H411      1.0  0.28129  0.09933  0.78681  1.0000
  H   H412      1.0  0.25427  0.08481  0.75565  1.0000
  H   H413      1.0  0.24226  0.13057  0.77318  1.0000
  C   C241      1.0  0.48473  0.12357  0.73572  1.0000
  C   C242      1.0  0.15395  0.05271  0.84163  1.0000
  H   H414      1.0  0.14261  0.04681  0.88618  1.0000
  H   H415      1.0  0.47211  0.06106  0.64737  1.0000
  H   H416      1.0  0.41671  0.16738  0.77136  1.0000
  H   H417      1.0  0.13403  0.45532  0.92703  1.0000
  H   H418      1.0  0.01962  0.36655  0.97653  1.0000
  S   S55       1.0  0.45865  0.18155  0.66198  1.0000
  H   H419      1.0  0.14288  0.44620  0.89046  1.0000
  Fe  Fe21      1.0  0.28806  0.01099  0.65975  1.0000
  H   H420      1.0  0.06915  0.27048  0.70064  1.0000
  H   H421      1.0  0.34562  0.44339  0.70236  1.0000
  H   H422      1.0  0.12639  0.03646  0.83613  1.0000
  H   H423      1.0  0.19481  0.49739  0.88949  1.0000
  H   H424      1.0  0.21367  0.45624  0.96267  1.0000
  C   C243      1.0  0.09783  0.26336  0.69042  1.0000
  H   H425      1.0  0.49315  0.13787  0.75579  1.0000
  C   C244      1.0  0.06472  0.22781  0.64994  1.0000
  C   C245      1.0  0.48155  0.08454  0.85359  1.0000
  H   H426      1.0  0.17380  0.08859  0.87698  1.0000
  C   C246      1.0  0.38796  0.00180  0.82196  1.0000
  H   H427      1.0  0.41840  0.18084  0.80772  1.0000
  C   C247      1.0  0.02795  0.19133  0.84879  1.0000
  C   C248      1.0  0.22108  0.07778  0.79437  1.0000
  S   S56       1.0  0.20066  0.47782  0.83328  1.0000
  Fe  Fe22      1.0  0.26514  0.49128  0.82421  1.0000
  H   H428      1.0  0.47846  0.24760  0.69908  1.0000
  N   N11       1.0  0.20326  0.00768  0.81349  1.0000
  S   S57       1.0  0.02532  0.15805  0.96234  1.0000
  H   H429      1.0  0.49962  0.12583  0.88509  1.0000
  C   C249      1.0  0.44892  0.23776  0.75059  1.0000
  H   H430      1.0  0.21574  0.03996  0.85159  1.0000
  H   H431      1.0  0.01157  0.43818  0.97187  1.0000
  N   N12       1.0  0.48255  0.26500  0.74236  1.0000
  H   H432      1.0  0.35100  0.40059  0.66103  1.0000
  Fe  Fe23      1.0  0.28617  0.00472  0.92156  1.0000
  Fe  Fe24      1.0  0.19106  0.48243  0.78709  1.0000
  H   H433      1.0  0.03766  0.22931  0.66319  1.0000
  C   C250      1.0  0.41041  0.00596  0.69233  1.0000
  H   H434      1.0  0.08136  0.29128  0.65199  1.0000
  H   H435      1.0  0.26621  0.48272  0.92943  1.0000
  S   S58       1.0  0.49129  0.28278  0.90174  1.0000
  Fe  Fe25      1.0  0.48099  0.28355  0.85521  1.0000
  H   H436      1.0  0.30494  0.47438  0.64885  1.0000
  H   H437      1.0  0.48480  0.06958  0.69538  1.0000
  H   H438      1.0  0.48096  0.44827  0.66365  1.0000
  H   H439      1.0  0.44116  0.36797  0.65078  1.0000
  S   S59       1.0  0.28208  0.00414  0.96847  1.0000
  H   H440      1.0  0.09672  0.00704  0.91838  1.0000
  C   C251      1.0  0.02304  0.45907  0.78243  1.0000
  H   H441      1.0  0.26076  0.03685  0.81293  1.0000
  H   H442      1.0  0.24336  0.02088  0.77960  1.0000
  C   C252      1.0  0.42325  0.14425  0.65321  1.0000
  C   C253      1.0  0.03411  0.49593  0.76552  1.0000
  H   H443      1.0  0.46980  0.14598  0.72233  1.0000
  H   H444      1.0  0.00406  0.19145  0.83272  1.0000
  H   H445      1.0  0.46353  0.38246  0.76820  1.0000
  H   H446      1.0  0.38809  0.01759  0.70732  1.0000
  C   C254      1.0  0.16906  0.00157  0.79354  1.0000
  H   H447      1.0  0.08525  0.00184  0.78973  1.0000
  H   H448      1.0  0.11957  0.72978  0.07290  1.0000
  Fe  Fe26      1.0  0.26085  0.56405  0.04606  1.0000
  S   S60       1.0  0.27038  0.56316  0.09279  1.0000
  S   S61       1.0  0.28874  0.61705  0.02230  1.0000
  H   H449      1.0  0.30679  0.81409  0.02202  1.0000
  Fe  Fe27      1.0  0.20541  0.54811  0.09687  1.0000
  S   S62       1.0  0.15873  0.56437  0.13032  1.0000
  S   S63       1.0  0.19451  0.55299  0.05036  1.0000
  H   H450      1.0  0.43845  0.53796  0.05228  1.0000
  Fe  Fe28      1.0  0.27659  0.55674  0.29586  1.0000
  S   S64       1.0  0.32316  0.60270  0.28159  1.0000
  S   S65       1.0  0.21018  0.55180  0.28970  1.0000
  H   H451      1.0  0.20016  0.88207  0.04864  1.0000
  H   H452      1.0  0.26567  0.76980  0.98952  1.0000
  Fe  Fe29      1.0  0.45022  0.78550  0.10520  1.0000
  S   S66       1.0  0.44367  0.78502  0.15200  1.0000
  S   S67       1.0  0.42590  0.83955  0.08080  1.0000
  H   H453      1.0  0.29780  0.93516  0.06628  1.0000
  Fe  Fe30      1.0  0.43928  0.71851  0.14971  1.0000
  S   S68       1.0  0.38768  0.68209  0.16838  1.0000
  H   H454      1.0  0.09727  0.76406  0.16396  1.0000
  S   S69       1.0  0.44224  0.71911  0.10247  1.0000
  C   C255      1.0  0.34109  0.85631  0.16526  1.0000
  Fe  Fe31      1.0  0.29383  0.95548  0.22502  1.0000
  S   S70       1.0  0.30084  0.94900  0.17861  1.0000
  S   S71       1.0  0.34537  0.93552  0.25375  1.0000
  H   H455      1.0  0.09422  0.70568  0.13189  1.0000
  Fe  Fe32      1.0  0.23450  0.93908  0.17600  1.0000
  S   S72       1.0  0.21452  0.88419  0.15023  1.0000
  S   S73       1.0  0.22814  0.94210  0.22303  1.0000
  C   C256      1.0  0.18372  0.82792  0.24207  1.0000
  Fe  Fe33      1.0  0.05378  0.78968  0.03021  1.0000
  H   H456      1.0  0.25270  0.76445  0.11617  1.0000
  S   S74       1.0  0.07685  0.83580  0.06259  1.0000
  C   C257      1.0  0.15510  0.88800  0.01737  1.0000
  S   S75       1.0  0.06615  0.72423  0.02399  1.0000
  Fe  Fe34      1.0  0.04301  0.77731  0.29152  1.0000
  S   S76       1.0  0.05242  0.79486  0.24677  1.0000
  Fe  Fe35      1.0  0.06459  0.72970  0.23790  1.0000
  S   S77       1.0  0.11795  0.71258  0.21017  1.0000
  S   S78       1.0  0.05949  0.71358  0.28337  1.0000
  H   H457      1.0  0.05443  0.50355  0.28732  1.0000
  C   C258      1.0  0.17547  0.87130  0.12622  1.0000
  C   C259      1.0  0.17837  0.83558  0.11093  1.0000
  C   C260      1.0  0.14887  0.82423  0.09139  1.0000
  C   C261      1.0  0.11552  0.84832  0.08694  1.0000
  C   C262      1.0  0.11250  0.88397  0.10230  1.0000
  C   C263      1.0  0.14215  0.89543  0.12171  1.0000
  H   H458      1.0  0.20388  0.81665  0.11406  1.0000
  H   H459      1.0  0.15201  0.79686  0.07979  1.0000
  H   H460      1.0  0.08687  0.90289  0.09925  1.0000
  H   H461      1.0  0.13888  0.92266  0.13348  1.0000
  H   H462      1.0  0.16531  0.98030  0.29393  1.0000
  H   H463      1.0  0.39068  0.98273  0.19285  1.0000
  C   C264      1.0  0.32819  0.86104  0.27699  1.0000
  C   C265      1.0  0.35581  0.89168  0.27347  1.0000
  C   C266      1.0  0.26209  0.73061  0.15431  1.0000
  H   H464      1.0  0.13999  0.81947  0.31051  1.0000
  H   H465      1.0  0.29896  0.86365  0.26776  1.0000
  H   H466      1.0  0.32928  0.87848  0.15036  1.0000
  C   C267      1.0  0.38812  0.85135  0.05567  1.0000
  C   C268      1.0  0.38692  0.88995  0.04423  1.0000
  C   C269      1.0  0.35755  0.90106  0.02453  1.0000
  C   C270      1.0  0.32849  0.87379  0.01613  1.0000
  C   C271      1.0  0.32934  0.83537  0.02786  1.0000
  C   C272      1.0  0.35901  0.82410  0.04727  1.0000
  H   H467      1.0  0.40904  0.91143  0.05058  1.0000
  H   H468      1.0  0.35734  0.93077  0.01598  1.0000
  H   H469      1.0  0.41365  0.86089  0.22876  1.0000
  H   H470      1.0  0.35911  0.79444  0.05592  1.0000
  C   C273      1.0  0.34070  0.62392  0.24967  1.0000
  C   C274      1.0  0.37457  0.64856  0.25035  1.0000
  C   C275      1.0  0.38950  0.66642  0.22583  1.0000
  C   C276      1.0  0.37049  0.66031  0.20019  1.0000
  C   C277      1.0  0.33651  0.63588  0.19952  1.0000
  C   C278      1.0  0.32188  0.61757  0.22398  1.0000
  H   H471      1.0  0.38918  0.65418  0.27009  1.0000
  H   H472      1.0  0.41529  0.68544  0.22686  1.0000
  H   H473      1.0  0.32143  0.63082  0.17988  1.0000
  H   H474      1.0  0.29580  0.59885  0.22296  1.0000
  C   C279      1.0  0.14713  0.60675  0.15143  1.0000
  C   C280      1.0  0.11518  0.60434  0.17036  1.0000
  C   C281      1.0  0.10541  0.63650  0.18811  1.0000
  C   C282      1.0  0.12728  0.67177  0.18710  1.0000
  C   C283      1.0  0.15860  0.67452  0.16774  1.0000
  C   C284      1.0  0.16862  0.64231  0.15011  1.0000
  H   H475      1.0  0.09801  0.57726  0.17139  1.0000
  H   H476      1.0  0.08132  0.63386  0.20280  1.0000
  H   H477      1.0  0.17507  0.70186  0.16620  1.0000
  H   H478      1.0  0.19297  0.64497  0.13554  1.0000
  C   C285      1.0  0.46719  0.60623  0.19571  1.0000
  H   H479      1.0  0.16189  0.85798  0.00901  1.0000
  H   H480      1.0  0.05777  0.81193  0.12972  1.0000
  H   H481      1.0  0.45700  0.63723  0.19272  1.0000
  H   H482      1.0  0.25621  0.95551  0.02596  1.0000
  C   C286      1.0  0.44648  0.86321  0.22823  1.0000
  H   H483      1.0  0.32477  0.68315  0.11376  1.0000
  H   H484      1.0  0.11365  0.75340  0.12109  1.0000
  H   H485      1.0  0.17983  0.97596  0.11353  1.0000
  H   H486      1.0  0.25617  0.79231  0.16719  1.0000
  H   H487      1.0  0.39898  0.85902  0.14821  1.0000
  H   H488      1.0  0.16551  0.96369  0.03202  1.0000
  H   H489      1.0  0.13409  0.93430  0.26083  1.0000
  H   H490      1.0  0.19978  0.85672  0.24170  1.0000
  C   C287      1.0  0.44166  0.59344  0.09549  1.0000
  C   C288      1.0  0.39346  0.88772  0.28606  1.0000
  H   H491      1.0  0.37748  0.66620  0.08059  1.0000
  H   H492      1.0  0.30537  0.65132  0.08669  1.0000
  H   H493      1.0  0.03769  0.71909  0.09444  1.0000
  H   H494      1.0  0.13160  0.66796  0.27904  1.0000
  H   H495      1.0  0.46937  0.92617  0.10240  1.0000
  H   H496      1.0  0.19868  0.62118  0.99874  1.0000
  H   H497      1.0  0.31758  0.69100  0.99991  1.0000
  H   H498      1.0  0.37494  0.52200  0.28242  1.0000
  H   H499      1.0  0.12457  0.53832  0.25235  1.0000
  H   H500      1.0  0.14544  0.69738  0.09663  1.0000
  H   H501      1.0  0.18155  0.77261  0.21951  1.0000
  N   N13       1.0  0.06700  0.55894  0.26620  1.0000
  C   C289      1.0  0.09393  0.54221  0.24396  1.0000
  H   H502      1.0  0.11090  0.83649  0.16103  1.0000
  H   H503      1.0  0.44246  0.54749  0.18713  1.0000
  C   C290      1.0  0.16772  0.99647  0.09754  1.0000
  H   H504      1.0  0.42138  0.53835  0.26842  1.0000
  H   H505      1.0  0.07037  0.84603  0.18501  1.0000
  H   H506      1.0  0.09734  0.56357  0.22643  1.0000
  H   H507      1.0  0.13965  0.98394  0.08918  1.0000
  H   H508      1.0  0.48459  0.54665  0.08271  1.0000
  H   H509      1.0  0.45742  0.87109  0.13582  1.0000
  H   H510      1.0  0.04783  0.71466  0.16294  1.0000
  H   H511      1.0  0.24881  0.96120  0.09897  1.0000
  H   H512      1.0  0.18789  0.81365  0.26276  1.0000
  H   H513      1.0  0.45262  0.81289  0.25619  1.0000
  C   C291      1.0  0.06943  0.53242  0.29155  1.0000
  H   H514      1.0  0.09822  0.68220  0.08249  1.0000
  C   C292      1.0  0.43260  0.57897  0.18780  1.0000
  H   H515      1.0  0.16235  0.64549  0.30541  1.0000
  C   C293      1.0  0.42253  0.98624  0.19839  1.0000
  H   H516      1.0  0.47216  0.95179  0.21431  1.0000
  N   N14       1.0  0.25958  0.75754  0.20528  1.0000
  C   C294      1.0  0.24404  0.79290  0.22137  1.0000
  C   C295      1.0  0.30445  0.75825  0.20583  1.0000
  C   C296      1.0  0.24685  0.76259  0.17518  1.0000
  C   C297      1.0  0.24384  0.71835  0.21598  1.0000
  C   C298      1.0  0.23657  0.71473  0.24785  1.0000
  C   C299      1.0  0.19869  0.80069  0.21878  1.0000
  H   H517      1.0  0.48410  0.94726  0.16588  1.0000
  C   C300      1.0  0.32492  0.75469  0.23465  1.0000
  C   C301      1.0  0.36837  0.76773  0.23314  1.0000
  C   C302      1.0  0.22546  0.67218  0.25576  1.0000
  N   N15       1.0  0.02668  0.75556  0.13092  1.0000
  H   H518      1.0  0.25930  0.82060  0.21444  1.0000
  H   H519      1.0  0.25105  0.79044  0.24387  1.0000
  H   H520      1.0  0.31694  0.73320  0.19351  1.0000
  H   H521      1.0  0.31525  0.78586  0.19563  1.0000
  H   H522      1.0  0.48405  0.56650  0.22846  1.0000
  H   H523      1.0  0.21473  0.71132  0.20612  1.0000
  H   H524      1.0  0.26402  0.69366  0.20966  1.0000
  H   H525      1.0  0.21156  0.73413  0.25436  1.0000
  H   H526      1.0  0.26293  0.72317  0.26024  1.0000
  H   H527      1.0  0.21022  0.73511  0.12685  1.0000
  H   H528      1.0  0.29468  0.73301  0.15132  1.0000
  H   H529      1.0  0.31074  0.77325  0.25077  1.0000
  H   H530      1.0  0.32427  0.72321  0.24159  1.0000
  H   H531      1.0  0.37013  0.80023  0.22938  1.0000
  H   H532      1.0  0.38341  0.76113  0.25326  1.0000
  H   H533      1.0  0.38420  0.75188  0.21613  1.0000
  H   H534      1.0  0.19778  0.66294  0.24486  1.0000
  H   H535      1.0  0.01923  0.80952  0.15519  1.0000
  H   H536      1.0  0.22050  0.67037  0.27860  1.0000
  C   C303      1.0  0.11563  0.70810  0.09009  1.0000
  H   H537      1.0  0.01134  0.94321  0.22921  1.0000
  C   C304      1.0  0.02429  0.55997  0.25665  1.0000
  C   C305      1.0  0.45921  0.92667  0.16067  1.0000
  H   H538      1.0  0.10078  0.52409  0.29624  1.0000
  H   H539      1.0  0.39593  0.83794  0.18301  1.0000
  C   C306      1.0  0.19135  0.90446  0.03279  1.0000
  C   C307      1.0  0.20280  0.76894  0.02394  1.0000
  H   H540      1.0  0.14669  0.90764  0.99975  1.0000
  H   H541      1.0  0.45495  0.60676  0.24014  1.0000
  C   C308      1.0  0.32588  0.65270  0.10486  1.0000
  H   H542      1.0  0.21388  0.76215  0.17351  1.0000
  S   S79       1.0  0.00070  0.71564  0.22838  1.0000
  H   H543      1.0  0.31591  0.63155  0.12117  1.0000
  N   N16       1.0  0.43894  0.91259  0.18711  1.0000
  C   C309      1.0  0.46137  0.87798  0.19945  1.0000
  H   H544      1.0  0.12912  0.58278  0.30102  1.0000
  C   C310      1.0  0.44075  0.94615  0.20802  1.0000
  C   C311      1.0  0.39558  0.90320  0.18181  1.0000
  H   H545      1.0  0.05747  0.77303  0.18779  1.0000
  H   H546      1.0  0.10239  0.89556  0.27423  1.0000
  H   H547      1.0  0.21537  0.90761  0.01731  1.0000
  C   C312      1.0  0.46382  0.82256  0.23550  1.0000
  H   H548      1.0  0.19917  0.73373  0.98666  1.0000
  H   H549      1.0  0.11331  0.81827  0.19624  1.0000
  H   H550      1.0  0.43595  0.65130  0.99611  1.0000
  H   H551      1.0  0.44548  0.62501  0.10183  1.0000
  H   H552      1.0  0.31358  0.87249  0.08793  1.0000
  H   H553      1.0  0.42473  0.93798  0.22748  1.0000
  H   H554      1.0  0.37822  0.90536  0.20150  1.0000
  H   H555      1.0  0.38224  0.92581  0.16773  1.0000
  C   C313      1.0  0.37185  0.60108  0.08319  1.0000
  H   H556      1.0  0.07896  0.61977  0.25399  1.0000
  H   H557      1.0  0.45486  0.80004  0.21975  1.0000
  C   C314      1.0  0.38572  0.86212  0.16910  1.0000
  H   H558      1.0  0.33530  0.82639  0.15635  1.0000
  C   C315      1.0  0.00704  0.88865  0.01810  1.0000
  H   H559      1.0  0.32527  0.85907  0.18549  1.0000
  H   H560      1.0  0.15412  0.89665  0.28388  1.0000
  C   C316      1.0  0.01590  0.58227  0.22897  1.0000
  C   C317      1.0  0.32205  0.62762  0.99405  1.0000
  H   H561      1.0  0.17475  0.78121  0.98483  1.0000
  H   H562      1.0  0.34817  0.53430  0.05398  1.0000
  C   C318      1.0  0.33812  0.82721  0.29305  1.0000
  C   C319      1.0  0.07347  0.78514  0.16946  1.0000
  H   H563      1.0  0.12942  0.88552  0.03169  1.0000
  H   H564      1.0  0.05179  0.50217  0.22233  1.0000
  H   H565      1.0  0.03496  0.57149  0.21173  1.0000
  C   C320      1.0  0.28595  0.88779  0.09458  1.0000
  H   H566      1.0  0.43842  0.99828  0.17998  1.0000
  C   C321      1.0  0.45003  0.60299  0.02484  1.0000
  H   H567      1.0  0.26450  0.89821  0.05324  1.0000
  H   H568      1.0  0.25284  0.71136  0.11154  1.0000
  H   H569      1.0  0.39485  0.62870  0.03749  1.0000
  C   C322      1.0  0.04358  0.79191  0.14533  1.0000
  H   H570      1.0  0.43832  0.94440  0.14761  1.0000
  H   H571      1.0  0.38719  0.64595  0.11477  1.0000
  H   H572      1.0  0.43589  0.64613  0.05703  1.0000
  C   C323      1.0  0.12775  0.91543  0.27931  1.0000
  C   C324      1.0  0.27208  0.91618  0.07178  1.0000
  C   C325      1.0  0.09492  0.72778  0.11483  1.0000
  S   S80       1.0  0.28994  0.88605  0.99172  1.0000
  C   C326      1.0  0.13223  0.64546  0.29595  1.0000
  H   H573      1.0  0.49676  0.82410  0.23642  1.0000
  H   H574      1.0  0.02222  0.64699  0.17499  1.0000
  H   H575      1.0  0.46122  0.85231  0.18501  1.0000
  H   H576      1.0  0.40791  0.58189  0.20302  1.0000
  C   C327      1.0  0.23671  0.94212  0.08193  1.0000
  C   C328      1.0  0.08022  0.60074  0.27291  1.0000
  H   H577      1.0  0.05935  0.61509  0.28786  1.0000
  H   H578      1.0  0.19215  0.81553  0.19856  1.0000
  C   C329      1.0  0.09311  0.82402  0.17840  1.0000
  H   H579      1.0  0.21510  0.92227  0.09244  1.0000
  C   C330      1.0  0.48431  0.57774  0.09028  1.0000
  H   H580      1.0  0.17499  0.75632  0.03268  1.0000
  H   H581      1.0  0.41503  0.91118  0.28361  1.0000
  H   H582      1.0  0.20503  0.80053  0.03053  1.0000
  C   C331      1.0  0.36839  0.64332  0.09593  1.0000
  H   H583      1.0  0.24133  0.81574  0.98570  1.0000
  H   H584      1.0  0.36236  0.57927  0.09938  1.0000
  C   C332      1.0  0.48050  0.59906  0.22634  1.0000
  H   H585      1.0  0.43434  0.58058  0.01189  1.0000
  C   C333      1.0  0.40693  0.52620  0.28735  1.0000
  H   H586      1.0  0.24980  0.65131  0.25030  1.0000
  H   H587      1.0  0.48016  0.65928  0.01701  1.0000
  H   H588      1.0  0.43341  0.85006  0.30972  1.0000
  C   C334      1.0  0.05276  0.74253  0.10701  1.0000
  H   H589      1.0  0.42106  0.58733  0.16690  1.0000
  S   S81       1.0  0.05824  0.80238  0.98417  1.0000
  H   H590      1.0  0.42983  0.57764  0.11415  1.0000
  H   H591      1.0  0.09114  0.95959  0.29900  1.0000
  H   H592      1.0  0.46567  0.96918  0.26928  1.0000
  H   H593      1.0  0.01207  0.52935  0.25486  1.0000
  H   H594      1.0  0.34890  0.59978  0.06649  1.0000
  C   C335      1.0  0.41033  0.54727  0.06232  1.0000
  H   H595      1.0  0.40682  0.52725  0.08071  1.0000
  H   H596      1.0  0.05078  0.95168  0.99522  1.0000
  H   H597      1.0  0.26291  0.86496  0.09865  1.0000
  C   C336      1.0  0.24289  0.98096  0.03729  1.0000
  C   C337      1.0  0.42239  0.61850  0.04836  1.0000
  H   H598      1.0  0.15152  0.83383  0.23917  1.0000
  H   H599      1.0  0.25506  0.70019  0.16172  1.0000
  C   C338      1.0  0.12332  0.60433  0.28416  1.0000
  H   H600      1.0  0.40064  0.58436  0.30468  1.0000
  N   N17       1.0  0.41226  0.59003  0.07173  1.0000
  H   H601      1.0  0.37183  0.56105  0.02631  1.0000
  C   C339      1.0  0.37608  0.53725  0.04194  1.0000
  H   H602      1.0  0.48101  0.62479  0.98820  1.0000
  C   C340      1.0  0.18141  0.94435  0.04729  1.0000
  C   C341      1.0  0.46249  0.63675  0.00543  1.0000
  N   N18       1.0  0.21562  0.96693  0.06021  1.0000
  H   H603      1.0  0.29211  0.90450  0.11407  1.0000
  H   H604      1.0  0.22838  0.75209  0.03261  1.0000
  H   H605      1.0  0.45609  0.88421  0.24478  1.0000
  C   C342      1.0  0.37604  0.82288  0.30519  1.0000
  C   C343      1.0  0.24316  0.73584  0.12552  1.0000
  C   C344      1.0  0.20192  0.76564  0.99213  1.0000
  H   H606      1.0  0.02084  0.61467  0.23172  1.0000
  H   H607      1.0  0.49527  0.55861  0.13311  1.0000
  H   H608      1.0  0.02694  0.66913  0.12529  1.0000
  H   H609      1.0  0.47728  0.58898  0.03312  1.0000
  C   C345      1.0  0.40383  0.85327  0.30127  1.0000
  H   H610      1.0  0.49977  0.59703  0.07508  1.0000
  C   C346      1.0  0.33074  0.66754  0.98754  1.0000
  H   H611      1.0  0.14470  0.59891  0.26696  1.0000
  H   H612      1.0  0.00539  0.57451  0.27262  1.0000
  H   H613      1.0  0.49158  0.60021  0.18081  1.0000
  H   H614      1.0  0.05714  0.76728  0.09215  1.0000
  C   C347      1.0  0.01886  0.95023  0.98893  1.0000
  H   H615      1.0  0.15928  0.93605  0.06339  1.0000
  H   H616      1.0  0.31614  0.80424  0.29626  1.0000
  C   C348      1.0  0.08177  0.50118  0.23191  1.0000
  C   C349      1.0  0.47844  0.89469  0.14162  1.0000
  C   C350      1.0  0.02015  0.72239  0.15159  1.0000
  C   C351      1.0  0.48489  0.97030  0.28810  1.0000
  H   H617      1.0  0.49340  0.88574  0.20194  1.0000
  H   H618      1.0  0.00411  0.80392  0.08374  1.0000
  C   C352      1.0  0.49411  0.91286  0.11460  1.0000
  C   C353      1.0  0.11733  0.94120  0.30456  1.0000
  H   H619      1.0  0.21273  0.55028  0.98073  1.0000
  H   H620      1.0  0.49263  0.93930  0.29384  1.0000
  C   C354      1.0  0.00437  0.68274  0.13923  1.0000
  H   H621      1.0  0.03963  0.88573  0.02097  1.0000
  H   H622      1.0  0.22553  0.99655  0.02084  1.0000
  H   H623      1.0  0.30546  0.99809  0.03560  1.0000
  H   H624      1.0  0.33348  0.56696  0.98239  1.0000
  H   H625      1.0  0.10948  0.50808  0.19109  1.0000
  H   H626      1.0  0.48047  0.67109  0.24765  1.0000
  H   H627      1.0  0.48561  0.56329  0.27636  1.0000
  H   H628      1.0  0.30843  0.98757  0.30374  1.0000
  H   H629      1.0  0.41039  0.50015  0.01344  1.0000
  H   H630      1.0  0.00332  0.94800  0.03346  1.0000
  N   N19       1.0  0.00478  0.99035  0.97870  1.0000
  C   C355      1.0  0.23983  0.78410  0.97905  1.0000
  S   S82       1.0  0.27062  0.55360  0.34291  1.0000
  C   C356      1.0  0.37362  0.55484  0.41616  1.0000
  Fe  Fe36      1.0  0.20515  0.54459  0.33652  1.0000
  S   S83       1.0  0.14956  0.56769  0.35950  1.0000
  C   C357      1.0  0.29888  0.67422  0.56737  1.0000
  H   H631      1.0  0.44445  0.71447  0.52828  1.0000
  Fe  Fe37      1.0  0.45893  0.70157  0.40141  1.0000
  S   S84       1.0  0.45397  0.69173  0.35496  1.0000
  S   S85       1.0  0.44813  0.65495  0.43533  1.0000
  H   H632      1.0  0.21045  0.59587  0.45803  1.0000
  Fe  Fe38      1.0  0.43958  0.75757  0.35166  1.0000
  H   H633      1.0  0.14172  0.71621  0.37545  1.0000
  C   C358      1.0  0.22253  0.81373  0.55306  1.0000
  S   S86       1.0  0.43962  0.76537  0.39849  1.0000
  C   C359      1.0  0.26044  0.73736  0.57751  1.0000
  Fe  Fe39      1.0  0.28396  0.94829  0.46831  1.0000
  S   S87       1.0  0.29357  0.94980  0.42195  1.0000
  H   H634      1.0  0.15801  0.71993  0.61966  1.0000
  Fe  Fe40      1.0  0.22781  0.93873  0.41728  1.0000
  S   S88       1.0  0.21347  0.89663  0.38097  1.0000
  S   S89       1.0  0.21909  0.93238  0.46385  1.0000
  S   S90       1.0  0.10666  0.68479  0.46130  1.0000
  H   H635      1.0  0.37470  0.57956  0.50624  1.0000
  C   C360      1.0  0.16931  0.87533  0.36689  1.0000
  C   C361      1.0  0.17152  0.85441  0.34147  1.0000
  H   H636      1.0  0.46489  0.92964  0.56222  1.0000
  C   C362      1.0  0.10124  0.83739  0.34384  1.0000
  C   C363      1.0  0.09898  0.85866  0.36913  1.0000
  C   C364      1.0  0.13270  0.87759  0.38057  1.0000
  H   H637      1.0  0.33205  0.69276  0.38394  1.0000
  H   H638      1.0  0.07091  0.86020  0.38007  1.0000
  H   H639      1.0  0.13043  0.89343  0.40012  1.0000
  H   H640      1.0  0.44398  0.55815  0.31637  1.0000
  H   H641      1.0  0.28961  0.74923  0.58480  1.0000
  C   C365      1.0  0.13845  0.60113  0.38750  1.0000
  C   C366      1.0  0.09839  0.60806  0.39462  1.0000
  C   C367      1.0  0.08801  0.63358  0.41695  1.0000
  C   C368      1.0  0.11759  0.65256  0.43257  1.0000
  C   C369      1.0  0.15759  0.64574  0.42536  1.0000
  C   C370      1.0  0.16801  0.62034  0.40300  1.0000
  H   H642      1.0  0.07518  0.59347  0.38285  1.0000
  H   H643      1.0  0.05723  0.63825  0.42234  1.0000
  H   H644      1.0  0.18081  0.65984  0.43737  1.0000
  H   H645      1.0  0.19893  0.61535  0.39798  1.0000
  C   C371      1.0  0.33344  0.64817  0.46306  1.0000
  C   C372      1.0  0.36788  0.66130  0.44910  1.0000
  C   C373      1.0  0.40472  0.64396  0.45501  1.0000
  H   H646      1.0  0.30491  0.66080  0.45764  1.0000
  H   H647      1.0  0.36571  0.68397  0.43322  1.0000
  C   C374      1.0  0.21063  0.53264  0.44929  1.0000
  Fe  Fe41      1.0  0.27598  0.55718  0.53390  1.0000
  S   S91       1.0  0.30178  0.55265  0.57711  1.0000
  S   S92       1.0  0.29054  0.60045  0.49847  1.0000
  H   H648      1.0  0.43108  0.59342  0.39186  1.0000
  Fe  Fe42      1.0  0.23905  0.56011  0.59308  1.0000
  H   H649      1.0  0.44300  0.93932  0.46143  1.0000
  S   S93       1.0  0.21428  0.56833  0.55019  1.0000
  C   C375      1.0  0.43364  0.95879  0.44397  1.0000
  Fe  Fe43      1.0  0.42080  0.75078  0.60029  1.0000
  S   S94       1.0  0.37124  0.77106  0.57031  1.0000
  S   S95       1.0  0.05777  0.81332  0.33097  1.0000
  S   S96       1.0  0.41876  0.68565  0.61212  1.0000
  H   H650      1.0  0.43519  0.60125  0.48086  1.0000
  S   S97       1.0  0.33366  0.92633  0.49741  1.0000
  Fe  Fe44      1.0  0.03878  0.76560  0.53505  1.0000
  S   S98       1.0  0.05004  0.77858  0.48970  1.0000
  S   S99       1.0  0.06590  0.79173  0.57511  1.0000
  Fe  Fe45      1.0  0.05195  0.71195  0.48306  1.0000
  S   S100      1.0  0.04469  0.69951  0.52894  1.0000
  C   C376      1.0  0.15336  0.89180  0.59955  1.0000
  C   C377      1.0  0.13782  0.86607  0.61960  1.0000
  C   C378      1.0  0.11125  0.83560  0.61166  1.0000
  C   C379      1.0  0.10010  0.83021  0.58358  1.0000
  C   C380      1.0  0.11591  0.85568  0.56346  1.0000
  C   C381      1.0  0.14217  0.88635  0.57146  1.0000
  H   H651      1.0  0.16354  0.57158  0.46447  1.0000
  H   H652      1.0  0.09916  0.81607  0.62743  1.0000
  H   H653      1.0  0.10754  0.85208  0.54181  1.0000
  H   H654      1.0  0.15381  0.90616  0.55570  1.0000
  C   C382      1.0  0.36300  0.81377  0.54903  1.0000
  C   C383      1.0  0.38550  0.84849  0.55177  1.0000
  C   C384      1.0  0.37610  0.88243  0.53574  1.0000
  C   C385      1.0  0.34440  0.88208  0.51650  1.0000
  C   C386      1.0  0.32290  0.84686  0.51292  1.0000
  C   C387      1.0  0.33190  0.81311  0.52931  1.0000
  H   H655      1.0  0.40995  0.84923  0.56635  1.0000
  H   H656      1.0  0.39339  0.90925  0.53835  1.0000
  H   H657      1.0  0.29888  0.84583  0.49794  1.0000
  H   H658      1.0  0.31464  0.78625  0.52670  1.0000
  H   H659      1.0  0.19983  0.53639  0.42760  1.0000
  C   C388      1.0  0.00865  0.52631  0.55941  1.0000
  C   C389      1.0  0.33549  0.61833  0.48359  1.0000
  C   C390      1.0  0.40693  0.61486  0.47603  1.0000
  C   C391      1.0  0.37262  0.60240  0.49046  1.0000
  H   H660      1.0  0.46138  0.88154  0.43994  1.0000
  H   H661      1.0  0.20481  0.56533  0.48838  1.0000
  H   H662      1.0  0.14768  0.58093  0.62474  1.0000
  Fe  Fe46      1.0  0.49331  0.76654  0.63713  1.0000
  C   C392      1.0  0.00012  0.88695  0.58554  1.0000
  C   C393      1.0  0.42435  0.82833  0.47426  1.0000
  H   H663      1.0  0.06792  0.57553  0.32628  1.0000
  H   H664      1.0  0.18796  0.73611  0.55987  1.0000
  C   C394      1.0  0.14931  0.60635  0.63845  1.0000
  H   H665      1.0  0.32605  0.68602  0.57765  1.0000
  C   C395      1.0  0.26153  0.69164  0.58080  1.0000
  H   H666      1.0  0.45291  0.83915  0.48308  1.0000
  H   H667      1.0  0.19031  0.81092  0.54843  1.0000
  C   C396      1.0  0.23106  0.80269  0.58399  1.0000
  H   H668      1.0  0.26723  0.85988  0.55110  1.0000
  C   C397      1.0  0.36521  0.54538  0.38503  1.0000
  C   C398      1.0  0.13258  0.69206  0.58383  1.0000
  H   H669      1.0  0.33440  0.62063  0.39156  1.0000
  H   H670      1.0  0.07300  0.91800  0.59237  1.0000
  H   H671      1.0  0.46731  0.52534  0.35724  1.0000
  H   H672      1.0  0.38403  0.64188  0.39105  1.0000
  C   C399      1.0  0.01515  0.59478  0.57638  1.0000
  H   H673      1.0  0.40971  0.92239  0.59941  1.0000
  H   H674      1.0  0.07705  0.96512  0.40514  1.0000
  C   C400      1.0  0.16844  0.70957  0.59896  1.0000
  H   H675      1.0  0.34221  0.59933  0.34229  1.0000
  H   H676      1.0  0.49435  0.89004  0.57722  1.0000
  H   H677      1.0  0.01191  0.86257  0.59874  1.0000
  H   H678      1.0  0.04949  0.88611  0.63283  1.0000
  H   H679      1.0  0.46649  0.96559  0.60760  1.0000
  C   C401      1.0  0.49737  0.88999  0.35270  1.0000
  H   H680      1.0  0.02633  0.60238  0.62115  1.0000
  H   H681      1.0  0.19967  0.85235  0.33071  1.0000
  C   C402      1.0  0.19632  0.56843  0.46612  1.0000
  H   H682      1.0  0.26134  0.81356  0.58964  1.0000
  H   H683      1.0  0.22861  0.97486  0.55816  1.0000
  C   C403      1.0  0.35774  0.63407  0.37825  1.0000
  C   C404      1.0  0.46300  0.99058  0.31220  1.0000
  C   C405      1.0  0.25948  0.98570  0.55542  1.0000
  C   C406      1.0  0.36962  0.60531  0.35459  1.0000
  H   H684      1.0  0.01223  0.69412  0.36796  1.0000
  H   H685      1.0  0.28103  0.94311  0.58615  1.0000
  Fe  Fe47      1.0  0.20578  0.50197  0.54874  1.0000
  C   C407      1.0  0.49538  0.72307  0.50065  1.0000
  H   H686      1.0  0.12759  0.96782  0.41798  1.0000
  C   C408      1.0  0.33146  0.99208  0.32008  1.0000
  S   S101      1.0  0.38662  0.77926  0.32522  1.0000
  H   H687      1.0  0.16417  0.76882  0.58337  1.0000
  S   S102      1.0  0.18578  0.93181  0.60827  1.0000
  H   H688      1.0  0.34652  0.96321  0.32368  1.0000
  H   H689      1.0  0.28371  0.92670  0.55043  1.0000
  H   H690      1.0  0.23877  0.79506  0.53794  1.0000
  H   H691      1.0  0.01322  0.61518  0.55817  1.0000
  Fe  Fe48      1.0  0.20819  0.99895  0.46290  1.0000
  N   N20       1.0  0.22691  0.75941  0.59176  1.0000
  H   H692      1.0  0.31343  0.66639  0.35387  1.0000
  H   H693      1.0  0.02623  0.96437  0.56144  1.0000
  H   H694      1.0  0.40286  0.54276  0.42264  1.0000
  H   H695      1.0  0.01959  0.55861  0.31556  1.0000
  C   C409      1.0  0.00551  0.76202  0.63380  1.0000
  H   H696      1.0  0.12038  0.66722  0.59632  1.0000
  C   C410      1.0  0.18672  0.74459  0.58230  1.0000
  C   C411      1.0  0.34197  0.53599  0.43479  1.0000
  C   C412      1.0  0.38918  0.54000  0.33774  1.0000
  N   N21       1.0  0.18617  0.78236  0.44395  1.0000
  C   C413      1.0  0.17708  0.75371  0.42051  1.0000
  C   C414      1.0  0.19186  0.75908  0.47059  1.0000
  C   C415      1.0  0.15008  0.80860  0.44784  1.0000
  C   C416      1.0  0.22170  0.80853  0.43812  1.0000
  C   C417      1.0  0.25607  0.79016  0.42079  1.0000
  C   C418      1.0  0.16251  0.77249  0.39284  1.0000
  C   C419      1.0  0.15057  0.83624  0.47384  1.0000
  C   C420      1.0  0.22671  0.72897  0.47138  1.0000
  C   C421      1.0  0.22315  0.70119  0.49645  1.0000
  C   C422      1.0  0.29279  0.81683  0.42158  1.0000
  H   H697      1.0  0.08799  0.93919  0.54218  1.0000
  C   C423      1.0  0.11953  0.86926  0.47147  1.0000
  H   H698      1.0  0.15342  0.73274  0.42707  1.0000
  H   H699      1.0  0.20295  0.73468  0.41552  1.0000
  H   H700      1.0  0.19740  0.77932  0.48851  1.0000
  H   H701      1.0  0.16393  0.74293  0.47572  1.0000
  H   H702      1.0  0.12257  0.79017  0.44909  1.0000
  H   H703      1.0  0.14601  0.82814  0.42935  1.0000
  H   H704      1.0  0.21254  0.83575  0.42653  1.0000
  H   H705      1.0  0.23449  0.81972  0.45807  1.0000
  H   H706      1.0  0.24702  0.78701  0.39862  1.0000
  H   H707      1.0  0.26497  0.76045  0.42833  1.0000
  H   H708      1.0  0.13190  0.78429  0.39530  1.0000
  H   H709      1.0  0.18215  0.79716  0.38636  1.0000
  H   H710      1.0  0.17998  0.85046  0.47674  1.0000
  H   H711      1.0  0.14356  0.81881  0.49289  1.0000
  H   H712      1.0  0.22792  0.70986  0.45263  1.0000
  H   H713      1.0  0.25528  0.74522  0.47342  1.0000
  H   H714      1.0  0.22131  0.71843  0.51610  1.0000
  H   H715      1.0  0.19629  0.68217  0.49441  1.0000
  H   H716      1.0  0.24960  0.68151  0.49753  1.0000
  H   H717      1.0  0.31604  0.80457  0.40756  1.0000
  H   H718      1.0  0.28508  0.84727  0.41444  1.0000
  H   H719      1.0  0.30500  0.81844  0.44309  1.0000
  H   H720      1.0  0.06091  0.74767  0.37708  1.0000
  H   H721      1.0  0.11064  0.65331  0.31258  1.0000
  H   H722      1.0  0.08941  0.85655  0.46831  1.0000
  H   H723      1.0  0.11937  0.88725  0.49092  1.0000
  H   H724      1.0  0.12666  0.88928  0.45377  1.0000
  H   H725      1.0  0.01600  0.79297  0.63717  1.0000
  H   H726      1.0  0.14133  0.68046  0.56303  1.0000
  H   H727      1.0  0.02194  0.89306  0.56878  1.0000
  H   H728      1.0  0.00897  0.75399  0.61147  1.0000
  C   C424      1.0  0.34042  0.67265  0.36653  1.0000
  H   H729      1.0  0.31910  0.96227  0.56300  1.0000
  C   C425      1.0  0.23494  0.85658  0.54743  1.0000
  H   H730      1.0  0.14860  0.75521  0.35026  1.0000
  H   H731      1.0  0.19134  0.73035  0.36473  1.0000
  C   C426      1.0  0.06570  0.56564  0.54452  1.0000
  H   H732      1.0  0.46996  0.85012  0.38140  1.0000
  H   H733      1.0  0.14903  0.95911  0.36889  1.0000
  C   C427      1.0  0.00054  0.74583  0.39368  1.0000
  H   H734      1.0  0.20990  0.82127  0.59604  1.0000
  H   H735      1.0  0.26170  0.68259  0.60300  1.0000
  H   H736      1.0  0.23570  0.67801  0.57000  1.0000
  H   H737      1.0  0.18985  0.68529  0.60256  1.0000
  N   N22       1.0  0.38941  0.56682  0.36308  1.0000
  H   H738      1.0  0.43296  0.71108  0.49143  1.0000
  C   C428      1.0  0.05156  0.51837  0.34191  1.0000
  N   N23       1.0  0.41606  0.90066  0.41057  1.0000
  C   C429      1.0  0.44860  0.91109  0.39027  1.0000
  C   C430      1.0  0.40243  0.93802  0.42510  1.0000
  C   C431      1.0  0.43246  0.87116  0.43127  1.0000
  C   C432      1.0  0.38094  0.88223  0.39582  1.0000
  C   C433      1.0  0.36359  0.90603  0.37082  1.0000
  H   H739      1.0  0.34643  0.60318  0.61669  1.0000
  C   C434      1.0  0.40513  0.86029  0.45609  1.0000
  H   H740      1.0  0.26373  0.76596  0.62843  1.0000
  C   C435      1.0  0.32769  0.88460  0.35830  1.0000
  H   H741      1.0  0.47589  0.92023  0.40176  1.0000
  H   H742      1.0  0.08693  0.96169  0.60987  1.0000
  H   H743      1.0  0.43842  0.53677  0.59283  1.0000
  H   H744      1.0  0.43994  0.93724  0.37745  1.0000
  H   H745      1.0  0.39266  0.96053  0.40959  1.0000
  H   H746      1.0  0.37578  0.93191  0.43813  1.0000
  H   H747      1.0  0.43955  0.84281  0.42070  1.0000
  H   H748      1.0  0.38842  0.85176  0.38830  1.0000
  H   H749      1.0  0.35597  0.87811  0.41068  1.0000
  H   H750      1.0  0.38565  0.90992  0.35395  1.0000
  H   H751      1.0  0.35359  0.93599  0.37733  1.0000
  H   H752      1.0  0.31295  0.55112  0.43170  1.0000
  H   H753      1.0  0.43732  0.86914  0.35571  1.0000
  H   H754      1.0  0.37615  0.84858  0.44884  1.0000
  H   H755      1.0  0.39971  0.88651  0.46950  1.0000
  H   H756      1.0  0.06197  0.62745  0.59936  1.0000
  H   H757      1.0  0.10899  0.71483  0.58125  1.0000
  H   H758      1.0  0.31784  0.89979  0.33894  1.0000
  H   H759      1.0  0.33516  0.85335  0.35302  1.0000
  H   H760      1.0  0.30252  0.88475  0.37320  1.0000
  C   C436      1.0  0.12733  0.98081  0.36016  1.0000
  C   C437      1.0  0.45721  0.53769  0.37751  1.0000
  H   H761      1.0  0.14593  0.86986  0.64127  1.0000
  S   S103      1.0  0.23082  0.60577  0.62832  1.0000
  H   H762      1.0  0.43739  0.87900  0.60764  1.0000
  N   N24       1.0  0.03823  0.55748  0.56863  1.0000
  C   C438      1.0  0.06041  0.54126  0.59361  1.0000
  H   H763      1.0  0.40125  0.51006  0.34290  1.0000
  H   H764      1.0  0.10480  0.61574  0.50698  1.0000
  C   C439      1.0  0.48729  0.92225  0.57846  1.0000
  C   C440      1.0  0.09937  0.59579  0.55017  1.0000
  C   C441      1.0  0.46158  0.87737  0.37010  1.0000
  C   C442      1.0  0.06152  0.94747  0.59889  1.0000
  H   H765      1.0  0.29872  0.64143  0.56967  1.0000
  H   H766      1.0  0.23202  0.72499  0.62982  1.0000
  H   H767      1.0  0.44054  0.51396  0.38841  1.0000
  C   C443      1.0  0.37152  0.59260  0.62979  1.0000
  H   H768      1.0  0.36947  0.51264  0.38347  1.0000
  H   H769      1.0  0.08086  0.56385  0.60241  1.0000
  C   C444      1.0  0.10213  0.98547  0.40995  1.0000
  C   C445      1.0  0.32295  0.84793  0.63171  1.0000
  C   C446      1.0  0.47027  0.53208  0.59798  1.0000
  H   H770      1.0  0.11145  0.51171  0.57429  1.0000
  C   C447      1.0  0.04512  0.75347  0.39701  1.0000
  H   H771      1.0  0.35055  0.53903  0.45703  1.0000
  H   H772      1.0  0.11977  0.58498  0.56670  1.0000
  H   H773      1.0  0.39875  0.59165  0.61679  1.0000
  H   H774      1.0  0.49513  0.92639  0.62292  1.0000
  H   H775      1.0  0.05006  0.78504  0.40285  1.0000
  H   H776      1.0  0.11699  0.97494  0.56176  1.0000
  H   H777      1.0  0.48544  0.55844  0.41584  1.0000
  C   C448      1.0  0.47170  0.93304  0.60744  1.0000
  H   H778      1.0  0.40423  0.82072  0.49175  1.0000
  H   H779      1.0  0.44237  0.75866  0.50743  1.0000
  H   H780      1.0  0.24357  0.53359  0.44929  1.0000
  C   C449      1.0  0.28764  0.95252  0.56446  1.0000
  N   N25       1.0  0.02667  0.94251  0.61829  1.0000
  H   H781      1.0  0.35788  0.53415  0.33118  1.0000
  H   H782      1.0  0.44703  0.59419  0.35722  1.0000
  H   H783      1.0  0.38931  0.62256  0.34047  1.0000
  H   H784      1.0  0.38998  0.98999  0.46954  1.0000
  H   H785      1.0  0.37405  0.58695  0.42044  1.0000
  H   H786      1.0  0.46039  0.96714  0.43190  1.0000
  H   H787      1.0  0.10025  0.96348  0.35496  1.0000
  H   H788      1.0  0.04013  0.53160  0.36154  1.0000
  H   H789      1.0  0.08682  0.62484  0.55647  1.0000
  H   H790      1.0  0.47957  0.55476  0.61346  1.0000
  H   H791      1.0  0.36301  0.52948  0.62429  1.0000
  H   H792      1.0  0.10889  0.92064  0.32162  1.0000
  H   H793      1.0  0.48783  0.53638  0.57863  1.0000
  H   H794      1.0  0.33302  0.54986  0.38105  1.0000
  H   H795      1.0  0.07915  0.53754  0.53663  1.0000
  H   H796      1.0  0.29992  0.68128  0.54474  1.0000
  C   C450      1.0  0.43122  0.57512  0.37256  1.0000
  C   C451      1.0  0.12370  0.60288  0.52372  1.0000
  C   C452      1.0  0.49407  0.54769  0.39476  1.0000
  H   H797      1.0  0.04863  0.57781  0.52656  1.0000
  H   H798      1.0  0.21974  0.87751  0.56166  1.0000
  C   C453      1.0  0.16105  0.74157  0.36945  1.0000
  C   C454      1.0  0.08784  0.96936  0.55158  1.0000
  C   C455      1.0  0.05379  0.97311  0.57249  1.0000
  C   C456      1.0  0.23305  0.75640  0.62290  1.0000
  H   H799      1.0  0.22802  0.86485  0.52554  1.0000
  H   H800      1.0  0.36249  0.68823  0.35326  1.0000
  C   C457      1.0  0.00703  0.65827  0.60504  1.0000
  H   H801      1.0  0.05789  0.73432  0.41364  1.0000
  C   C458      1.0  0.43262  0.91044  0.61403  1.0000
  H   H802      1.0  0.26020  0.74228  0.55475  1.0000
  C   C459      1.0  0.45111  0.72689  0.50733  1.0000
  C   C460      1.0  0.13772  0.83565  0.32995  1.0000
  C   C461      1.0  0.05089  0.54939  0.31872  1.0000
  Fe  Fe49      1.0  0.48505  0.68643  0.60639  1.0000
  H   H803      1.0  0.13680  0.57455  0.51616  1.0000
  H   H804      1.0  0.42989  0.80091  0.46192  1.0000
  H   H805      1.0  0.38243  0.84709  0.61628  1.0000
  H   H806      1.0  0.14815  0.62411  0.52812  1.0000
  C   C462      1.0  0.36724  0.85584  0.63580  1.0000
  H   H807      1.0  0.08247  0.50820  0.34554  1.0000
  H   H808      1.0  0.29996  0.54532  0.63999  1.0000
  C   C463      1.0  0.03848  0.91468  0.64156  1.0000
  C   C464      1.0  0.03025  0.61958  0.60159  1.0000
  H   H809      1.0  0.49062  0.91752  0.34104  1.0000
  H   H810      1.0  0.17657  0.94697  0.32172  1.0000
  H   H811      1.0  0.03893  0.53401  0.61052  1.0000
  C   C465      1.0  0.01525  0.98291  0.62934  1.0000
  H   H812      1.0  0.04185  0.99898  0.63738  1.0000
  H   H813      1.0  0.12448  0.51343  0.62530  1.0000
  H   H814      1.0  0.17552  0.78756  0.63002  1.0000
  H   H815      1.0  0.01153  0.67789  0.58672  1.0000
  H   H816      1.0  0.00370  0.68471  0.40405  1.0000
  S   S104      1.0  0.48682  0.75023  0.59150  1.0000
  H   H817      1.0  0.35801  0.91918  0.62934  1.0000
  H   H818      1.0  0.31854  0.81614  0.62631  1.0000
  C   C466      1.0  0.15314  0.96739  0.31352  1.0000
  H   H819      1.0  0.01784  0.67409  0.62393  1.0000
  C   C467      1.0  0.41657  0.99680  0.45668  1.0000
  C   C468      1.0  0.36296  0.55137  0.64170  1.0000
  H   H820      1.0  0.26459  0.99089  0.53286  1.0000
  H   H821      1.0  0.00037  0.62082  0.39440  1.0000
  H   H822      1.0  0.20301  0.99661  0.35312  1.0000
  H   H823      1.0  0.48301  0.99003  0.33055  1.0000
  C   C469      1.0  0.20287  0.77945  0.64153  1.0000
  H   H824      1.0  0.08387  0.99128  0.53448  1.0000
  C   C470      1.0  0.18617  0.62388  0.64378  1.0000
  C   C471      1.0  0.08687  0.50419  0.58864  1.0000
  H   H825      1.0  0.33869  0.50385  0.43007  1.0000
  H   H826      1.0  0.49025  0.66254  0.48712  1.0000
  H   H827      1.0  0.41435  0.97591  0.63663  1.0000
  H   H828      1.0  0.43611  0.97260  0.31650  1.0000
  H   H829      1.0  0.22878  0.83939  0.63925  1.0000
  H   H830      1.0  0.31095  0.86636  0.61443  1.0000
  C   C472      1.0  0.37521  0.89974  0.64378  1.0000
  H   H831      1.0  0.49954  0.66729  0.52308  1.0000
  N   N26       1.0  0.41819  0.91248  0.64392  1.0000
  C   C473      1.0  0.41189  0.55514  0.31175  1.0000
  H   H832      1.0  0.03281  0.63548  0.78026  1.0000
  Fe  Fe50      1.0  0.24362  0.55637  0.78224  1.0000
  S   S105      1.0  0.25660  0.55802  0.82840  1.0000
  S   S106      1.0  0.25497  0.60054  0.74705  1.0000
  H   H833      1.0  0.46166  0.59496  0.73711  1.0000
  Fe  Fe51      1.0  0.19170  0.54449  0.83499  1.0000
  S   S107      1.0  0.14635  0.56818  0.86708  1.0000
  S   S108      1.0  0.17811  0.54769  0.78921  1.0000
  H   H834      1.0  0.41090  0.92317  0.82402  1.0000
  H   H835      1.0  0.06435  0.86884  0.93487  1.0000
  N   N27       1.0  0.31815  0.51944  0.67963  1.0000
  C   C474      1.0  0.13848  0.96938  0.80219  1.0000
  S   S109      1.0  0.41281  0.67812  0.69801  1.0000
  H   H836      1.0  0.07950  0.94858  0.79126  1.0000
  H   H837      1.0  0.42426  0.86318  0.91524  1.0000
  Fe  Fe52      1.0  0.43576  0.70773  0.89375  1.0000
  S   S110      1.0  0.42984  0.70705  0.84655  1.0000
  S   S111      1.0  0.40477  0.65812  0.91932  1.0000
  H   H838      1.0  0.34286  0.85634  0.94378  1.0000
  Fe  Fe53      1.0  0.43045  0.77429  0.84872  1.0000
  S   S112      1.0  0.38736  0.82134  0.83031  1.0000
  H   H839      1.0  0.19953  0.55235  0.68862  1.0000
  S   S113      1.0  0.43311  0.77470  0.89606  1.0000
  H   H840      1.0  0.36112  0.90376  0.66443  1.0000
  Fe  Fe54      1.0  0.27578  0.93768  0.69794  1.0000
  H   H841      1.0  0.02959  0.63132  0.72824  1.0000
  S   S114      1.0  0.31503  0.88638  0.71459  1.0000
  C   C475      1.0  0.39428  0.96857  0.67820  1.0000
  C   C476      1.0  0.49429  0.84426  0.78672  1.0000
  S   S115      1.0  0.20853  0.94084  0.69408  1.0000
  H   H842      1.0  0.36437  0.97556  0.66970  1.0000
  H   H843      1.0  0.06437  0.58133  0.71039  1.0000
  S   S116      1.0  0.27732  0.93815  0.91710  1.0000
  H   H844      1.0  0.44470  0.85489  0.65157  1.0000
  Fe  Fe55      1.0  0.21162  0.95135  0.91407  1.0000
  S   S117      1.0  0.16056  0.92994  0.88547  1.0000
  S   S118      1.0  0.20333  0.94754  0.96059  1.0000
  S   S119      1.0  0.11543  0.71959  0.94608  1.0000
  Fe  Fe56      1.0  0.07118  0.77886  0.76462  1.0000
  S   S120      1.0  0.06819  0.78709  0.71776  1.0000
  S   S121      1.0  0.12476  0.79859  0.79125  1.0000
  Fe  Fe57      1.0  0.05400  0.72166  0.71506  1.0000
  S   S122      1.0  0.07061  0.67359  0.68289  1.0000
  S   S123      1.0  0.06114  0.71262  0.76123  1.0000
  C   C477      1.0  0.15075  0.89192  0.86026  1.0000
  C   C478      1.0  0.11386  0.89182  0.84629  1.0000
  C   C479      1.0  0.10516  0.86349  0.82534  1.0000
  C   C480      1.0  0.13320  0.83450  0.81817  1.0000
  C   C481      1.0  0.16969  0.83400  0.83267  1.0000
  C   C482      1.0  0.17843  0.86239  0.85353  1.0000
  H   H845      1.0  0.09202  0.91425  0.85139  1.0000
  H   H846      1.0  0.07693  0.86432  0.81454  1.0000
  H   H847      1.0  0.19145  0.81144  0.82777  1.0000
  H   H848      1.0  0.20647  0.86117  0.86448  1.0000
  C   C483      1.0  0.36961  0.83966  0.79747  1.0000
  C   C484      1.0  0.37640  0.82015  0.77211  1.0000
  C   C485      1.0  0.36019  0.83539  0.74703  1.0000
  C   C486      1.0  0.33706  0.87038  0.74677  1.0000
  C   C487      1.0  0.33101  0.89033  0.77206  1.0000
  C   C488      1.0  0.34715  0.87502  0.79711  1.0000
  H   H849      1.0  0.39356  0.79295  0.77183  1.0000
  H   H850      1.0  0.36516  0.81950  0.72771  1.0000
  H   H851      1.0  0.31329  0.91714  0.77243  1.0000
  H   H852      1.0  0.34203  0.89055  0.81650  1.0000
  C   C489      1.0  0.13848  0.61084  0.88867  1.0000
  C   C490      1.0  0.16365  0.64392  0.88834  1.0000
  C   C491      1.0  0.15606  0.67671  0.90605  1.0000
  C   C492      1.0  0.12319  0.67715  0.92423  1.0000
  C   C493      1.0  0.09792  0.64416  0.92445  1.0000
  C   C494      1.0  0.10560  0.61129  0.90684  1.0000
  H   H853      1.0  0.18894  0.64425  0.87445  1.0000
  H   H854      1.0  0.17559  0.70212  0.90548  1.0000
  H   H855      1.0  0.07256  0.64383  0.93828  1.0000
  H   H856      1.0  0.08586  0.58594  0.90733  1.0000
  C   C495      1.0  0.29932  0.62138  0.73368  1.0000
  C   C496      1.0  0.33408  0.62365  0.74953  1.0000
  C   C497      1.0  0.36832  0.64141  0.73822  1.0000
  C   C498      1.0  0.36847  0.65642  0.71086  1.0000
  C   C499      1.0  0.33373  0.65394  0.69495  1.0000
  C   C500      1.0  0.29917  0.63704  0.70649  1.0000
  H   H857      1.0  0.33442  0.61229  0.77063  1.0000
  H   H858      1.0  0.39478  0.64388  0.75087  1.0000
  H   H859      1.0  0.33326  0.66546  0.67389  1.0000
  H   H860      1.0  0.27228  0.63555  0.69410  1.0000
  H   H861      1.0  0.06361  0.95095  0.94160  1.0000
  S   S124      1.0  0.28333  0.94549  0.65151  1.0000
  H   H862      1.0  0.10342  0.91067  0.69864  1.0000
  C   C501      1.0  0.11601  0.65510  0.66865  1.0000
  S   S125      1.0  0.49648  0.70276  0.65072  1.0000
  H   H863      1.0  0.44707  0.95314  0.80744  1.0000
  H   H864      1.0  0.16816  0.59295  0.95471  1.0000
  C   C502      1.0  0.42176  0.95499  0.65393  1.0000
  C   C503      1.0  0.19108  0.83535  0.93928  1.0000
  C   C504      1.0  0.36530  0.60781  0.95555  1.0000
  C   C505      1.0  0.37353  0.64772  0.94875  1.0000
  H   H865      1.0  0.15089  0.93929  0.79811  1.0000
  H   H866      1.0  0.37846  0.58438  0.94315  1.0000
  H   H867      1.0  0.24712  0.80945  0.66758  1.0000
  C   C506      1.0  0.07098  0.76259  0.85360  1.0000
  C   C507      1.0  0.43307  0.88062  0.69218  1.0000
  H   H868      1.0  0.08774  0.87052  0.67626  1.0000
  C   C508      1.0  0.46337  0.58149  0.67012  1.0000
  H   H869      1.0  0.40105  0.87426  0.69496  1.0000
  C   C509      1.0  0.34973  0.82543  0.93719  1.0000
  H   H870      1.0  0.14546  0.83403  0.90693  1.0000
  H   H871      1.0  0.05193  0.89601  0.69795  1.0000
  C   C510      1.0  0.46596  0.59867  0.78147  1.0000
  H   H872      1.0  0.42061  0.89904  0.87049  1.0000
  H   H873      1.0  0.44981  0.81805  0.69535  1.0000
  H   H874      1.0  0.20792  0.78226  0.74567  1.0000
  H   H875      1.0  0.35597  0.56126  0.70205  1.0000
  N   N28       1.0  0.22919  0.53406  0.93854  1.0000
  H   H876      1.0  0.49633  0.97625  0.86046  1.0000
  H   H877      1.0  0.44520  0.94124  0.88525  1.0000
  H   H878      1.0  0.26941  0.82361  0.74471  1.0000
  C   C511      1.0  0.11021  0.74092  0.85882  1.0000
  H   H879      1.0  0.38787  0.54356  0.65563  1.0000
  H   H880      1.0  0.05082  0.58005  0.82955  1.0000
  H   H881      1.0  0.20285  0.85496  0.74097  1.0000
  H   H882      1.0  0.03054  0.80576  0.92691  1.0000
  H   H883      1.0  0.10597  0.70825  0.85795  1.0000
  C   C512      1.0  0.27669  0.52340  0.69137  1.0000
  C   C513      1.0  0.45311  0.87788  0.91964  1.0000
  C   C514      1.0  0.22597  0.56411  0.96186  1.0000
  H   H884      1.0  0.19814  0.83041  0.66918  1.0000
  H   H885      1.0  0.45313  0.96138  0.65984  1.0000
  H   H886      1.0  0.17327  0.50822  0.95159  1.0000
  H   H887      1.0  0.13659  0.59343  0.71868  1.0000
  H   H888      1.0  0.05862  0.88293  0.89882  1.0000
  H   H889      1.0  0.13122  0.97129  0.82470  1.0000
  C   C515      1.0  0.20479  0.63338  0.97766  1.0000
  H   H890      1.0  0.44767  0.90589  0.93131  1.0000
  H   H891      1.0  0.20058  0.85927  0.77857  1.0000
  C   C516      1.0  0.47534  0.88621  0.89248  1.0000
  C   C517      1.0  0.05471  0.64317  0.83255  1.0000
  H   H892      1.0  0.44103  0.90814  0.70364  1.0000
  C   C518      1.0  0.31879  0.79655  0.94860  1.0000
  C   C519      1.0  0.20007  0.60124  0.95540  1.0000
  H   H893      1.0  0.44527  0.88422  0.79105  1.0000
  N   N29       1.0  0.25273  0.74596  0.76650  1.0000
  C   C520      1.0  0.22728  0.78285  0.76436  1.0000
  C   C521      1.0  0.22692  0.70907  0.76649  1.0000
  C   C522      1.0  0.27436  0.74795  0.79416  1.0000
  C   C523      1.0  0.28369  0.74391  0.74385  1.0000
  C   C524      1.0  0.26854  0.74526  0.71343  1.0000
  C   C525      1.0  0.29828  0.71027  0.80263  1.0000
  C   C526      1.0  0.18859  0.70989  0.74839  1.0000
  C   C527      1.0  0.16909  0.66895  0.74664  1.0000
  C   C528      1.0  0.30266  0.75459  0.69340  1.0000
  C   C529      1.0  0.31895  0.71651  0.83071  1.0000
  H   H894      1.0  0.24470  0.68267  0.76020  1.0000
  H   H895      1.0  0.21615  0.70256  0.78799  1.0000
  H   H896      1.0  0.25292  0.75427  0.81132  1.0000
  H   H897      1.0  0.29608  0.77289  0.79436  1.0000
  H   H898      1.0  0.30616  0.76782  0.74679  1.0000
  H   H899      1.0  0.30096  0.71581  0.74535  1.0000
  H   H900      1.0  0.24541  0.76815  0.71021  1.0000
  H   H901      1.0  0.25609  0.71579  0.70767  1.0000
  H   H902      1.0  0.32175  0.70328  0.78719  1.0000
  H   H903      1.0  0.27864  0.68394  0.80461  1.0000
  H   H904      1.0  0.16650  0.73038  0.75792  1.0000
  H   H905      1.0  0.19461  0.72005  0.72690  1.0000
  H   H906      1.0  0.18750  0.64865  0.73378  1.0000
  H   H907      1.0  0.16501  0.65597  0.76773  1.0000
  H   H908      1.0  0.13949  0.67154  0.73653  1.0000
  H   H909      1.0  0.29340  0.74828  0.67166  1.0000
  H   H910      1.0  0.31109  0.78644  0.69510  1.0000
  H   H911      1.0  0.32923  0.73622  0.69812  1.0000
  H   H912      1.0  0.33429  0.68872  0.83709  1.0000
  H   H913      1.0  0.34145  0.74055  0.82911  1.0000
  H   H914      1.0  0.29706  0.72459  0.84704  1.0000
  H   H915      1.0  0.02453  0.74185  0.64639  1.0000
  H   H916      1.0  0.19887  0.50407  0.70545  1.0000
  H   H917      1.0  0.01217  0.90625  0.65434  1.0000
  H   H918      1.0  0.28465  0.51363  0.95636  1.0000
  N   N30       1.0  0.03469  0.57340  0.76851  1.0000
  N   N31       1.0  0.24360  0.78037  0.94775  1.0000
  C   C530      1.0  0.27657  0.80723  0.93797  1.0000
  C   C531      1.0  0.20575  0.79246  0.93322  1.0000
  H   H919      1.0  0.09774  0.56125  0.76893  1.0000
  C   C532      1.0  0.25217  0.73745  0.94085  1.0000
  C   C533      1.0  0.26343  0.72856  0.91008  1.0000
  H   H920      1.0  0.45844  0.85996  0.83753  1.0000
  H   H921      1.0  0.09985  0.93412  0.65040  1.0000
  C   C534      1.0  0.03868  0.74866  0.87440  1.0000
  C   C535      1.0  0.14827  0.84089  0.92951  1.0000
  C   C536      1.0  0.27233  0.68448  0.90607  1.0000
  C   C537      1.0  0.10005  0.97297  0.78539  1.0000
  H   H922      1.0  0.15443  0.69887  0.68701  1.0000
  H   H923      1.0  0.22857  0.95280  0.79759  1.0000
  H   H924      1.0  0.27724  0.80879  0.91479  1.0000
  H   H925      1.0  0.20922  0.79068  0.91021  1.0000
  C   C538      1.0  0.22244  0.96755  0.81800  1.0000
  H   H926      1.0  0.19319  0.75958  0.65876  1.0000
  H   H927      1.0  0.37949  0.81743  0.94552  1.0000
  H   H928      1.0  0.18049  0.99236  0.77272  1.0000
  H   H929      1.0  0.22585  0.71867  0.94570  1.0000
  H   H930      1.0  0.29034  0.74510  0.90359  1.0000
  H   H931      1.0  0.23884  0.73646  0.89571  1.0000
  C   C539      1.0  0.24629  0.55253  0.91249  1.0000
  H   H932      1.0  0.37788  0.51399  0.69640  1.0000
  C   C540      1.0  0.33976  0.59779  0.97790  1.0000
  H   H933      1.0  0.38778  0.55378  0.74986  1.0000
  H   H934      1.0  0.07432  0.64107  0.85113  1.0000
  H   H935      1.0  0.14180  0.54194  0.72926  1.0000
  C   C541      1.0  0.33961  0.51806  0.73240  1.0000
  H   H936      1.0  0.13905  0.87219  0.93299  1.0000
  Fe  Fe58      1.0  0.21735  0.95300  0.64819  1.0000
  H   H937      1.0  0.24625  0.66622  0.91196  1.0000
  H   H938      1.0  0.27935  0.67853  0.88386  1.0000
  H   H939      1.0  0.29833  0.67552  0.91889  1.0000
  H   H940      1.0  0.48180  0.85717  0.88252  1.0000
  H   H941      1.0  0.47558  0.89489  0.66057  1.0000
  H   H942      1.0  0.45660  0.55149  0.66182  1.0000
  H   H943      1.0  0.32766  0.76627  0.94202  1.0000
  H   H944      1.0  0.07424  0.97395  0.89351  1.0000
  H   H945      1.0  0.31521  0.58017  0.66516  1.0000
  C   C542      1.0  0.08065  0.56215  0.72528  1.0000
  C   C543      1.0  0.04095  0.82206  0.90832  1.0000
  C   C544      1.0  0.20214  0.51977  0.68519  1.0000
  H   H946      1.0  0.33019  0.60771  0.89310  1.0000
  H   H947      1.0  0.36396  0.98083  0.81587  1.0000
  H   H948      1.0  0.31613  0.53814  0.74044  1.0000
  C   C545      1.0  0.18817  0.51858  0.93219  1.0000
  C   C546      1.0  0.44407  0.88506  0.66104  1.0000
  H   H949      1.0  0.38996  0.94590  0.69453  1.0000
  H   H950      1.0  0.05279  0.53077  0.79995  1.0000
  H   H951      1.0  0.47075  0.56626  0.78386  1.0000
  H   H952      1.0  0.37638  0.61421  0.64699  1.0000
  H   H953      1.0  0.20645  0.78401  0.78231  1.0000
  H   H954      1.0  0.36263  0.70833  0.96062  1.0000
  C   C547      1.0  0.15287  0.67286  0.67384  1.0000
  H   H955      1.0  0.28186  0.60661  0.87683  1.0000
  C   C548      1.0  0.11464  0.62153  0.65113  1.0000
  H   H956      1.0  0.27635  0.72560  0.95439  1.0000
  C   C549      1.0  0.27248  0.92529  0.84418  1.0000
  C   C550      1.0  0.25672  0.50105  0.94763  1.0000
  H   H957      1.0  0.27243  0.90449  0.82617  1.0000
  H   H958      1.0  0.25068  0.91478  0.85982  1.0000
  C   C551      1.0  0.24968  0.82298  0.76314  1.0000
  H   H959      1.0  0.26752  0.82814  0.78225  1.0000
  H   H960      1.0  0.27076  0.83830  0.94473  1.0000
  H   H961      1.0  0.25983  0.98641  0.85371  1.0000
  C   C552      1.0  0.32214  0.55006  0.65677  1.0000
  C   C553      1.0  0.35630  0.67755  0.96518  1.0000
  H   H962      1.0  0.28010  0.60314  0.92944  1.0000
  C   C554      1.0  0.30357  0.58901  0.88911  1.0000
  H   H963      1.0  0.12808  0.82113  0.94144  1.0000
  H   H964      1.0  0.13223  0.74935  0.84269  1.0000
  H   H965      1.0  0.01559  0.87888  0.92139  1.0000
  C   C555      1.0  0.45028  0.91348  0.87311  1.0000
  H   H966      1.0  0.07694  0.79480  0.85535  1.0000
  C   C556      1.0  0.22046  0.81685  0.65503  1.0000
  H   H967      1.0  0.07099  0.81088  0.90298  1.0000
  C   C557      1.0  0.26183  0.96732  0.83486  1.0000
  C   C558      1.0  0.22081  0.85786  0.76033  1.0000
  Fe  Fe59      1.0  0.00224  0.79691  0.72447  1.0000
  C   C559      1.0  0.43591  0.94411  0.82821  1.0000
  H   H968      1.0  0.20167  0.94746  0.82925  1.0000
  H   H969      1.0  0.06964  0.53151  0.72237  1.0000
  H   H970      1.0  0.10634  0.97072  0.76268  1.0000
  H   H971      1.0  0.48256  0.61486  0.79800  1.0000
  H   H972      1.0  0.31306  0.56259  0.87688  1.0000
  H   H973      1.0  0.25591  0.57410  0.96876  1.0000
  C   C560      1.0  0.02926  0.60583  0.79004  1.0000
  C   C561      1.0  0.04504  0.86593  0.91620  1.0000
  H   H974      1.0  0.35074  0.82392  0.91405  1.0000
  H   H975      1.0  0.08556  0.60872  0.75570  1.0000
  H   H976      1.0  0.21614  0.67068  0.66624  1.0000
  H   H977      1.0  0.30241  0.92522  0.85396  1.0000
  H   H978      1.0  0.18152  0.77112  0.93804  1.0000
  C   C562      1.0  0.07559  0.57711  0.75577  1.0000
  H   H979      1.0  0.20800  0.61482  0.93520  1.0000
  H   H980      1.0  0.30806  0.55767  0.92748  1.0000
  C   C563      1.0  0.24214  0.51026  0.67196  1.0000
  H   H981      1.0  0.23777  0.88611  0.75922  1.0000
  H   H982      1.0  0.02262  0.56951  0.97570  1.0000
  H   H983      1.0  0.06130  0.75631  0.83186  1.0000
  H   H984      1.0  0.00377  0.55489  0.73093  1.0000
  C   C564      1.0  0.47862  0.88412  0.83066  1.0000
  H   H985      1.0  0.01719  0.92788  0.97179  1.0000
  C   C565      1.0  0.05813  0.60503  0.81536  1.0000
  H   H986      1.0  0.05209  0.74538  0.89557  1.0000
  C   C566      1.0  0.45615  0.84674  0.70588  1.0000
  C   C567      1.0  0.18778  0.65697  0.66181  1.0000
  Fe  Fe60      1.0  0.26977  0.93853  0.96404  1.0000
  H   H987      1.0  0.12622  0.55420  0.69424  1.0000
  H   H988      1.0  0.20986  0.85718  0.92798  1.0000
  C   C568      1.0  0.07901  0.89984  0.68500  1.0000
  H   H989      1.0  0.27127  0.55477  0.69770  1.0000
  H   H990      1.0  0.43822  0.59135  0.68344  1.0000
  H   H991      1.0  0.36747  0.51717  0.77322  1.0000
  C   C569      1.0  0.28546  0.57607  0.91678  1.0000
  H   H992      1.0  0.18349  0.65791  0.97354  1.0000
  H   H993      1.0  0.49264  0.90783  0.78843  1.0000
  C   C570      1.0  0.34927  0.52877  0.70165  1.0000
  H   H994      1.0  0.17783  0.51013  0.67105  1.0000
  Fe  Fe61      1.0  0.43028  0.70538  0.65613  1.0000
  H   H995      1.0  0.22430  0.57234  0.90212  1.0000
  H   H996      1.0  0.08654  0.60704  0.64748  1.0000
  C   C571      1.0  0.00180  0.57800  0.74734  1.0000
  C   C572      1.0  0.12409  0.56304  0.71648  1.0000
  S   S126      1.0  0.00637  0.79224  0.77131  1.0000
  H   H997      1.0  0.08950  0.60185  0.80858  1.0000
  H   H998      1.0  0.37750  0.83635  0.65297  1.0000
  Fe  Fe62      1.0  0.06632  0.73630  0.97752  1.0000
  H   H999      1.0  0.02365  0.64763  0.83973  1.0000
  C   C573      1.0  0.07141  0.92982  0.66165  1.0000
  H   H1000     1.0  0.12237  0.74925  0.87957  1.0000
  H   H1001     1.0  0.02427  0.83311  0.86552  1.0000
  H   H1002     1.0  0.46653  0.60250  0.65237  1.0000
  H   H1003     1.0  0.19206  0.84281  0.96175  1.0000
  H   H1004     1.0  0.06405  0.66927  0.82002  1.0000
  H   H1005     1.0  0.48862  0.85255  0.70511  1.0000
  N   N32       1.0  0.46769  0.92290  0.84481  1.0000
  C   C574      1.0  0.02991  0.53411  0.78336  1.0000
  H   H1006     1.0  0.24280  0.52553  0.65162  1.0000
  H   H1007     1.0  0.03100  0.71785  0.86794  1.0000
  C   C575      1.0  0.47667  0.88281  0.79819  1.0000
  Fe  Fe63      1.0  0.49704  0.71055  0.84588  1.0000
  H   H1008     1.0  0.48703  0.63874  0.70205  1.0000
  Fe  Fe64      1.0  0.49986  0.77450  0.89079  1.0000
  H   H1009     1.0  0.23534  0.64578  0.97715  1.0000
  H   H1010     1.0  0.44689  0.84395  0.72799  1.0000
  H   H1011     1.0  0.47108  0.85782  0.93303  1.0000
  H   H1012     1.0  0.43381  0.60482  0.78432  1.0000
  H   H1013     1.0  0.47043  0.64372  0.75012  1.0000
  H   H1014     1.0  0.47494  0.81871  0.79219  1.0000
  H   H1015     1.0  0.06306  0.95834  0.67163  1.0000
  H   H1016     1.0  0.32019  0.79808  0.97167  1.0000
  H   H1017     1.0  0.25265  0.52914  0.89663  1.0000
  C   C576      1.0  0.37600  0.52303  0.75122  1.0000
  C   C577      1.0  0.41726  0.98165  0.84182  1.0000
  S   S127      1.0  0.49711  0.77765  0.84425  1.0000
  H   H1018     1.0  0.28667  0.97807  0.82165  1.0000
  H   H1019     1.0  0.16896  0.54292  0.92418  1.0000
  H   H1020     1.0  0.40023  0.97377  0.86085  1.0000
  C   C578      1.0  0.01172  0.81656  0.88357  1.0000
  N   N33       1.0  0.00189  0.77415  0.87570  1.0000
  C   C579      1.0  0.04470  0.97559  0.93369  1.0000
  C   C580      1.0  0.47913  0.61227  0.75253  1.0000
  H   H1021     1.0  0.27277  0.50575  0.71065  1.0000
  H   H1022     1.0  0.00027  0.79209  0.83249  1.0000
  H   H1023     1.0  0.01730  0.96241  0.92474  1.0000
  H   H1024     1.0  0.43818  0.99907  0.70388  1.0000
  H   H1025     1.0  0.39963  0.50165  0.74522  1.0000
  S   S128      1.0  0.42748  0.77027  0.64523  1.0000
  H   H1026     1.0  0.30641  0.85449  0.65122  1.0000
  C   C581      1.0  0.06790  0.99581  0.91032  1.0000
  H   H1027     1.0  0.49626  0.84589  0.76366  1.0000
  H   H1028     1.0  0.00055  0.53321  0.79412  1.0000
  H   H1029     1.0  0.49729  0.55879  0.70464  1.0000
  H   H1030     1.0  0.18272  0.99984  0.85602  1.0000
  S   S129      1.0  0.00083  0.72505  0.97216  1.0000
  H   H1031     1.0  0.97939  0.00716  0.24535  1.0000
  S   S130      1.0  0.92452  0.28802  0.01685  1.0000
  H   H1032     1.0  0.78046  0.07708  0.09242  1.0000
  H   H1033     1.0  0.71990  0.10166  0.05620  1.0000
  Fe  Fe65      1.0  0.92790  0.22389  0.02979  1.0000
  S   S131      1.0  0.88198  0.20841  0.06357  1.0000
  H   H1034     1.0  0.92449  0.37174  0.09024  1.0000
  C   C582      1.0  0.77927  0.22108  0.27226  1.0000
  Fe  Fe66      1.0  0.94006  0.26706  0.22658  1.0000
  S   S132      1.0  0.94290  0.27856  0.27299  1.0000
  S   S133      1.0  0.88585  0.28313  0.19920  1.0000
  H   H1035     1.0  0.73925  0.27352  0.03468  1.0000
  H   H1036     1.0  0.86895  0.33615  0.25139  1.0000
  Fe  Fe67      1.0  0.95937  0.21404  0.27783  1.0000
  C   C583      1.0  0.89940  0.45051  0.01860  1.0000
  S   S134      1.0  0.95259  0.20128  0.23203  1.0000
  H   H1037     1.0  0.82173  0.43711  0.18445  1.0000
  Fe  Fe68      1.0  0.78842  0.44880  0.08610  1.0000
  S   S135      1.0  0.79193  0.44178  0.03920  1.0000
  S   S136      1.0  0.83548  0.42686  0.11788  1.0000
  H   H1038     1.0  0.79022  0.23191  0.07221  1.0000
  Fe  Fe69      1.0  0.72451  0.44248  0.03872  1.0000
  S   S137      1.0  0.67964  0.39805  0.01881  1.0000
  H   H1039     1.0  0.59364  0.03759  0.15488  1.0000
  S   S138      1.0  0.72153  0.44556  0.08606  1.0000
  H   H1040     1.0  0.91153  0.25249  0.13666  1.0000
  C   C584      1.0  0.74941  0.30681  0.98541  1.0000
  Fe  Fe70      1.0  0.73068  0.42767  0.29270  1.0000
  S   S139      1.0  0.71309  0.37677  0.26283  1.0000
  Fe  Fe71      1.0  0.78803  0.03886  0.16851  1.0000
  S   S140      1.0  0.79378  0.04878  0.21481  1.0000
  S   S141      1.0  0.83619  0.05563  0.13664  1.0000
  H   H1041     1.0  0.58038  0.41751  0.12375  1.0000
  Fe  Fe72      1.0  0.72707  0.05797  0.21519  1.0000
  S   S142      1.0  0.69984  0.11317  0.23642  1.0000
  C   C585      1.0  0.59927  0.23244  0.22615  1.0000
  S   S143      1.0  0.72254  0.05212  0.16830  1.0000
  H   H1042     1.0  0.54815  0.14215  0.24673  1.0000
  Fe  Fe73      1.0  0.54764  0.29533  0.14974  1.0000
  S   S144      1.0  0.54697  0.29707  0.10292  1.0000
  S   S145      1.0  0.57465  0.34959  0.17220  1.0000
  Fe  Fe74      1.0  0.55568  0.23071  0.10354  1.0000
  S   S146      1.0  0.60618  0.20838  0.07522  1.0000
  S   S147      1.0  0.55973  0.22941  0.15064  1.0000
  C   C586      1.0  0.64043  0.10311  0.01750  1.0000
  C   C587      1.0  0.66354  0.13764  0.01866  1.0000
  C   C588      1.0  0.65224  0.16951  0.03621  1.0000
  C   C589      1.0  0.61753  0.16769  0.05256  1.0000
  C   C590      1.0  0.59399  0.13350  0.05095  1.0000
  C   C591      1.0  0.60552  0.10142  0.03367  1.0000
  C   C592      1.0  0.52754  0.44917  0.11279  1.0000
  H   H1043     1.0  0.67052  0.19585  0.03728  1.0000
  H   H1044     1.0  0.56724  0.13156  0.06326  1.0000
  H   H1045     1.0  0.58731  0.07496  0.03291  1.0000
  C   C593      1.0  0.65981  0.12255  0.26000  1.0000
  C   C594      1.0  0.63313  0.09306  0.26851  1.0000
  H   H1046     1.0  0.97567  0.18852  0.14598  1.0000
  C   C595      1.0  0.62294  0.17089  0.28850  1.0000
  C   C596      1.0  0.65426  0.16149  0.27004  1.0000
  H   H1047     1.0  0.63697  0.06288  0.26131  1.0000
  H   H1048     1.0  0.61905  0.20095  0.29588  1.0000
  H   H1049     1.0  0.67412  0.18464  0.26323  1.0000
  C   C597      1.0  0.67399  0.36993  0.23795  1.0000
  C   C598      1.0  0.64554  0.39923  0.23236  1.0000
  C   C599      1.0  0.61550  0.39240  0.21224  1.0000
  C   C600      1.0  0.61312  0.35610  0.19760  1.0000
  C   C601      1.0  0.64133  0.32669  0.20337  1.0000
  C   C602      1.0  0.67160  0.33367  0.22327  1.0000
  H   H1050     1.0  0.64693  0.42730  0.24334  1.0000
  H   H1051     1.0  0.59405  0.41553  0.20793  1.0000
  H   H1052     1.0  0.64043  0.29889  0.19204  1.0000
  H   H1053     1.0  0.69362  0.31090  0.22710  1.0000
  C   C603      1.0  0.65775  0.29466  0.30192  1.0000
  H   H1054     1.0  0.93089  0.21940  0.11116  1.0000
  H   H1055     1.0  0.54410  0.34272  0.22603  1.0000
  H   H1056     1.0  0.68872  0.25813  0.00177  1.0000
  H   H1057     1.0  0.61348  0.34507  0.00898  1.0000
  C   C604      1.0  0.87159  0.32403  0.17745  1.0000
  C   C605      1.0  0.83697  0.32096  0.16098  1.0000
  C   C606      1.0  0.82518  0.35200  0.14283  1.0000
  C   C607      1.0  0.84800  0.38664  0.14075  1.0000
  C   C608      1.0  0.88236  0.38987  0.15748  1.0000
  C   C609      1.0  0.89390  0.35901  0.17579  1.0000
  H   H1058     1.0  0.81931  0.29416  0.16203  1.0000
  H   H1059     1.0  0.79869  0.34887  0.13022  1.0000
  H   H1060     1.0  0.90018  0.41654  0.15630  1.0000
  H   H1061     1.0  0.92000  0.36233  0.18869  1.0000
  C   C610      1.0  0.87122  0.16592  0.08451  1.0000
  C   C611      1.0  0.89147  0.12985  0.08156  1.0000
  C   C612      1.0  0.88096  0.09684  0.09820  1.0000
  C   C613      1.0  0.84986  0.09922  0.11778  1.0000
  C   C614      1.0  0.82995  0.13542  0.12098  1.0000
  C   C615      1.0  0.84090  0.16857  0.10468  1.0000
  H   H1062     1.0  0.91502  0.12727  0.06634  1.0000
  H   H1063     1.0  0.89667  0.06904  0.09557  1.0000
  H   H1064     1.0  0.80628  0.13799  0.13610  1.0000
  H   H1065     1.0  0.82586  0.19658  0.10789  1.0000
  C   C616      1.0  0.80898  0.08903  0.04097  1.0000
  H   H1066     1.0  0.55397  0.04656  0.17802  1.0000
  H   H1067     1.0  0.73984  0.19503  0.02567  1.0000
  C   C617      1.0  0.77794  0.05569  0.03582  1.0000
  C   C618      1.0  0.54985  0.41975  0.05444  1.0000
  S   S148      1.0  0.65373  0.06094  0.99680  1.0000
  C   C619      1.0  0.80951  0.45698  0.20095  1.0000
  C   C620      1.0  0.82248  0.10805  0.01370  1.0000
  H   H1068     1.0  0.53032  0.14570  0.98404  1.0000
  H   H1069     1.0  0.79670  0.12080  0.00239  1.0000
  H   H1070     1.0  0.63251  0.44678  0.06318  1.0000
  C   C621      1.0  0.52418  0.13733  0.23118  1.0000
  C   C622      1.0  0.72140  0.25754  0.28924  1.0000
  H   H1071     1.0  0.74978  0.40737  0.18470  1.0000
  H   H1072     1.0  0.76990  0.18080  0.98266  1.0000
  H   H1073     1.0  0.51626  0.16629  0.22175  1.0000
  C   C623      1.0  0.56061  0.25606  0.22384  1.0000
  C   C624      1.0  0.73047  0.43377  0.18141  1.0000
  N   N34       1.0  0.58896  0.09893  0.16831  1.0000
  C   C625      1.0  0.58521  0.05494  0.17384  1.0000
  C   C626      1.0  0.63264  0.10797  0.16466  1.0000
  C   C627      1.0  0.57310  0.12437  0.19189  1.0000
  H   H1074     1.0  0.52540  0.08181  0.09454  1.0000
  C   C628      1.0  0.61101  0.03887  0.19817  1.0000
  C   C629      1.0  0.64309  0.15070  0.15494  1.0000
  C   C630      1.0  0.67994  0.08216  0.08868  1.0000
  C   C631      1.0  0.68780  0.15835  0.15661  1.0000
  N   N35       1.0  0.78352  0.48872  0.18800  1.0000
  H   H1075     1.0  0.64601  0.08698  0.14942  1.0000
  H   H1076     1.0  0.64897  0.10319  0.18460  1.0000
  H   H1077     1.0  0.59689  0.13052  0.20756  1.0000
  H   H1078     1.0  0.56424  0.15412  0.18390  1.0000
  C   C632      1.0  0.54664  0.34696  0.28949  1.0000
  H   H1079     1.0  0.58267  0.48456  0.02452  1.0000
  H   H1080     1.0  0.61193  0.06021  0.21572  1.0000
  H   H1081     1.0  0.62797  0.17319  0.16809  1.0000
  H   H1082     1.0  0.63418  0.15526  0.13285  1.0000
  H   H1083     1.0  0.90755  0.31919  0.12345  1.0000
  H   H1084     1.0  0.87876  0.43026  0.05906  1.0000
  H   H1085     1.0  0.87922  0.11116  0.21675  1.0000
  H   H1086     1.0  0.69433  0.18894  0.14928  1.0000
  H   H1087     1.0  0.69853  0.15552  0.17846  1.0000
  H   H1088     1.0  0.70422  0.13706  0.14317  1.0000
  H   H1089     1.0  0.83572  0.07692  0.05138  1.0000
  H   H1090     1.0  0.89233  0.20118  0.17026  1.0000
  H   H1091     1.0  0.89000  0.44906  0.24712  1.0000
  H   H1092     1.0  0.66071  0.10897  0.08865  1.0000
  C   C633      1.0  0.72153  0.09341  0.07847  1.0000
  H   H1093     1.0  0.76305  0.30818  0.26418  1.0000
  C   C634      1.0  0.53751  0.10777  0.20883  1.0000
  H   H1094     1.0  0.78298  0.31692  0.29776  1.0000
  H   H1095     1.0  0.55791  0.36496  0.27183  1.0000
  H   H1096     1.0  0.89619  0.12856  0.25030  1.0000
  S   S149      1.0  0.71328  0.49192  0.28906  1.0000
  H   H1097     1.0  0.68115  0.07039  0.11022  1.0000
  H   H1098     1.0  0.95282  0.29731  0.15978  1.0000
  H   H1099     1.0  0.99628  0.01349  0.29488  1.0000
  C   C635      1.0  0.60124  0.10264  0.28645  1.0000
  C   C636      1.0  0.92863  0.48099  0.00605  1.0000
  H   H1100     1.0  0.87594  0.41474  0.21990  1.0000
  H   H1101     1.0  0.65326  0.39806  0.10248  1.0000
  S   S150      1.0  0.92505  0.20351  0.98527  1.0000
  H   H1102     1.0  0.73013  0.12102  0.08974  1.0000
  C   C637      1.0  0.63422  0.37202  0.09815  1.0000
  C   C638      1.0  0.76361  0.22152  0.24176  1.0000
  C   C639      1.0  0.78688  0.19270  0.22327  1.0000
  H   H1103     1.0  0.73201  0.21213  0.24125  1.0000
  H   H1104     1.0  0.76543  0.25162  0.23244  1.0000
  H   H1105     1.0  0.83747  0.08576  0.00022  1.0000
  H   H1106     1.0  0.81848  0.20201  0.22172  1.0000
  H   H1107     1.0  0.78531  0.16204  0.23179  1.0000
  H   H1108     1.0  0.77394  0.19248  0.20195  1.0000
  H   H1109     1.0  0.64079  0.26654  0.30355  1.0000
  N   N36       1.0  0.96979  0.26873  0.12093  1.0000
  H   H1110     1.0  0.74384  0.04449  0.10356  1.0000
  H   H1111     1.0  0.61884  0.38158  0.05459  1.0000
  H   H1112     1.0  0.79071  0.27070  0.02638  1.0000
  C   C640      1.0  0.82491  0.29472  0.26705  1.0000
  H   H1113     1.0  0.97328  0.31448  0.08896  1.0000
  C   C641      1.0  0.52387  0.09828  0.13860  1.0000
  H   H1114     1.0  0.81343  0.38892  0.98592  1.0000
  C   C642      1.0  0.90461  0.34724  0.08346  1.0000
  C   C643      1.0  0.83917  0.33702  0.26132  1.0000
  H   H1115     1.0  0.71117  0.26518  0.26781  1.0000
  C   C644      1.0  0.95273  0.29112  0.09638  1.0000
  H   H1116     1.0  0.90626  0.16502  0.14400  1.0000
  H   H1117     1.0  0.55151  0.25541  0.26883  1.0000
  C   C645      1.0  0.86468  0.43760  0.23460  1.0000
  C   C646      1.0  0.84518  0.47177  0.21871  1.0000
  H   H1118     1.0  0.70908  0.21351  0.98892  1.0000
  C   C647      1.0  0.76480  0.21408  0.03233  1.0000
  C   C648      1.0  0.60323  0.38090  0.07495  1.0000
  H   H1119     1.0  0.84727  0.28003  0.28039  1.0000
  C   C649      1.0  0.76130  0.25729  0.02153  1.0000
  H   H1120     1.0  0.79138  0.03468  0.02052  1.0000
  C   C650      1.0  0.91708  0.18282  0.16196  1.0000
  H   H1121     1.0  0.66589  0.05971  0.07495  1.0000
  H   H1122     1.0  0.71666  0.31712  0.30871  1.0000
  H   H1123     1.0  0.65479  0.30669  0.28047  1.0000
  C   C651      1.0  0.93941  0.23794  0.12945  1.0000
  H   H1124     1.0  0.67558  0.44555  0.15851  1.0000
  H   H1125     1.0  0.53730  0.23457  0.21781  1.0000
  Fe  Fe75      1.0  0.99133  0.28773  0.01528  1.0000
  H   H1126     1.0  0.58441  0.09315  0.12355  1.0000
  H   H1127     1.0  0.81222  0.24708  0.98244  1.0000
  C   C652      1.0  0.90226  0.10722  0.23314  1.0000
  H   H1128     1.0  0.70544  0.02849  0.04434  1.0000
  H   H1129     1.0  0.98304  0.42012  0.00108  1.0000
  H   H1130     1.0  0.64348  0.31016  0.08593  1.0000
  H   H1131     1.0  0.84143  0.35425  0.28104  1.0000
  H   H1132     1.0  0.91019  0.34082  0.06118  1.0000
  H   H1133     1.0  0.79156  0.43758  0.21489  1.0000
  H   H1134     1.0  0.79645  0.11309  0.05414  1.0000
  C   C653      1.0  0.56862  0.10845  0.14099  1.0000
  H   H1135     1.0  0.57051  0.14077  0.13638  1.0000
  H   H1136     1.0  0.59500  0.20683  0.24034  1.0000
  H   H1137     1.0  0.81210  0.21877  0.27141  1.0000
  H   H1138     1.0  0.94943  0.27086  0.07813  1.0000
  H   H1139     1.0  0.87078  0.05870  0.25155  1.0000
  H   H1140     1.0  0.54348  0.38677  0.10914  1.0000
  H   H1141     1.0  0.77018  0.18217  0.07137  1.0000
  H   H1142     1.0  0.81437  0.31627  0.98429  1.0000
  H   H1143     1.0  0.81451  0.01265  0.29221  1.0000
  H   H1144     1.0  0.84311  0.42362  0.24899  1.0000
  H   H1145     1.0  0.50702  0.29770  0.29709  1.0000
  S   S151      1.0  0.79603  0.44178  0.29845  1.0000
  C   C654      1.0  0.78283  0.29496  0.28035  1.0000
  C   C655      1.0  0.70143  0.28792  0.30930  1.0000
  C   C656      1.0  0.66124  0.33742  0.08992  1.0000
  N   N37       1.0  0.57874  0.41818  0.07859  1.0000
  H   H1146     1.0  0.68249  0.33121  0.10712  1.0000
  C   C657      1.0  0.71320  0.03653  0.29913  1.0000
  H   H1147     1.0  0.88768  0.28835  0.09650  1.0000
  H   H1148     1.0  0.93003  0.44521  0.05865  1.0000
  H   H1149     1.0  0.58425  0.35435  0.07365  1.0000
  H   H1150     1.0  0.92686  0.16188  0.17845  1.0000
  H   H1151     1.0  0.96424  0.35637  0.13298  1.0000
  C   C658      1.0  0.75495  0.46817  0.16841  1.0000
  H   H1152     1.0  0.86314  0.16233  0.29115  1.0000
  H   H1153     1.0  0.68048  0.39562  0.17169  1.0000
  H   H1154     1.0  0.67851  0.34492  0.07092  1.0000
  H   H1155     1.0  0.87338  0.35735  0.08563  1.0000
  H   H1156     1.0  0.53345  0.44818  0.05395  1.0000
  C   C659      1.0  0.95192  0.20901  0.15309  1.0000
  H   H1157     1.0  0.81835  0.35231  0.24686  1.0000
  H   H1158     1.0  0.57131  0.32765  0.29680  1.0000
  H   H1159     1.0  0.95759  0.47793  0.01711  1.0000
  H   H1160     1.0  0.76938  0.19243  0.28166  1.0000
  C   C660      1.0  0.65951  0.37706  0.98723  1.0000
  H   H1161     1.0  0.60783  0.22080  0.20536  1.0000
  N   N38       1.0  0.76632  0.25563  0.29023  1.0000
  H   H1162     1.0  0.57728  0.29737  0.25527  1.0000
  H   H1163     1.0  0.75229  0.06889  0.02446  1.0000
  C   C661      1.0  0.91134  0.31033  0.10142  1.0000
  C   C662      1.0  0.97889  0.29529  0.14559  1.0000
  H   H1164     1.0  0.50461  0.31743  0.20925  1.0000
  H   H1165     1.0  0.70849  0.22785  0.29404  1.0000
  C   C663      1.0  0.76557  0.21316  0.06415  1.0000
  H   H1166     1.0  0.87168  0.05232  0.30598  1.0000
  C   C664      1.0  0.78742  0.33085  0.99271  1.0000
  H   H1167     1.0  0.62194  0.45695  0.09821  1.0000
  H   H1168     1.0  0.98385  0.00736  0.01984  1.0000
  C   C665      1.0  0.51338  0.33181  0.22926  1.0000
  H   H1169     1.0  0.56398  0.27781  0.20668  1.0000
  H   H1170     1.0  0.58064  0.07964  0.29263  1.0000
  H   H1171     1.0  0.76028  0.38953  0.99034  1.0000
  H   H1172     1.0  0.82458  0.27885  0.24677  1.0000
  H   H1173     1.0  0.86878  0.45776  0.01189  1.0000
  C   C666      1.0  0.89996  0.45233  0.05048  1.0000
  H   H1174     1.0  0.62390  0.25130  0.23409  1.0000
  H   H1175     1.0  0.86853  0.48468  0.20513  1.0000
  C   C667      1.0  0.59599  0.14158  0.29667  1.0000
  H   H1176     1.0  0.84386  0.13238  0.01827  1.0000
  H   H1177     1.0  0.53088  0.35718  0.04914  1.0000
  H   H1178     1.0  0.79307  0.20074  0.02484  1.0000
  H   H1179     1.0  0.57899  0.16612  0.99052  1.0000
  H   H1180     1.0  0.80331  0.12821  0.30996  1.0000
  C   C668      1.0  0.60721  0.45304  0.07756  1.0000
  C   C669      1.0  0.62637  0.35143  0.98885  1.0000
  C   C670      1.0  0.69675  0.42075  0.16211  1.0000
  C   C671      1.0  0.86445  0.14784  0.31124  1.0000
  C   C672      1.0  0.75362  0.06128  0.08488  1.0000
  N   N39       1.0  0.51303  0.30167  0.25249  1.0000
  H   H1181     1.0  0.93171  0.11386  0.22384  1.0000
  H   H1182     1.0  0.61903  0.36352  0.11778  1.0000
  H   H1183     1.0  0.70890  0.41036  0.14187  1.0000
  H   H1184     1.0  0.56651  0.41841  0.03436  1.0000
  N   N40       1.0  0.93630  0.01628  0.27836  1.0000
  C   C673      1.0  0.99086  0.33899  0.13911  1.0000
  H   H1185     1.0  0.64191  0.03419  0.19082  1.0000
  H   H1186     1.0  0.51710  0.06744  0.14495  1.0000
  H   H1187     1.0  0.77142  0.45522  0.15045  1.0000
  H   H1188     1.0  0.96267  0.22560  0.17161  1.0000
  H   H1189     1.0  0.54583  0.08009  0.21991  1.0000
  H   H1190     1.0  0.71777  0.44232  0.20189  1.0000
  H   H1191     1.0  0.73695  0.22410  0.07278  1.0000
  C   C674      1.0  0.55821  0.41613  0.10650  1.0000
  C   C675      1.0  0.55116  0.27779  0.25166  1.0000
  H   H1192     1.0  0.54285  0.47808  0.11542  1.0000
  H   H1193     1.0  0.72429  0.32073  0.99704  1.0000
  H   H1194     1.0  0.69039  0.13953  0.00638  1.0000
  C   C676      1.0  0.51760  0.38671  0.05345  1.0000
  C   C677      1.0  0.51051  0.32091  0.28082  1.0000
  N   N41       1.0  0.76448  0.03339  0.06145  1.0000
  H   H1195     1.0  0.55859  0.49888  0.07412  1.0000
  H   H1196     1.0  0.52746  0.44109  0.15777  1.0000
  C   C678      1.0  0.90133  0.06455  0.24390  1.0000
  N   N42       1.0  0.75103  0.26260  0.99109  1.0000
  Fe  Fe76      1.0  0.99212  0.20765  0.98572  1.0000
  C   C679      1.0  0.70992  0.24611  0.98598  1.0000
  H   H1197     1.0  0.83560  0.49450  0.23406  1.0000
  H   H1198     1.0  0.79072  0.33386  0.01567  1.0000
  C   C680      1.0  0.93195  0.05838  0.26779  1.0000
  C   C681      1.0  0.59039  0.49463  0.06948  1.0000
  S   S152      1.0  0.99502  0.22456  0.03135  1.0000
  H   H1199     1.0  0.90679  0.41960  0.01254  1.0000
  C   C682      1.0  0.50596  0.44100  0.14017  1.0000
  H   H1200     1.0  0.95868  0.06215  0.99318  1.0000
  H   H1201     1.0  0.90725  0.04491  0.22582  1.0000
  H   H1202     1.0  0.89091  0.48232  0.05788  1.0000
  C   C683      1.0  0.99095  0.06146  0.99796  1.0000
  H   H1203     1.0  0.50480  0.45152  0.09612  1.0000
  C   C684      1.0  0.79838  0.00730  0.07102  1.0000
  C   C685      1.0  0.78545  0.37298  0.98093  1.0000
  H   H1204     1.0  0.97948  0.07639  0.04158  1.0000
  H   H1205     1.0  0.82338  0.02586  0.07882  1.0000
  H   H1206     1.0  0.50636  0.11916  0.15154  1.0000
  H   H1207     1.0  0.51171  0.10112  0.19530  1.0000
  H   H1208     1.0  0.73406  0.48943  0.15859  1.0000
  H   H1209     1.0  0.98760  0.11846  0.01904  1.0000
  H   H1210     1.0  0.50147  0.38945  0.24944  1.0000
  H   H1211     1.0  0.98849  0.35823  0.18258  1.0000
  H   H1212     1.0  0.70089  0.04045  0.27787  1.0000
  H   H1213     1.0  0.51405  0.13357  0.10107  1.0000
  H   H1214     1.0  0.92278  0.07919  0.28453  1.0000
  C   C686      1.0  0.50937  0.10272  0.10852  1.0000
  H   H1215     1.0  0.51628  0.40373  0.20017  1.0000
  H   H1216     1.0  0.56592  0.00299  0.21887  1.0000
  H   H1217     1.0  0.51294  0.39659  0.30678  1.0000
  C   C687      1.0  0.99723  0.08758  0.02372  1.0000
  H   H1218     1.0  0.96137  0.06973  0.26068  1.0000
  C   C688      1.0  0.72837  0.00917  0.05414  1.0000
  H   H1219     1.0  0.73821  0.05776  0.30182  1.0000
  H   H1220     1.0  0.50083  0.38505  0.07329  1.0000
  H   H1221     1.0  0.75805  0.49242  0.22967  1.0000
  C   C689      1.0  0.96508  0.01468  0.30263  1.0000
  H   H1222     1.0  0.99884  0.22508  0.09488  1.0000
  H   H1223     1.0  0.82706  0.49824  0.15556  1.0000
  H   H1224     1.0  0.50249  0.39570  0.00959  1.0000
  H   H1225     1.0  0.50045  0.28875  0.98906  1.0000
  C   C690      1.0  0.83109  0.00434  0.31137  1.0000
  C   C691      1.0  0.87352  0.01988  0.30956  1.0000
  S   S153      1.0  0.88233  0.27827  0.45515  1.0000
  H   H1226     1.0  0.99773  0.11871  0.63863  1.0000
  H   H1227     1.0  0.91939  0.12525  0.62367  1.0000
  H   H1228     1.0  0.97362  0.31115  0.34392  1.0000
  Fe  Fe77      1.0  0.78382  0.44290  0.34478  1.0000
  S   S154      1.0  0.83154  0.42507  0.37714  1.0000
  S   S155      1.0  0.71967  0.42475  0.33927  1.0000
  Fe  Fe78      1.0  0.77199  0.04791  0.39904  1.0000
  S   S156      1.0  0.78122  0.05918  0.44510  1.0000
  S   S157      1.0  0.78719  0.08721  0.36120  1.0000
  H   H1229     1.0  0.60490  0.44118  0.46395  1.0000
  Fe  Fe79      1.0  0.71539  0.04851  0.45045  1.0000
  H   H1230     1.0  0.98719  0.06551  0.36462  1.0000
  S   S158      1.0  0.70577  0.04068  0.40414  1.0000
  Fe  Fe80      1.0  0.55706  0.26827  0.39256  1.0000
  S   S159      1.0  0.54778  0.27042  0.34569  1.0000
  S   S160      1.0  0.61185  0.30086  0.41034  1.0000
  Fe  Fe81      1.0  0.53820  0.20420  0.34751  1.0000
  C   C692      1.0  0.78892  0.04421  0.52009  1.0000
  S   S161      1.0  0.55143  0.20132  0.39354  1.0000
  H   H1231     1.0  0.56298  0.39193  0.31992  1.0000
  H   H1232     1.0  0.90023  0.47356  0.59185  1.0000
  C   C693      1.0  0.66654  0.37022  0.46935  1.0000
  C   C694      1.0  0.65718  0.34928  0.44461  1.0000
  C   C695      1.0  0.62034  0.32996  0.44111  1.0000
  H   H1233     1.0  0.69526  0.38423  0.47167  1.0000
  H   H1234     1.0  0.67870  0.34812  0.42802  1.0000
  C   C696      1.0  0.83153  0.10940  0.34816  1.0000
  C   C697      1.0  0.86713  0.10947  0.36323  1.0000
  C   C698      1.0  0.90092  0.12906  0.35252  1.0000
  C   C699      1.0  0.89971  0.14892  0.32672  1.0000
  H   H1235     1.0  0.51708  0.04306  0.59284  1.0000
  C   C700      1.0  0.83054  0.12844  0.32199  1.0000
  H   H1236     1.0  0.86856  0.09482  0.38328  1.0000
  H   H1237     1.0  0.92826  0.12893  0.36442  1.0000
  S   S162      1.0  0.94302  0.17476  0.31534  1.0000
  C   C701      1.0  0.67605  0.00732  0.58253  1.0000
  C   C702      1.0  0.86913  0.31964  0.43367  1.0000
  C   C703      1.0  0.83724  0.31559  0.41480  1.0000
  C   C704      1.0  0.82562  0.34731  0.39725  1.0000
  C   C705      1.0  0.84525  0.38383  0.39862  1.0000
  C   C706      1.0  0.87711  0.38791  0.41754  1.0000
  C   C707      1.0  0.88898  0.35611  0.43494  1.0000
  H   H1238     1.0  0.82147  0.28768  0.41380  1.0000
  H   H1239     1.0  0.80167  0.34379  0.38250  1.0000
  H   H1240     1.0  0.89259  0.41602  0.41887  1.0000
  H   H1241     1.0  0.91317  0.35999  0.44956  1.0000
  Fe  Fe82      1.0  0.93395  0.26366  0.48538  1.0000
  S   S163      1.0  0.93676  0.27749  0.53166  1.0000
  C   C708      1.0  0.65489  0.00130  0.51860  1.0000
  C   C709      1.0  0.82283  0.24457  0.32663  1.0000
  Fe  Fe83      1.0  0.95023  0.21237  0.53779  1.0000
  S   S164      1.0  0.93264  0.17649  0.57677  1.0000
  H   H1242     1.0  0.93768  0.15674  0.43381  1.0000
  S   S165      1.0  0.94342  0.19761  0.49222  1.0000
  Fe  Fe84      1.0  0.76688  0.43000  0.59136  1.0000
  S   S166      1.0  0.76672  0.42651  0.54409  1.0000
  S   S167      1.0  0.81632  0.39541  0.61450  1.0000
  C   C710      1.0  0.94256  0.23771  0.38819  1.0000
  Fe  Fe85      1.0  0.69986  0.43050  0.54623  1.0000
  S   S168      1.0  0.65023  0.39495  0.52406  1.0000
  H   H1243     1.0  0.85927  0.28406  0.60749  1.0000
  S   S169      1.0  0.69976  0.42942  0.59361  1.0000
  C   C711      1.0  0.87361  0.48829  0.63170  1.0000
  S   S170      1.0  0.66704  0.08754  0.47140  1.0000
  S   S171      1.0  0.57072  0.29482  0.59843  1.0000
  Fe  Fe86      1.0  0.57306  0.22736  0.59799  1.0000
  S   S172      1.0  0.62673  0.19224  0.58046  1.0000
  C   C712      1.0  0.65627  0.11449  0.50282  1.0000
  C   C713      1.0  0.68544  0.12442  0.52245  1.0000
  C   C714      1.0  0.67566  0.14770  0.54609  1.0000
  C   C715      1.0  0.63671  0.16173  0.55053  1.0000
  C   C716      1.0  0.60740  0.15120  0.53116  1.0000
  C   C717      1.0  0.61713  0.12780  0.50757  1.0000
  H   H1244     1.0  0.71566  0.11462  0.51925  1.0000
  H   H1245     1.0  0.69862  0.15521  0.56093  1.0000
  H   H1246     1.0  0.57720  0.16106  0.53429  1.0000
  H   H1247     1.0  0.59412  0.12026  0.49270  1.0000
  C   C718      1.0  0.63896  0.37239  0.49110  1.0000
  C   C719      1.0  0.59219  0.33345  0.46241  1.0000
  C   C720      1.0  0.60139  0.35471  0.48706  1.0000
  H   H1248     1.0  0.56364  0.31909  0.46016  1.0000
  H   H1249     1.0  0.57949  0.35634  0.50344  1.0000
  H   H1250     1.0  0.68405  0.46522  0.42965  1.0000
  H   H1251     1.0  0.74621  0.03616  0.56839  1.0000
  C   C721      1.0  0.89121  0.14628  0.58605  1.0000
  C   C722      1.0  0.85659  0.14456  0.56992  1.0000
  C   C723      1.0  0.82406  0.12127  0.57872  1.0000
  C   C724      1.0  0.82563  0.09917  0.60361  1.0000
  C   C725      1.0  0.86047  0.10042  0.61957  1.0000
  C   C726      1.0  0.89285  0.12410  0.61095  1.0000
  H   H1252     1.0  0.85487  0.16132  0.55073  1.0000
  H   H1253     1.0  0.79736  0.12046  0.56622  1.0000
  H   H1254     1.0  0.71266  0.13776  0.60809  1.0000
  H   H1255     1.0  0.56018  0.38593  0.54618  1.0000
  H   H1256     1.0  0.71543  0.04619  0.53942  1.0000
  C   C727      1.0  0.72179  0.26320  0.41407  1.0000
  H   H1257     1.0  0.80302  0.23853  0.61658  1.0000
  H   H1258     1.0  0.67460  0.46625  0.46624  1.0000
  H   H1259     1.0  0.88785  0.01413  0.33004  1.0000
  H   H1260     1.0  0.75457  0.29394  0.38143  1.0000
  H   H1261     1.0  0.74796  0.25842  0.42774  1.0000
  H   H1262     1.0  0.93552  0.47797  0.62008  1.0000
  H   H1263     1.0  0.69556  0.27022  0.42696  1.0000
  C   C728      1.0  0.68021  0.15507  0.36355  1.0000
  H   H1264     1.0  0.60256  0.04659  0.59126  1.0000
  H   H1265     1.0  0.73038  0.14985  0.44184  1.0000
  N   N43       1.0  0.71841  0.28693  0.54068  1.0000
  C   C729      1.0  0.72998  0.30911  0.51464  1.0000
  C   C730      1.0  0.67366  0.28333  0.54234  1.0000
  C   C731      1.0  0.73134  0.31190  0.56538  1.0000
  C   C732      1.0  0.73859  0.24688  0.54302  1.0000
  C   C733      1.0  0.74190  0.22107  0.51622  1.0000
  C   C734      1.0  0.77500  0.31807  0.51143  1.0000
  C   C735      1.0  0.71589  0.29793  0.59429  1.0000
  C   C736      1.0  0.65072  0.26983  0.51599  1.0000
  C   C737      1.0  0.60599  0.26879  0.52175  1.0000
  C   C738      1.0  0.77073  0.18655  0.52075  1.0000
  C   C739      1.0  0.78427  0.33466  0.48249  1.0000
  C   C740      1.0  0.73533  0.32132  0.61789  1.0000
  H   H1266     1.0  0.71415  0.33813  0.51393  1.0000
  H   H1267     1.0  0.72011  0.29311  0.49563  1.0000
  H   H1268     1.0  0.66510  0.26251  0.55930  1.0000
  H   H1269     1.0  0.66060  0.31272  0.54811  1.0000
  H   H1270     1.0  0.72138  0.34332  0.56266  1.0000
  H   H1271     1.0  0.76434  0.31325  0.56685  1.0000
  H   H1272     1.0  0.76946  0.25066  0.55108  1.0000
  H   H1273     1.0  0.72342  0.22819  0.55891  1.0000
  H   H1274     1.0  0.75312  0.23775  0.49799  1.0000
  H   H1275     1.0  0.71294  0.20786  0.51076  1.0000
  H   H1276     1.0  0.78459  0.34067  0.52690  1.0000
  H   H1277     1.0  0.79332  0.29103  0.51455  1.0000
  H   H1278     1.0  0.72213  0.26596  0.59779  1.0000
  H   H1279     1.0  0.68333  0.30280  0.59596  1.0000
  H   H1280     1.0  0.65547  0.29052  0.49840  1.0000
  H   H1281     1.0  0.65947  0.23975  0.50945  1.0000
  H   H1282     1.0  0.59871  0.24423  0.53624  1.0000
  H   H1283     1.0  0.59569  0.29716  0.53114  1.0000
  H   H1284     1.0  0.58942  0.26415  0.50200  1.0000
  H   H1285     1.0  0.80172  0.19769  0.52235  1.0000
  H   H1286     1.0  0.76324  0.17007  0.54005  1.0000
  H   H1287     1.0  0.76889  0.16555  0.50294  1.0000
  H   H1288     1.0  0.76722  0.36238  0.47863  1.0000
  H   H1289     1.0  0.81644  0.34175  0.48112  1.0000
  H   H1290     1.0  0.77712  0.31249  0.46605  1.0000
  H   H1291     1.0  0.76748  0.31417  0.61905  1.0000
  H   H1292     1.0  0.73182  0.35374  0.61462  1.0000
  H   H1293     1.0  0.69017  0.00476  0.60352  1.0000
  S   S173      1.0  0.78265  0.07176  0.61385  1.0000
  H   H1294     1.0  0.65550  0.15261  0.42088  1.0000
  C   C741      1.0  0.90538  0.46733  0.61431  1.0000
  H   H1295     1.0  0.70220  0.27668  0.33106  1.0000
  H   H1296     1.0  0.87279  0.23249  0.60419  1.0000
  H   H1297     1.0  0.93035  0.22045  0.37027  1.0000
  H   H1298     1.0  0.93459  0.06035  0.32867  1.0000
  H   H1299     1.0  0.94297  0.31320  0.62387  1.0000
  C   C742      1.0  0.60464  0.45211  0.44211  1.0000
  C   C743      1.0  0.71183  0.15540  0.38717  1.0000
  C   C744      1.0  0.61386  0.19980  0.45760  1.0000
  H   H1300     1.0  0.67024  0.22886  0.45481  1.0000
  C   C745      1.0  0.51954  0.48397  0.62031  1.0000
  H   H1301     1.0  0.57681  0.43585  0.53800  1.0000
  H   H1302     1.0  0.97622  0.37362  0.42315  1.0000
  H   H1303     1.0  0.65018  0.14861  0.37193  1.0000
  S   S174      1.0  0.55416  0.15227  0.31822  1.0000
  H   H1304     1.0  0.59952  0.17119  0.45188  1.0000
  H   H1305     1.0  0.70324  0.30909  0.38473  1.0000
  H   H1306     1.0  0.80291  0.05988  0.53796  1.0000
  H   H1307     1.0  0.53132  0.21475  0.52590  1.0000
  H   H1308     1.0  0.91671  0.25247  0.39832  1.0000
  H   H1309     1.0  0.69055  0.07061  0.58725  1.0000
  H   H1310     1.0  0.60957  0.20445  0.48026  1.0000
  H   H1311     1.0  0.53058  0.41746  0.52402  1.0000
  H   H1312     1.0  0.94495  0.26843  0.33707  1.0000
  H   H1313     1.0  0.82068  0.49907  0.45209  1.0000
  H   H1314     1.0  0.97376  0.22091  0.42729  1.0000
  H   H1315     1.0  0.74115  0.15791  0.37664  1.0000
  H   H1316     1.0  0.92077  0.33578  0.37799  1.0000
  H   H1317     1.0  0.96970  0.24594  0.62171  1.0000
  H   H1318     1.0  0.87256  0.35402  0.34138  1.0000
  H   H1319     1.0  0.64470  0.31656  0.31665  1.0000
  C   C746      1.0  0.82978  0.22797  0.35588  1.0000
  H   H1320     1.0  0.99669  0.34880  0.37683  1.0000
  C   C747      1.0  0.56590  0.43835  0.64431  1.0000
  H   H1321     1.0  0.73916  0.22488  0.38030  1.0000
  H   H1322     1.0  0.50000  0.38289  0.45661  1.0000
  C   C748      1.0  0.55050  0.41706  0.54250  1.0000
  H   H1323     1.0  0.96722  0.01602  0.36214  1.0000
  H   H1324     1.0  0.76714  0.27134  0.33407  1.0000
  Fe  Fe87      1.0  0.50493  0.28741  0.59101  1.0000
  C   C749      1.0  0.90013  0.33767  0.33584  1.0000
  C   C750      1.0  0.91485  0.31411  0.36107  1.0000
  H   H1325     1.0  0.89038  0.36070  0.63129  1.0000
  H   H1326     1.0  0.78910  0.20401  0.40979  1.0000
  H   H1327     1.0  0.72107  0.31368  0.63802  1.0000
  C   C751      1.0  0.65822  0.19892  0.45090  1.0000
  H   H1328     1.0  0.71798  0.13009  0.33095  1.0000
  H   H1329     1.0  0.96646  0.30516  0.59071  1.0000
  H   H1330     1.0  0.89046  0.29417  0.36766  1.0000
  C   C752      1.0  0.92512  0.18116  0.42097  1.0000
  H   H1331     1.0  0.61606  0.00070  0.48242  1.0000
  N   N44       1.0  0.97206  0.26823  0.37790  1.0000
  H   H1332     1.0  0.68767  0.23492  0.38190  1.0000
  H   H1333     1.0  0.56650  0.39935  0.59597  1.0000
  C   C753      1.0  0.97189  0.30820  0.61348  1.0000
  S   S175      1.0  0.50802  0.22019  0.58727  1.0000
  H   H1334     1.0  0.67914  0.18395  0.35246  1.0000
  H   H1335     1.0  0.81623  0.19804  0.35805  1.0000
  H   H1336     1.0  0.73962  0.32490  0.41014  1.0000
  C   C754      1.0  0.76517  0.00840  0.53038  1.0000
  H   H1337     1.0  0.52824  0.21383  0.48842  1.0000
  H   H1338     1.0  0.71162  0.12552  0.39711  1.0000
  H   H1339     1.0  0.63543  0.05459  0.62066  1.0000
  C   C755      1.0  0.55450  0.43021  0.59449  1.0000
  C   C756      1.0  0.73029  0.29996  0.39642  1.0000
  H   H1340     1.0  0.90702  0.16801  0.40399  1.0000
  C   C757      1.0  0.73716  0.17898  0.43179  1.0000
  S   S176      1.0  0.69963  0.49737  0.54400  1.0000
  N   N45       1.0  0.53480  0.44172  0.62161  1.0000
  H   H1341     1.0  0.89349  0.31752  0.31812  1.0000
  H   H1342     1.0  0.68724  0.18009  0.62329  1.0000
  H   H1343     1.0  0.80107  0.45762  0.47175  1.0000
  H   H1344     1.0  0.81297  0.03421  0.50594  1.0000
  C   C758      1.0  0.76135  0.48003  0.43929  1.0000
  H   H1345     1.0  0.98098  0.07568  0.31436  1.0000
  C   C759      1.0  0.62793  0.49094  0.43987  1.0000
  C   C760      1.0  0.53612  0.37509  0.31343  1.0000
  H   H1346     1.0  0.75421  0.20489  0.63160  1.0000
  H   H1347     1.0  0.78221  0.16188  0.62496  1.0000
  H   H1348     1.0  0.64389  0.20002  0.40675  1.0000
  N   N46       1.0  0.70713  0.18731  0.40912  1.0000
  H   H1349     1.0  0.53756  0.09835  0.63971  1.0000
  H   H1350     1.0  0.67268  0.17829  0.46584  1.0000
  C   C761      1.0  0.96480  0.05002  0.32354  1.0000
  C   C762      1.0  0.95278  0.29000  0.35389  1.0000
  C   C763      1.0  0.71375  0.22691  0.39507  1.0000
  C   C764      1.0  0.95874  0.20662  0.40933  1.0000
  H   H1351     1.0  0.66571  0.12084  0.32651  1.0000
  C   C765      1.0  0.51053  0.21367  0.50796  1.0000
  H   H1352     1.0  0.50173  0.27660  0.50893  1.0000
  C   C766      1.0  0.50272  0.41181  0.62816  1.0000
  H   H1353     1.0  0.81851  0.45035  0.43665  1.0000
  H   H1354     1.0  0.98027  0.18629  0.39911  1.0000
  C   C767      1.0  0.62943  0.06262  0.59862  1.0000
  H   H1355     1.0  0.76342  0.21935  0.32722  1.0000
  C   C768      1.0  0.52845  0.43291  0.56793  1.0000
  C   C769      1.0  0.66496  0.05217  0.58029  1.0000
  H   H1356     1.0  0.58043  0.44962  0.59016  1.0000
  H   H1357     1.0  0.52030  0.49807  0.64134  1.0000
  H   H1358     1.0  0.65751  0.06144  0.55885  1.0000
  C   C770      1.0  0.99114  0.27054  0.62506  1.0000
  H   H1359     1.0  0.57331  0.45712  0.43575  1.0000
  C   C771      1.0  0.68993  0.12298  0.34205  1.0000
  H   H1360     1.0  0.68998  0.04355  0.31479  1.0000
  H   H1361     1.0  0.61761  0.42904  0.42822  1.0000
  H   H1362     1.0  0.62360  0.09509  0.59745  1.0000
  C   C772      1.0  0.98177  0.29547  0.40200  1.0000
  C   C773      1.0  0.78121  0.17753  0.42229  1.0000
  C   C774      1.0  0.80942  0.17584  0.44722  1.0000
  H   H1363     1.0  0.78686  0.15051  0.40956  1.0000
  H   H1364     1.0  0.73498  0.20122  0.44882  1.0000
  H   H1365     1.0  0.59910  0.22447  0.44623  1.0000
  C   C775      1.0  0.66535  0.18431  0.42062  1.0000
  H   H1366     1.0  0.74593  0.45103  0.43748  1.0000
  H   H1367     1.0  0.81596  0.01782  0.32962  1.0000
  H   H1368     1.0  0.88760  0.26022  0.63472  1.0000
  H   H1369     1.0  0.81710  0.24822  0.37182  1.0000
  H   H1370     1.0  0.80696  0.20328  0.46004  1.0000
  H   H1371     1.0  0.80304  0.14938  0.46026  1.0000
  H   H1372     1.0  0.84042  0.17336  0.43967  1.0000
  H   H1373     1.0  0.99119  0.33444  0.61722  1.0000
  H   H1374     1.0  0.84451  0.47743  0.62423  1.0000
  H   H1375     1.0  0.52503  0.35811  0.33169  1.0000
  H   H1376     1.0  0.63331  0.01802  0.53141  1.0000
  H   H1377     1.0  0.69299  0.09359  0.35231  1.0000
  H   H1378     1.0  0.51217  0.05338  0.38985  1.0000
  H   H1379     1.0  0.52070  0.46433  0.56348  1.0000
  C   C776      1.0  0.82961  0.36665  0.64453  1.0000
  C   C777      1.0  0.82468  0.24416  0.63350  1.0000
  C   C778      1.0  0.86350  0.25589  0.61918  1.0000
  H   H1380     1.0  0.90554  0.19955  0.43434  1.0000
  H   H1381     1.0  0.95403  0.30539  0.41257  1.0000
  H   H1382     1.0  0.90372  0.43464  0.61736  1.0000
  H   H1383     1.0  0.76949  0.06514  0.50852  1.0000
  Fe  Fe88      1.0  0.70594  0.49048  0.33558  1.0000
  C   C779      1.0  0.69936  0.15000  0.62745  1.0000
  Fe  Fe89      1.0  0.76666  0.49360  0.54539  1.0000
  H   H1384     1.0  0.95622  0.47866  0.52910  1.0000
  H   H1385     1.0  0.86249  0.08333  0.63860  1.0000
  C   C780      1.0  0.76620  0.17796  0.64185  1.0000
  H   H1386     1.0  0.62071  0.46017  0.62411  1.0000
  C   C781      1.0  0.67263  0.48439  0.44679  1.0000
  Fe  Fe90      1.0  0.70312  0.49621  0.59065  1.0000
  C   C782      1.0  0.60180  0.46712  0.64239  1.0000
  H   H1387     1.0  0.83612  0.27471  0.32605  1.0000
  C   C783      1.0  0.73149  0.02194  0.55019  1.0000
  H   H1388     1.0  0.86210  0.22499  0.35974  1.0000
  H   H1389     1.0  0.51509  0.38104  0.62732  1.0000
  H   H1390     1.0  0.99839  0.27906  0.41832  1.0000
  H   H1391     1.0  0.67452  0.13038  0.63374  1.0000
  H   H1392     1.0  0.99397  0.11701  0.60095  1.0000
  C   C784      1.0  0.80289  0.47133  0.45072  1.0000
  H   H1393     1.0  0.84789  0.18516  0.64023  1.0000
  H   H1394     1.0  0.76492  0.49294  0.41817  1.0000
  S   S177      1.0  0.77009  0.49695  0.59193  1.0000
  H   H1395     1.0  0.56235  0.05183  0.63600  1.0000
  H   H1396     1.0  0.73690  0.49423  0.47978  1.0000
  H   H1397     1.0  0.92281  0.35970  0.32925  1.0000
  H   H1398     1.0  0.67485  0.02206  0.50755  1.0000
  S   S178      1.0  0.99915  0.27597  0.47843  1.0000
  C   C785      1.0  0.77794  0.24736  0.32009  1.0000
  C   C786      1.0  0.98500  0.03884  0.35102  1.0000
  H   H1399     1.0  0.59183  0.49844  0.64085  1.0000
  H   H1400     1.0  0.50102  0.41523  0.56998  1.0000
  H   H1401     1.0  0.96258  0.04392  0.64424  1.0000
  S   S179      1.0  0.56295  0.22404  0.64470  1.0000
  Fe  Fe91      1.0  0.55612  0.29072  0.64420  1.0000
  H   H1402     1.0  0.83887  0.22526  0.31183  1.0000
  S   S180      1.0  0.87416  0.28982  0.94413  1.0000
  H   H1403     1.0  0.54948  0.01763  0.83486  1.0000
  Fe  Fe92      1.0  0.92239  0.25202  0.73219  1.0000
  S   S181      1.0  0.93287  0.25812  0.77859  1.0000
  S   S182      1.0  0.86436  0.28093  0.71627  1.0000
  H   H1404     1.0  0.99023  0.32550  0.84853  1.0000
  H   H1405     1.0  0.80172  0.29539  0.76530  1.0000
  Fe  Fe93      1.0  0.94451  0.19249  0.77935  1.0000
  S   S183      1.0  0.93024  0.14628  0.81311  1.0000
  S   S184      1.0  0.98655  0.26302  0.72073  1.0000
  S   S185      1.0  0.93012  0.18522  0.73381  1.0000
  H   H1406     1.0  0.85168  0.21782  0.66938  1.0000
  H   H1407     1.0  0.60336  0.24450  0.75887  1.0000
  Fe  Fe94      1.0  0.78721  0.45886  0.83092  1.0000
  S   S186      1.0  0.79912  0.45979  0.78464  1.0000
  S   S187      1.0  0.83745  0.43078  0.85743  1.0000
  H   H1408     1.0  0.77107  0.18874  0.76904  1.0000
  Fe  Fe95      1.0  0.73362  0.44875  0.77819  1.0000
  S   S188      1.0  0.72005  0.40260  0.74402  1.0000
  S   S189      1.0  0.72240  0.44368  0.82452  1.0000
  H   H1409     1.0  0.62713  0.44361  0.85877  1.0000
  S   S190      1.0  0.78126  0.04070  0.69741  1.0000
  H   H1410     1.0  0.88741  0.41052  0.79123  1.0000
  Fe  Fe96      1.0  0.71706  0.05164  0.70930  1.0000
  S   S191      1.0  0.70491  0.10475  0.73849  1.0000
  H   H1411     1.0  0.50231  0.41838  0.86791  1.0000
  S   S192      1.0  0.69731  0.05340  0.66467  1.0000
  Fe  Fe97      1.0  0.75804  0.06004  0.91493  1.0000
  S   S193      1.0  0.76639  0.05574  0.96147  1.0000
  S   S194      1.0  0.77773  0.11417  0.88945  1.0000
  C   C787      1.0  0.55104  0.01234  0.71769  1.0000
  C   C788      1.0  0.77363  0.08634  0.80480  1.0000
  C   C789      1.0  0.84230  0.15397  0.70002  1.0000
  S   S195      1.0  0.69170  0.05161  0.91834  1.0000
  C   C790      1.0  0.77647  0.19965  0.96445  1.0000
  S   S196      1.0  0.56688  0.33692  0.67890  1.0000
  C   C791      1.0  0.53504  0.39141  0.90182  1.0000
  Fe  Fe98      1.0  0.55663  0.27757  0.89124  1.0000
  S   S197      1.0  0.54611  0.28096  0.84451  1.0000
  S   S198      1.0  0.60832  0.31742  0.90697  1.0000
  Fe  Fe99      1.0  0.54129  0.21421  0.84446  1.0000
  S   S199      1.0  0.55707  0.16593  0.81186  1.0000
  S   S200      1.0  0.55580  0.21030  0.89034  1.0000
  C   C792      1.0  0.66319  0.12125  0.75856  1.0000
  C   C793      1.0  0.62884  0.09832  0.76182  1.0000
  C   C794      1.0  0.59697  0.11248  0.77829  1.0000
  C   C795      1.0  0.59902  0.14947  0.79205  1.0000
  C   C796      1.0  0.63361  0.17214  0.78913  1.0000
  C   C797      1.0  0.66521  0.15829  0.77229  1.0000
  H   H1412     1.0  0.62706  0.06951  0.75194  1.0000
  H   H1413     1.0  0.57069  0.09438  0.78073  1.0000
  H   H1414     1.0  0.63588  0.20054  0.79960  1.0000
  H   H1415     1.0  0.69166  0.17627  0.77015  1.0000
  C   C798      1.0  0.67682  0.38686  0.72545  1.0000
  C   C799      1.0  0.68158  0.36205  0.70202  1.0000
  C   C800      1.0  0.64845  0.34672  0.68742  1.0000
  C   C801      1.0  0.60993  0.35603  0.69609  1.0000
  C   C802      1.0  0.60508  0.38174  0.71909  1.0000
  C   C803      1.0  0.63826  0.39709  0.73368  1.0000
  H   H1416     1.0  0.71126  0.35444  0.69521  1.0000
  H   H1417     1.0  0.65276  0.32764  0.66951  1.0000
  H   H1418     1.0  0.57547  0.38961  0.72581  1.0000
  H   H1419     1.0  0.63403  0.41630  0.75154  1.0000
  H   H1420     1.0  0.55253  0.44387  0.66513  1.0000
  C   C804      1.0  0.65963  0.36600  0.93676  1.0000
  C   C805      1.0  0.62637  0.34060  0.93835  1.0000
  H   H1421     1.0  0.64243  0.23747  0.93054  1.0000
  H   H1422     1.0  0.67312  0.37156  0.91668  1.0000
  C   C806      1.0  0.82114  0.12341  0.86927  1.0000
  C   C807      1.0  0.82140  0.15573  0.85064  1.0000
  C   C808      1.0  0.85427  0.16286  0.83306  1.0000
  C   C809      1.0  0.88775  0.13840  0.83445  1.0000
  C   C810      1.0  0.88794  0.10674  0.85362  1.0000
  C   C811      1.0  0.85484  0.09925  0.87089  1.0000
  H   H1423     1.0  0.79560  0.17478  0.84938  1.0000
  H   H1424     1.0  0.85398  0.18736  0.81855  1.0000
  H   H1425     1.0  0.91392  0.08793  0.85515  1.0000
  H   H1426     1.0  0.85549  0.07512  0.88567  1.0000
  C   C812      1.0  0.85299  0.31648  0.68966  1.0000
  C   C813      1.0  0.88065  0.32807  0.66951  1.0000
  H   H1427     1.0  0.81669  0.43885  0.67658  1.0000
  H   H1428     1.0  0.81329  0.35995  0.77856  1.0000
  C   C814      1.0  0.70365  0.33890  0.81323  1.0000
  H   H1429     1.0  0.91074  0.31692  0.67069  1.0000
  C   C815      1.0  0.94931  0.20438  0.90702  1.0000
  H   H1430     1.0  0.56287  0.39523  0.91393  1.0000
  C   C816      1.0  0.86451  0.33164  0.92209  1.0000
  C   C817      1.0  0.89476  0.35576  0.91148  1.0000
  C   C818      1.0  0.88583  0.38582  0.89181  1.0000
  C   C819      1.0  0.84652  0.39285  0.88283  1.0000
  C   C820      1.0  0.81617  0.36936  0.89398  1.0000
  C   C821      1.0  0.82520  0.33888  0.91327  1.0000
  H   H1431     1.0  0.92517  0.35055  0.91779  1.0000
  H   H1432     1.0  0.90965  0.40370  0.88338  1.0000
  H   H1433     1.0  0.78577  0.37439  0.88755  1.0000
  H   H1434     1.0  0.80151  0.32033  0.92109  1.0000
  S   S201      1.0  0.99221  0.27107  0.96956  1.0000
  H   H1435     1.0  0.52463  0.45254  0.89123  1.0000
  C   C822      1.0  0.84676  0.11641  0.71766  1.0000
  H   H1436     1.0  0.91139  0.46433  0.75656  1.0000
  H   H1437     1.0  0.95869  0.04673  0.94860  1.0000
  H   H1438     1.0  0.80830  0.15127  0.94451  1.0000
  H   H1439     1.0  0.60460  0.13701  0.94722  1.0000
  H   H1440     1.0  0.55159  0.24572  0.70599  1.0000
  H   H1441     1.0  0.74078  0.03892  0.78693  1.0000
  H   H1442     1.0  0.77235  0.36781  0.66437  1.0000
  H   H1443     1.0  0.74341  0.27973  0.71669  1.0000
  H   H1444     1.0  0.78251  0.13599  0.68994  1.0000
  C   C823      1.0  0.74512  0.33862  0.80049  1.0000
  H   H1445     1.0  0.95099  0.02531  0.67847  1.0000
  H   H1446     1.0  0.95087  0.43903  0.94181  1.0000
  Fe  Fe100     1.0  0.99730  0.26572  0.76717  1.0000
  C   C824      1.0  0.55195  0.02397  0.94603  1.0000
  H   H1447     1.0  0.79272  0.32439  0.70372  1.0000
  H   H1448     1.0  0.76175  0.19534  0.70357  1.0000
  H   H1449     1.0  0.81909  0.11051  0.72957  1.0000
  H   H1450     1.0  0.59163  0.08254  0.70656  1.0000
  H   H1451     1.0  0.90837  0.49503  0.66822  1.0000
  C   C825      1.0  0.83108  0.20764  0.65263  1.0000
  C   C826      1.0  0.59510  0.23419  0.73761  1.0000
  H   H1452     1.0  0.61973  0.24166  0.72315  1.0000
  H   H1453     1.0  0.53910  0.38025  0.83607  1.0000
  H   H1454     1.0  0.64168  0.43354  0.66944  1.0000
  C   C827      1.0  0.51343  0.10154  0.87292  1.0000
  C   C828      1.0  0.89772  0.49324  0.95950  1.0000
  H   H1455     1.0  0.74227  0.03661  0.82407  1.0000
  H   H1456     1.0  0.98151  0.15517  0.88963  1.0000
  H   H1457     1.0  0.69799  0.28149  0.69681  1.0000
  H   H1458     1.0  0.92540  0.49432  0.71113  1.0000
  C   C829      1.0  0.62745  0.14452  0.68703  1.0000
  H   H1459     1.0  0.66354  0.19743  0.95065  1.0000
  H   H1460     1.0  0.68223  0.28658  0.95610  1.0000
  H   H1461     1.0  0.83496  0.49851  0.92142  1.0000
  H   H1462     1.0  0.60075  0.12180  0.64956  1.0000
  H   H1463     1.0  0.94155  0.31494  0.83497  1.0000
  C   C830      1.0  0.86667  0.46112  0.95121  1.0000
  H   H1464     1.0  0.89862  0.03628  0.92146  1.0000
  C   C831      1.0  0.60974  0.33362  0.96467  1.0000
  C   C832      1.0  0.99139  0.37830  0.96785  1.0000
  H   H1465     1.0  0.78486  0.26045  0.95249  1.0000
  H   H1466     1.0  0.83059  0.04991  0.77810  1.0000
  C   C833      1.0  0.90657  0.01399  0.93758  1.0000
  H   H1467     1.0  0.65267  0.48573  0.66693  1.0000
  H   H1468     1.0  0.52574  0.02273  0.73059  1.0000
  C   C834      1.0  0.81341  0.18283  0.95029  1.0000
  H   H1469     1.0  0.99714  0.26605  0.89246  1.0000
  H   H1470     1.0  0.71638  0.16277  0.66994  1.0000
  H   H1471     1.0  0.86396  0.45211  0.71458  1.0000
  H   H1472     1.0  0.73490  0.10809  0.83776  1.0000
  H   H1473     1.0  0.80757  0.45597  0.93352  1.0000
  H   H1474     1.0  0.80287  0.03130  0.84721  1.0000
  H   H1475     1.0  0.61119  0.46964  0.68757  1.0000
  N   N47       1.0  0.79456  0.18847  0.66503  1.0000
  C   C835      1.0  0.97461  0.18618  0.88322  1.0000
  H   H1476     1.0  0.92114  0.14937  0.92065  1.0000
  C   C836      1.0  0.55694  0.25459  0.72800  1.0000
  H   H1477     1.0  0.71371  0.25050  0.93993  1.0000
  C   C837      1.0  0.62829  0.46366  0.66822  1.0000
  C   C838      1.0  0.54319  0.02204  0.68663  1.0000
  H   H1478     1.0  0.58449  0.31395  0.96650  1.0000
  C   C839      1.0  0.57659  0.12476  0.95575  1.0000
  H   H1479     1.0  0.73614  0.43361  0.67858  1.0000
  C   C840      1.0  0.80246  0.35673  0.66550  1.0000
  C   C841      1.0  0.67586  0.38428  0.96087  1.0000
  H   H1480     1.0  0.56223  0.28687  0.72852  1.0000
  H   H1481     1.0  0.51362  0.00887  0.68215  1.0000
  H   H1482     1.0  0.70928  0.23818  0.71684  1.0000
  C   C842      1.0  0.64380  0.47449  0.91040  1.0000
  C   C843      1.0  0.72251  0.26202  0.70380  1.0000
  H   H1483     1.0  0.85861  0.44171  0.96885  1.0000
  H   H1484     1.0  0.54159  0.04378  0.96304  1.0000
  H   H1485     1.0  0.53703  0.33300  0.75304  1.0000
  H   H1486     1.0  0.74337  0.31239  0.96292  1.0000
  H   H1487     1.0  0.82076  0.20545  0.76129  1.0000
  H   H1488     1.0  0.68362  0.35579  0.79921  1.0000
  C   C844      1.0  0.76093  0.04204  0.80522  1.0000
  N   N48       1.0  0.54416  0.06529  0.67827  1.0000
  H   H1489     1.0  0.79866  0.47732  0.65539  1.0000
  C   C845      1.0  0.60396  0.47222  0.89513  1.0000
  C   C846      1.0  0.78971  0.21535  0.76501  1.0000
  H   H1490     1.0  0.87078  0.15862  0.68880  1.0000
  C   C847      1.0  0.80774  0.15014  0.67871  1.0000
  N   N49       1.0  0.81597  0.31107  0.80813  1.0000
  C   C848      1.0  0.77592  0.32010  0.82065  1.0000
  C   C849      1.0  0.84448  0.29712  0.83060  1.0000
  C   C850      1.0  0.83200  0.34942  0.79625  1.0000
  C   C851      1.0  0.81340  0.28116  0.78464  1.0000
  C   C852      1.0  0.78793  0.24359  0.78988  1.0000
  C   C853      1.0  0.87500  0.34767  0.78478  1.0000
  C   C854      1.0  0.82712  0.27246  0.85506  1.0000
  C   C855      1.0  0.86016  0.25446  0.87283  1.0000
  Fe  Fe101     1.0  0.70091  0.04291  0.96433  1.0000
  C   C856      1.0  0.88817  0.38824  0.77409  1.0000
  H   H1491     1.0  0.77949  0.34128  0.83841  1.0000
  H   H1492     1.0  0.76234  0.29304  0.82979  1.0000
  H   H1493     1.0  0.86938  0.27988  0.82127  1.0000
  H   H1494     1.0  0.85881  0.32315  0.84102  1.0000
  H   H1495     1.0  0.83088  0.37337  0.81232  1.0000
  H   H1496     1.0  0.84360  0.27072  0.77875  1.0000
  H   H1497     1.0  0.74830  0.14481  0.81212  1.0000
  H   H1498     1.0  0.79902  0.22672  0.80787  1.0000
  H   H1499     1.0  0.87698  0.32653  0.76714  1.0000
  H   H1500     1.0  0.89640  0.33852  0.80111  1.0000
  H   H1501     1.0  0.80886  0.29181  0.86866  1.0000
  H   H1502     1.0  0.80782  0.24799  0.84818  1.0000
  H   H1503     1.0  0.87666  0.23177  0.86074  1.0000
  H   H1504     1.0  0.88130  0.27770  0.87981  1.0000
  H   H1505     1.0  0.84718  0.24002  0.89150  1.0000
  C   C857      1.0  0.51162  0.08854  0.69266  1.0000
  H   H1506     1.0  0.59120  0.20144  0.73788  1.0000
  H   H1507     1.0  0.86851  0.39820  0.75682  1.0000
  H   H1508     1.0  0.91907  0.38617  0.76610  1.0000
  H   H1509     1.0  0.74112  0.12122  0.65436  1.0000
  Fe  Fe102     1.0  0.76041  0.03911  0.65283  1.0000
  C   C858      1.0  0.82033  0.01812  0.82970  1.0000
  H   H1510     1.0  0.75144  0.19630  0.94957  1.0000
  H   H1511     1.0  0.54246  0.13315  0.71850  1.0000
  H   H1512     1.0  0.80023  0.09176  0.81774  1.0000
  H   H1513     1.0  0.53521  0.36176  0.89174  1.0000
  H   H1514     1.0  0.63372  0.17358  0.67700  1.0000
  H   H1515     1.0  0.70386  0.35362  0.83399  1.0000
  C   C859      1.0  0.74341  0.24444  0.67830  1.0000
  N   N50       1.0  0.93466  0.47948  0.97486  1.0000
  H   H1516     1.0  0.83753  0.17939  0.71436  1.0000
  H   H1517     1.0  0.94492  0.24645  0.85321  1.0000
  C   C860      1.0  0.97288  0.26306  0.85024  1.0000
  C   C861      1.0  0.94669  0.43863  0.96489  1.0000
  C   C862      1.0  0.96304  0.30734  0.85165  1.0000
  H   H1518     1.0  0.89469  0.17529  0.89323  1.0000
  H   H1519     1.0  0.95501  0.18299  0.86466  1.0000
  H   H1520     1.0  0.83689  0.49371  0.72726  1.0000
  N   N51       1.0  0.56440  0.42923  0.85948  1.0000
  C   C863      1.0  0.56869  0.39041  0.84380  1.0000
  C   C864      1.0  0.60332  0.43721  0.87420  1.0000
  Fe  Fe103     1.0  0.92527  0.26809  0.97238  1.0000
  C   C865      1.0  0.59755  0.39077  0.81846  1.0000
  H   H1521     1.0  0.75321  0.36994  0.79613  1.0000
  C   C866      1.0  0.59908  0.35003  0.80435  1.0000
  H   H1522     1.0  0.52003  0.10065  0.94194  1.0000
  C   C867      1.0  0.81413  0.33191  0.68785  1.0000
  H   H1523     1.0  0.57954  0.36650  0.85791  1.0000
  H   H1524     1.0  0.61372  0.41015  0.88544  1.0000
  H   H1525     1.0  0.50473  0.05864  0.90528  1.0000
  H   H1526     1.0  0.78074  0.09546  0.78309  1.0000
  H   H1527     1.0  0.50466  0.36745  0.93789  1.0000
  H   H1528     1.0  0.69219  0.30812  0.81541  1.0000
  H   H1529     1.0  0.62817  0.39846  0.82510  1.0000
  H   H1530     1.0  0.55028  0.18359  0.96125  1.0000
  H   H1531     1.0  0.99161  0.46057  0.78937  1.0000
  H   H1532     1.0  0.58058  0.46936  0.91123  1.0000
  H   H1533     1.0  0.93887  0.23469  0.90174  1.0000
  H   H1534     1.0  0.61650  0.35184  0.78476  1.0000
  H   H1535     1.0  0.61344  0.32802  0.81838  1.0000
  H   H1536     1.0  0.56883  0.33953  0.79895  1.0000
  N   N52       1.0  0.56398  0.08197  0.91145  1.0000
  C   C868      1.0  0.53038  0.06908  0.89265  1.0000
  C   C869      1.0  0.58069  0.04595  0.92606  1.0000
  C   C870      1.0  0.54787  0.11173  0.93212  1.0000
  C   C871      1.0  0.59699  0.10124  0.89503  1.0000
  C   C872      1.0  0.61258  0.07759  0.86941  1.0000
  H   H1537     1.0  0.66875  0.47665  0.89531  1.0000
  H   H1538     1.0  0.65465  0.12596  0.68606  1.0000
  H   H1539     1.0  0.53646  0.08655  0.73561  1.0000
  C   C873      1.0  0.64525  0.10062  0.85436  1.0000
  C   C874      1.0  0.73554  0.46539  0.68486  1.0000
  H   H1540     1.0  0.87892  0.44204  0.93441  1.0000
  H   H1541     1.0  0.92277  0.41658  0.96854  1.0000
  H   H1542     1.0  0.53943  0.04298  0.87995  1.0000
  H   H1543     1.0  0.59084  0.02352  0.91056  1.0000
  H   H1544     1.0  0.70126  0.40376  0.95899  1.0000
  H   H1545     1.0  0.98407  0.25630  0.82903  1.0000
  H   H1546     1.0  0.53881  0.13926  0.92115  1.0000
  H   H1547     1.0  0.58788  0.13116  0.88763  1.0000
  H   H1548     1.0  0.62314  0.10683  0.90867  1.0000
  H   H1549     1.0  0.58873  0.07210  0.85397  1.0000
  H   H1550     1.0  0.62509  0.04848  0.87573  1.0000
  H   H1551     1.0  0.89358  0.01150  0.85703  1.0000
  H   H1552     1.0  0.53664  0.11484  0.85958  1.0000
  C   C875      1.0  0.53750  0.06698  0.64708  1.0000
  C   C876      1.0  0.91252  0.17905  0.91254  1.0000
  H   H1553     1.0  0.89363  0.19411  0.92823  1.0000
  H   H1554     1.0  0.58804  0.41244  0.80237  1.0000
  H   H1555     1.0  0.77833  0.23053  0.74619  1.0000
  H   H1556     1.0  0.60780  0.05397  0.93816  1.0000
  H   H1557     1.0  0.63393  0.12985  0.84712  1.0000
  H   H1558     1.0  0.67113  0.10554  0.86835  1.0000
  H   H1559     1.0  0.65535  0.08349  0.83587  1.0000
  H   H1560     1.0  0.75628  0.25142  0.79328  1.0000
  H   H1561     1.0  0.79910  0.23153  0.69850  1.0000
  C   C877      1.0  0.74022  0.11316  0.81524  1.0000
  C   C878      1.0  0.77538  0.47752  0.69759  1.0000
  C   C879      1.0  0.55513  0.46153  0.83843  1.0000
  H   H1562     1.0  0.74358  0.32233  0.78039  1.0000
  C   C880      1.0  0.65532  0.22940  0.95111  1.0000
  H   H1563     1.0  0.71238  0.10688  0.80375  1.0000
  H   H1564     1.0  0.79798  0.01897  0.75920  1.0000
  H   H1565     1.0  0.94960  0.31491  0.87210  1.0000
  H   H1566     1.0  0.82008  0.19975  0.93100  1.0000
  C   C881      1.0  0.69185  0.25514  0.95690  1.0000
  H   H1567     1.0  0.84406  0.04031  0.82530  1.0000
  H   H1568     1.0  0.71164  0.46952  0.70054  1.0000
  C   C882      1.0  0.58509  0.08180  0.68394  1.0000
  C   C883      1.0  0.81002  0.47127  0.67667  1.0000
  H   H1569     1.0  0.96656  0.20605  0.92667  1.0000
  C   C884      1.0  0.87970  0.48047  0.66324  1.0000
  H   H1570     1.0  0.52566  0.01257  0.93459  1.0000
  H   H1571     1.0  0.56642  0.14328  0.67388  1.0000
  H   H1572     1.0  0.61989  0.14989  0.70922  1.0000
  H   H1573     1.0  0.81692  0.12805  0.66273  1.0000
  C   C885      1.0  0.55775  0.15700  0.97395  1.0000
  H   H1574     1.0  0.58394  0.09935  0.96949  1.0000
  H   H1575     1.0  0.85388  0.09056  0.70414  1.0000
  C   C886      1.0  0.77585  0.21429  0.68730  1.0000
  C   C887      1.0  0.59301  0.12400  0.67205  1.0000
  H   H1576     1.0  0.60818  0.06168  0.67503  1.0000
  C   C888      1.0  0.53031  0.42456  0.87966  1.0000
  H   H1577     1.0  0.57897  0.02582  0.72540  1.0000
  H   H1578     1.0  0.78171  0.37253  0.95794  1.0000
  H   H1579     1.0  0.71963  0.23070  0.66559  1.0000
  H   H1580     1.0  0.88451  0.44789  0.66615  1.0000
  H   H1581     1.0  0.87135  0.12016  0.73288  1.0000
  H   H1582     1.0  0.83932  0.18423  0.96462  1.0000
  H   H1583     1.0  0.56496  0.00492  0.67387  1.0000
  H   H1584     1.0  0.78039  0.45885  0.71638  1.0000
  H   H1585     1.0  0.88609  0.03257  0.74569  1.0000
  H   H1586     1.0  0.64813  0.44792  0.92371  1.0000
  H   H1587     1.0  0.96668  0.00849  0.92353  1.0000
  C   C889      1.0  0.82852  0.47979  0.93994  1.0000
  C   C890      1.0  0.86029  0.48487  0.71210  1.0000
  Fe  Fe104     1.0  0.99524  0.19640  0.72604  1.0000
  C   C891      1.0  0.81774  0.01945  0.77778  1.0000
  C   C892      1.0  0.52192  0.10769  0.72129  1.0000
  C   C893      1.0  0.95120  0.01567  0.94332  1.0000
  H   H1588     1.0  0.63233  0.23437  0.96736  1.0000
  C   C894      1.0  0.97399  0.02580  0.66188  1.0000
  H   H1589     1.0  0.53076  0.24325  0.76853  1.0000
  H   H1590     1.0  0.99320  0.37719  0.94473  1.0000
  C   C895      1.0  0.73055  0.15181  0.65054  1.0000
  N   N53       1.0  0.79433  0.01209  0.80411  1.0000
  C   C896      1.0  0.98494  0.42088  0.97798  1.0000
  H   H1591     1.0  0.50207  0.36747  0.79216  1.0000
  H   H1592     1.0  0.75663  0.26901  0.66626  1.0000
  H   H1593     1.0  0.53761  0.44899  0.82072  1.0000
  H   H1594     1.0  0.72855  0.48402  0.66637  1.0000
  N   N54       1.0  0.84731  0.49469  0.68265  1.0000
  H   H1595     1.0  0.96671  0.35892  0.97500  1.0000
  H   H1596     1.0  0.85474  0.00563  0.88290  1.0000
  C   C897      1.0  0.90653  0.49657  0.75341  1.0000
  H   H1597     1.0  0.50144  0.11351  0.67925  1.0000
  H   H1598     1.0  0.50061  0.40065  0.67315  1.0000
  H   H1599     1.0  0.51659  0.21009  0.74162  1.0000
  C   C898      1.0  0.52107  0.24226  0.74629  1.0000
  C   C899      1.0  0.50472  0.33838  0.75146  1.0000
  H   H1600     1.0  0.88940  0.02079  0.95679  1.0000
  H   H1601     1.0  0.99559  0.27491  0.64778  1.0000
  C   C900      1.0  0.86896  0.35286  0.64713  1.0000
  C   C901      1.0  0.50059  0.39181  0.92253  1.0000
  H   H1602     1.0  0.58315  0.47324  0.82914  1.0000
  C   C902      1.0  0.78234  0.24402  0.97258  1.0000
  H   H1603     1.0  0.51373  0.40000  0.76350  1.0000
  H   H1604     1.0  0.81469  0.26984  0.64604  1.0000
  C   C903      1.0  0.52998  0.49759  0.84833  1.0000
  H   H1605     1.0  0.81401  0.49822  0.95625  1.0000
  C   C904      1.0  0.87397  0.00189  0.74488  1.0000
  H   H1606     1.0  0.50110  0.29361  0.70401  1.0000
  H   H1607     1.0  0.57797  0.40750  0.64508  1.0000
  H   H1608     1.0  0.74786  0.67646  0.07249  1.0000
  S   S202      1.0  0.68345  0.55072  0.11014  1.0000
  S   S203      1.0  0.82663  0.54822  0.00969  1.0000
  Fe  Fe105     1.0  0.99250  0.79050  0.98153  1.0000
  H   H1609     1.0  0.92336  0.60997  0.07468  1.0000
  S   S204      1.0  0.80565  0.55635  0.27312  1.0000
  H   H1610     1.0  0.86876  0.56324  0.06255  1.0000
  S   S205      1.0  0.66531  0.95480  0.15063  1.0000
  S   S206      1.0  0.81587  0.94386  0.24874  1.0000
  C   C905      1.0  0.88041  0.60862  0.99985  1.0000
  C   C906      1.0  0.91135  0.63536  0.00671  1.0000
  S   S207      1.0  0.54449  0.67295  0.07991  1.0000
  S   S208      1.0  0.54848  0.81261  0.18402  1.0000
  C   C907      1.0  0.66976  0.89581  0.31047  1.0000
  S   S209      1.0  0.96670  0.66870  0.04369  1.0000
  C   C908      1.0  0.98637  0.76666  0.11922  1.0000
  C   C909      1.0  0.52744  0.61054  0.26587  1.0000
  S   S210      1.0  0.97740  0.76542  0.28569  1.0000
  H   H1611     1.0  0.51278  0.98643  0.28310  1.0000
  H   H1612     1.0  0.92305  0.65527  0.99107  1.0000
  H   H1613     1.0  0.76422  0.95694  0.08884  1.0000
  H   H1614     1.0  0.74909  0.98771  0.28562  1.0000
  S   S211      1.0  0.94932  0.81841  0.21223  1.0000
  H   H1615     1.0  0.51057  0.60914  0.12562  1.0000
  H   H1616     1.0  0.55940  0.61658  0.27031  1.0000
  H   H1617     1.0  0.50092  0.73969  0.26068  1.0000
  C   C910      1.0  0.81017  0.51586  0.17133  1.0000
  H   H1618     1.0  0.92357  0.86089  0.00554  1.0000
  H   H1619     1.0  0.70249  0.92646  0.01383  1.0000
  C   C911      1.0  0.85263  0.90886  0.23820  1.0000
  C   C912      1.0  0.87158  0.88533  0.25851  1.0000
  C   C913      1.0  0.90116  0.85750  0.25100  1.0000
  C   C914      1.0  0.91201  0.85274  0.22300  1.0000
  C   C915      1.0  0.89293  0.87622  0.20273  1.0000
  C   C916      1.0  0.86354  0.90417  0.21025  1.0000
  H   H1620     1.0  0.86345  0.88868  0.28021  1.0000
  H   H1621     1.0  0.91558  0.83974  0.26686  1.0000
  H   H1622     1.0  0.90111  0.87293  0.18104  1.0000
  H   H1623     1.0  0.84944  0.92209  0.19437  1.0000
  C   C917      1.0  0.63464  0.91399  0.16035  1.0000
  C   C918      1.0  0.63210  0.90044  0.18788  1.0000
  C   C919      1.0  0.60587  0.86919  0.19476  1.0000
  C   C920      1.0  0.58225  0.85082  0.17419  1.0000
  C   C921      1.0  0.58552  0.86379  0.14657  1.0000
  C   C922      1.0  0.61121  0.89541  0.13979  1.0000
  H   H1624     1.0  0.64979  0.91451  0.20393  1.0000
  H   H1625     1.0  0.60373  0.85932  0.21617  1.0000
  H   H1626     1.0  0.56767  0.85003  0.13047  1.0000
  H   H1627     1.0  0.61284  0.90565  0.11844  1.0000
  C   C923      1.0  0.73242  0.86465  0.23202  1.0000
  C   C924      1.0  0.85137  0.58122  0.27968  1.0000
  H   H1628     1.0  0.51089  0.63004  0.28072  1.0000
  S   S212      1.0  0.51713  0.78024  0.10732  1.0000
  C   C925      1.0  0.92447  0.62174  0.28778  1.0000
  C   C926      1.0  0.89701  0.63565  0.26818  1.0000
  C   C927      1.0  0.86083  0.61529  0.26402  1.0000
  C   C928      1.0  0.95341  0.99165  0.25479  1.0000
  C   C929      1.0  0.91512  0.58762  0.30338  1.0000
  H   H1629     1.0  0.90373  0.66188  0.25606  1.0000
  H   H1630     1.0  0.83993  0.62610  0.24864  1.0000
  C   C930      1.0  0.64675  0.58653  0.10097  1.0000
  C   C931      1.0  0.62807  0.60842  0.12228  1.0000
  C   C932      1.0  0.59692  0.63516  0.11624  1.0000
  C   C933      1.0  0.58423  0.64048  0.08871  1.0000
  C   C934      1.0  0.60347  0.61926  0.06733  1.0000
  C   C935      1.0  0.63476  0.59269  0.07337  1.0000
  H   H1631     1.0  0.63776  0.60447  0.14358  1.0000
  H   H1632     1.0  0.58243  0.65128  0.13287  1.0000
  H   H1633     1.0  0.59411  0.62336  0.04592  1.0000
  H   H1634     1.0  0.64920  0.57653  0.05671  1.0000
  C   C936      1.0  0.86460  0.58243  0.01987  1.0000
  C   C937      1.0  0.88031  0.58326  0.04692  1.0000
  C   C938      1.0  0.91140  0.60981  0.05373  1.0000
  C   C939      1.0  0.92717  0.63609  0.03375  1.0000
  H   H1635     1.0  0.50044  0.67454  0.21342  1.0000
  C   C940      1.0  0.96725  0.94885  0.26235  1.0000
  H   H1636     1.0  0.63013  0.50517  0.03433  1.0000
  Fe  Fe106     1.0  0.98784  0.77950  0.24052  1.0000
  H   H1637     1.0  0.57925  0.55837  0.23181  1.0000
  H   H1638     1.0  0.93128  0.98797  0.23771  1.0000
  C   C941      1.0  0.72823  0.99408  0.30285  1.0000
  C   C942      1.0  0.73529  0.97448  0.03343  1.0000
  H   H1639     1.0  0.58638  0.53582  0.03477  1.0000
  H   H1640     1.0  0.63020  0.63768  0.30147  1.0000
  Fe  Fe107     1.0  0.99952  0.71675  0.01872  1.0000
  H   H1641     1.0  0.76687  0.54063  0.14141  1.0000
  C   C943      1.0  0.69695  0.95104  0.02882  1.0000
  H   H1642     1.0  0.77996  0.99319  0.11390  1.0000
  H   H1643     1.0  0.67338  0.97060  0.02011  1.0000
  S   S213      1.0  0.77773  0.97275  0.17293  1.0000
  H   H1644     1.0  0.71423  0.99704  0.07332  1.0000
  H   H1645     1.0  0.96654  0.54454  0.21581  1.0000
  C   C944      1.0  0.59781  0.50543  0.03890  1.0000
  H   H1646     1.0  0.96678  0.59337  0.20055  1.0000
  C   C945      1.0  0.76295  0.51154  0.21102  1.0000
  H   H1647     1.0  0.60410  0.53407  0.18713  1.0000
  H   H1648     1.0  0.86863  0.60825  0.97885  1.0000
  H   H1649     1.0  0.71249  0.55265  0.24641  1.0000
  H   H1650     1.0  0.73868  0.93247  0.26407  1.0000
  H   H1651     1.0  0.60594  0.51712  0.08241  1.0000
  H   H1652     1.0  0.75801  0.95324  0.04101  1.0000
  H   H1653     1.0  0.62130  0.93201  0.29226  1.0000
  H   H1654     1.0  0.91705  0.51062  0.01242  1.0000
  H   H1655     1.0  0.96430  0.76973  0.13644  1.0000
  S   S214      1.0  0.71394  0.99337  0.22329  1.0000
  C   C946      1.0  0.94210  0.81344  0.09154  1.0000
  C   C947      1.0  0.89682  0.99844  0.28621  1.0000
  H   H1656     1.0  0.50790  0.88919  0.10165  1.0000
  C   C948      1.0  0.71151  0.56358  0.22463  1.0000
  H   H1657     1.0  0.51692  0.93583  0.11911  1.0000
  H   H1658     1.0  0.68642  0.93801  0.04875  1.0000
  H   H1659     1.0  0.51626  0.74589  0.22469  1.0000
  C   C949      1.0  0.87871  0.56757  0.29950  1.0000
  C   C950      1.0  0.59690  0.87713  0.30669  1.0000
  H   H1660     1.0  0.90054  0.96731  0.29346  1.0000
  H   H1661     1.0  0.73295  0.58850  0.22253  1.0000
  H   H1662     1.0  0.99076  0.94901  0.27858  1.0000
  H   H1663     1.0  0.57931  0.62853  0.22538  1.0000
  C   C951      1.0  0.97271  0.57644  0.21993  1.0000
  Fe  Fe108     1.0  0.72092  0.51207  0.08074  1.0000
  C   C952      1.0  0.78994  0.55104  0.15621  1.0000
  C   C953      1.0  0.82041  0.57544  0.13990  1.0000
  H   H1664     1.0  0.96318  0.93387  0.01045  1.0000
  H   H1665     1.0  0.55096  0.68583  0.26654  1.0000
  C   C954      1.0  0.78870  0.97734  0.09465  1.0000
  Fe  Fe109     1.0  0.78041  0.98345  0.21893  1.0000
  H   H1666     1.0  0.87266  0.91244  0.01558  1.0000
  H   H1667     1.0  0.67672  0.86361  0.31040  1.0000
  Fe  Fe110     1.0  0.71260  0.98682  0.17662  1.0000
  H   H1668     1.0  0.95215  0.58733  0.23631  1.0000
  H   H1669     1.0  0.70286  0.86746  0.22191  1.0000
  H   H1670     1.0  0.56717  0.55979  0.30457  1.0000
  S   S215      1.0  0.98701  0.78140  0.02766  1.0000
  Fe  Fe111     1.0  0.78785  0.50893  0.03766  1.0000
  H   H1671     1.0  0.63489  0.88897  0.27185  1.0000
  S   S216      1.0  0.82093  0.95904  0.98101  1.0000
  H   H1672     1.0  0.77638  0.57161  0.17157  1.0000
  H   H1673     1.0  0.84158  0.59014  0.15442  1.0000
  H   H1674     1.0  0.83744  0.55634  0.12527  1.0000
  N   N55       1.0  0.70482  0.92028  0.30113  1.0000
  C   C955      1.0  0.71471  0.91244  0.27098  1.0000
  H   H1675     1.0  0.61640  0.98706  0.22480  1.0000
  H   H1676     1.0  0.78286  0.53561  0.21865  1.0000
  H   H1677     1.0  0.75295  0.88709  0.22303  1.0000
  C   C956      1.0  0.72896  0.87008  0.26360  1.0000
  H   H1678     1.0  0.57949  0.57364  0.16864  1.0000
  C   C957      1.0  0.82494  0.95184  0.10166  1.0000
  H   H1679     1.0  0.94088  0.98723  0.98344  1.0000
  H   H1680     1.0  0.68920  0.92013  0.25727  1.0000
  S   S217      1.0  0.72065  0.50925  0.03389  1.0000
  H   H1681     1.0  0.99785  0.87056  0.99982  1.0000
  H   H1682     1.0  0.92160  0.81794  0.10940  1.0000
  H   H1683     1.0  0.57875  0.80289  0.05511  1.0000
  H   H1684     1.0  0.72016  0.54304  0.18294  1.0000
  H   H1685     1.0  0.74448  0.83466  0.22735  1.0000
  N   N56       1.0  0.66395  0.75582  0.10923  1.0000
  C   C958      1.0  0.69622  0.73398  0.09357  1.0000
  C   C959      1.0  0.67915  0.79643  0.11750  1.0000
  C   C960      1.0  0.65605  0.73301  0.13581  1.0000
  C   C961      1.0  0.62556  0.75909  0.09290  1.0000
  C   C962      1.0  0.62884  0.76237  0.06066  1.0000
  C   C963      1.0  0.68839  0.68910  0.08830  1.0000
  C   C964      1.0  0.62651  0.75234  0.15663  1.0000
  C   C965      1.0  0.69033  0.82511  0.09354  1.0000
  C   C966      1.0  0.71122  0.86221  0.10478  1.0000
  C   C967      1.0  0.58891  0.77338  0.04753  1.0000
  C   C968      1.0  0.71636  0.67210  0.06622  1.0000
  C   C969      1.0  0.61559  0.72352  0.18002  1.0000
  H   H1686     1.0  0.72490  0.73604  0.10517  1.0000
  H   H1687     1.0  0.70230  0.74801  0.07313  1.0000
  H   H1688     1.0  0.65645  0.81287  0.12979  1.0000
  H   H1689     1.0  0.70550  0.79324  0.13148  1.0000
  H   H1690     1.0  0.68438  0.72750  0.14728  1.0000
  H   H1691     1.0  0.64360  0.70322  0.13086  1.0000
  H   H1692     1.0  0.60620  0.73280  0.09676  1.0000
  H   H1693     1.0  0.60798  0.78498  0.10052  1.0000
  H   H1694     1.0  0.63805  0.73345  0.05157  1.0000
  H   H1695     1.0  0.65078  0.78485  0.05406  1.0000
  H   H1696     1.0  0.69338  0.67195  0.10779  1.0000
  H   H1697     1.0  0.65741  0.68393  0.08141  1.0000
  H   H1698     1.0  0.59869  0.76142  0.14596  1.0000
  H   H1699     1.0  0.63996  0.77885  0.16671  1.0000
  H   H1700     1.0  0.71069  0.81123  0.07825  1.0000
  H   H1701     1.0  0.66297  0.83526  0.08271  1.0000
  H   H1702     1.0  0.71748  0.88303  0.08738  1.0000
  H   H1703     1.0  0.69221  0.87780  0.12021  1.0000
  H   H1704     1.0  0.73985  0.85418  0.11487  1.0000
  H   H1705     1.0  0.74544  0.98621  0.01310  1.0000
  H   H1706     1.0  0.59192  0.77474  0.02449  1.0000
  H   H1707     1.0  0.56607  0.75072  0.05262  1.0000
  H   H1708     1.0  0.83459  0.93453  0.08312  1.0000
  H   H1709     1.0  0.71095  0.63968  0.06390  1.0000
  H   H1710     1.0  0.71107  0.68649  0.04572  1.0000
  H   H1711     1.0  0.64264  0.71369  0.19139  1.0000
  H   H1712     1.0  0.59559  0.73867  0.19506  1.0000
  H   H1713     1.0  0.59984  0.69719  0.17152  1.0000
  Fe  Fe112     1.0  0.99467  0.70284  0.27421  1.0000
  S   S218      1.0  0.97080  0.64570  0.29365  1.0000
  C   C970      1.0  0.55229  0.61361  0.21702  1.0000
  C   C971      1.0  0.56438  0.56963  0.21270  1.0000
  H   H1714     1.0  0.80490  0.59875  0.12763  1.0000
  C   C972      1.0  0.59387  0.56539  0.18870  1.0000
  H   H1715     1.0  0.81116  0.99034  0.05318  1.0000
  H   H1716     1.0  0.81737  0.93074  0.11863  1.0000
  H   H1717     1.0  0.83264  0.53012  0.18507  1.0000
  H   H1718     1.0  0.87739  0.99598  0.26750  1.0000
  H   H1719     1.0  0.53871  0.55037  0.20766  1.0000
  H   H1720     1.0  0.56960  0.88017  0.29383  1.0000
  C   C973      1.0  0.50758  0.66492  0.23499  1.0000
  H   H1721     1.0  0.62023  0.58460  0.19219  1.0000
  Fe  Fe113     1.0  0.77769  0.50610  0.29843  1.0000
  C   C974      1.0  0.52603  0.73643  0.24582  1.0000
  H   H1722     1.0  0.53064  0.54489  0.26126  1.0000
  H   H1723     1.0  0.93135  0.78811  0.07869  1.0000
  H   H1724     1.0  0.99323  0.83199  0.11452  1.0000
  N   N57       1.0  0.51726  0.62108  0.23591  1.0000
  H   H1725     1.0  0.97128  0.66416  0.17598  1.0000
  C   C975      1.0  0.59549  0.99913  0.20899  1.0000
  H   H1726     1.0  0.70824  0.84714  0.27149  1.0000
  H   H1727     1.0  0.84988  0.97087  0.10896  1.0000
  C   C976      1.0  0.54077  0.69347  0.24525  1.0000
  H   H1728     1.0  0.89935  0.73480  0.30322  1.0000
  H   H1729     1.0  0.68122  0.57499  0.22027  1.0000
  S   S219      1.0  0.50543  0.70974  0.15516  1.0000
  H   H1730     1.0  0.94213  0.93073  0.27005  1.0000
  H   H1731     1.0  0.98542  0.62437  0.15276  1.0000
  H   H1732     1.0  0.97493  0.74285  0.10522  1.0000
  H   H1733     1.0  0.94177  0.84064  0.07845  1.0000
  H   H1734     1.0  0.54733  0.62766  0.19628  1.0000
  C   C977      1.0  0.90764  0.87484  0.98856  1.0000
  H   H1735     1.0  0.69824  0.50731  0.20555  1.0000
  C   C978      1.0  0.50873  0.57840  0.11721  1.0000
  C   C979      1.0  0.87856  0.90399  0.99421  1.0000
  C   C980      1.0  0.53424  0.55927  0.30473  1.0000
  H   H1736     1.0  0.55045  0.75637  0.25269  1.0000
  H   H1737     1.0  0.67224  0.97225  0.28695  1.0000
  C   C981      1.0  0.98433  0.80570  0.10202  1.0000
  C   C982      1.0  0.51817  0.56751  0.27552  1.0000
  H   H1738     1.0  0.75906  0.86510  0.27246  1.0000
  S   S220      1.0  0.78745  0.51576  0.08393  1.0000
  H   H1739     1.0  0.59300  0.97740  0.19163  1.0000
  H   H1740     1.0  0.95603  0.55762  0.99653  1.0000
  Fe  Fe114     1.0  0.50998  0.77694  0.15361  1.0000
  C   C983      1.0  0.72179  0.53028  0.20414  1.0000
  C   C984      1.0  0.99532  0.65282  0.16225  1.0000
  C   C985      1.0  0.63087  0.90054  0.29336  1.0000
  Fe  Fe115     1.0  0.50858  0.71385  0.10841  1.0000
  C   C986      1.0  0.98440  0.92763  0.23684  1.0000
  H   H1741     1.0  0.60457  0.84507  0.30812  1.0000
  H   H1742     1.0  0.53936  0.56777  0.11284  1.0000
  H   H1743     1.0  0.56673  0.69240  0.23106  1.0000
  H   H1744     1.0  0.96208  0.92622  0.21978  1.0000
  H   H1745     1.0  0.99201  0.87680  0.03694  1.0000
  H   H1746     1.0  0.50399  0.88065  0.15239  1.0000
  C   C987      1.0  0.99574  0.93215  0.01382  1.0000
  C   C988      1.0  0.69340  0.96369  0.30376  1.0000
  H   H1747     1.0  0.97656  0.68698  0.12722  1.0000
  H   H1748     1.0  0.99275  0.89670  0.24248  1.0000
  H   H1749     1.0  0.76828  0.92175  0.30897  1.0000
  H   H1750     1.0  0.99913  0.73256  0.16806  1.0000
  H   H1751     1.0  0.99542  0.50017  0.97968  1.0000
  H   H1752     1.0  0.62445  0.50185  0.41817  1.0000
  H   H1753     1.0  0.85081  0.58375  0.48192  1.0000
  S   S221      1.0  0.68498  0.92676  0.38637  1.0000
  S   S222      1.0  0.83106  0.96022  0.47802  1.0000
  H   H1754     1.0  0.90426  0.63238  0.49303  1.0000
  S   S223      1.0  0.52895  0.83082  0.41981  1.0000
  H   H1755     1.0  0.54008  0.53268  0.47897  1.0000
  H   H1756     1.0  0.87459  0.75990  0.33183  1.0000
  C   C989      1.0  0.86245  0.91844  0.47133  1.0000
  C   C990      1.0  0.86669  0.90205  0.44464  1.0000
  C   C991      1.0  0.89272  0.86970  0.44020  1.0000
  H   H1757     1.0  0.85027  0.91459  0.42736  1.0000
  H   H1758     1.0  0.89607  0.85768  0.41940  1.0000
  C   C992      1.0  0.64239  0.89975  0.39707  1.0000
  C   C993      1.0  0.63158  0.86539  0.38213  1.0000
  C   C994      1.0  0.59683  0.84422  0.38877  1.0000
  C   C995      1.0  0.57280  0.85682  0.41079  1.0000
  C   C996      1.0  0.58377  0.89084  0.42605  1.0000
  C   C997      1.0  0.61839  0.91231  0.41920  1.0000
  H   H1759     1.0  0.65035  0.85466  0.36551  1.0000
  H   H1760     1.0  0.58893  0.81788  0.37705  1.0000
  H   H1761     1.0  0.56537  0.90071  0.44319  1.0000
  H   H1762     1.0  0.62633  0.93870  0.43085  1.0000
  C   C998      1.0  0.63065  0.56399  0.35027  1.0000
  H   H1763     1.0  0.66164  0.58662  0.52146  1.0000
  H   H1764     1.0  0.91964  0.63647  0.36676  1.0000
  C   C999      1.0  0.59054  0.63564  0.33671  1.0000
  C   C1000     1.0  0.58009  0.61436  0.36062  1.0000
  C   C1001     1.0  0.59995  0.57868  0.36731  1.0000
  C   C1002     1.0  0.62173  0.62137  0.31995  1.0000
  H   H1765     1.0  0.74416  0.84698  0.31564  1.0000
  H   H1766     1.0  0.55610  0.62504  0.37358  1.0000
  H   H1767     1.0  0.89551  0.60105  0.57955  1.0000
  S   S224      1.0  0.66992  0.53929  0.61907  1.0000
  S   S225      1.0  0.80403  0.53087  0.51543  1.0000
  H   H1768     1.0  0.84173  0.55291  0.56850  1.0000
  C   C1003     1.0  0.86039  0.58761  0.50329  1.0000
  C   C1004     1.0  0.99255  0.70190  0.38588  1.0000
  C   C1005     1.0  0.95033  0.64691  0.37135  1.0000
  S   S226      1.0  0.94171  0.65446  0.54638  1.0000
  H   H1769     1.0  0.72279  0.86417  0.34762  1.0000
  S   S227      1.0  0.94793  0.81294  0.45512  1.0000
  S   S228      1.0  0.97205  0.76385  0.53020  1.0000
  C   C1006     1.0  0.91464  0.85298  0.46232  1.0000
  C   C1007     1.0  0.91001  0.86899  0.48910  1.0000
  C   C1008     1.0  0.88424  0.90160  0.49350  1.0000
  H   H1770     1.0  0.92670  0.85662  0.50631  1.0000
  H   H1771     1.0  0.88133  0.91407  0.51420  1.0000
  H   H1772     1.0  0.53682  0.86312  0.61668  1.0000
  C   C1009     1.0  0.62616  0.56507  0.60915  1.0000
  C   C1010     1.0  0.61171  0.59584  0.62627  1.0000
  C   C1011     1.0  0.57687  0.61684  0.61911  1.0000
  C   C1012     1.0  0.55581  0.60678  0.59494  1.0000
  C   C1013     1.0  0.56986  0.57546  0.57819  1.0000
  C   C1014     1.0  0.60496  0.55488  0.58509  1.0000
  H   H1773     1.0  0.70364  0.61971  0.52182  1.0000
  C   C1015     1.0  0.70644  0.57450  0.48965  1.0000
  H   H1774     1.0  0.55348  0.56705  0.55976  1.0000
  H   H1775     1.0  0.61545  0.53094  0.57193  1.0000
  C   C1016     1.0  0.84229  0.56506  0.52448  1.0000
  C   C1017     1.0  0.85518  0.57016  0.55202  1.0000
  C   C1018     1.0  0.88571  0.59751  0.55821  1.0000
  C   C1019     1.0  0.90350  0.62037  0.53706  1.0000
  C   C1020     1.0  0.89075  0.61520  0.50952  1.0000
  H   H1776     1.0  0.66654  0.62490  0.49500  1.0000
  C   C1021     1.0  0.95877  0.57470  0.38565  1.0000
  H   H1777     1.0  0.59294  0.62247  0.50613  1.0000
  H   H1778     1.0  0.82459  0.88539  0.60839  1.0000
  Fe  Fe116     1.0  0.97873  0.69852  0.52088  1.0000
  H   H1779     1.0  0.99927  0.53557  0.51449  1.0000
  H   H1780     1.0  0.98938  0.76664  0.37759  1.0000
  S   S229      1.0  0.98620  0.70678  0.47452  1.0000
  H   H1781     1.0  0.50497  0.86620  0.33755  1.0000
  H   H1782     1.0  0.97234  0.55458  0.40135  1.0000
  S   S230      1.0  0.51216  0.63246  0.58450  1.0000
  C   C1022     1.0  0.57885  0.90866  0.62923  1.0000
  H   H1783     1.0  0.61377  0.51267  0.45410  1.0000
  S   S231      1.0  0.56378  0.67860  0.32608  1.0000
  H   H1784     1.0  0.82847  0.70275  0.58277  1.0000
  H   H1785     1.0  0.89960  0.67207  0.32961  1.0000
  N   N58       1.0  0.70318  0.99030  0.56028  1.0000
  C   C1023     1.0  0.67937  0.97234  0.53671  1.0000
  C   C1024     1.0  0.74607  0.87033  0.33180  1.0000
  C   C1025     1.0  0.98194  0.53780  0.53414  1.0000
  C   C1026     1.0  0.90260  0.73735  0.40734  1.0000
  S   S232      1.0  0.65329  0.51785  0.35886  1.0000
  H   H1786     1.0  0.88049  0.74226  0.39055  1.0000
  H   H1787     1.0  0.91382  0.73606  0.58334  1.0000
  H   H1788     1.0  0.92386  0.76229  0.40639  1.0000
  C   C1027     1.0  0.87087  0.81775  0.61706  1.0000
  H   H1789     1.0  0.51169  0.57106  0.38420  1.0000
  H   H1790     1.0  0.58291  0.54986  0.49817  1.0000
  H   H1791     1.0  0.57324  0.92717  0.61123  1.0000
  S   S233      1.0  0.52391  0.71704  0.39940  1.0000
  H   H1792     1.0  0.93614  0.57656  0.31857  1.0000
  H   H1793     1.0  0.84310  0.74320  0.62431  1.0000
  H   H1794     1.0  0.67762  0.96909  0.32388  1.0000
  H   H1795     1.0  0.50936  0.60012  0.48332  1.0000
  C   C1028     1.0  0.72232  0.59778  0.39060  1.0000
  C   C1029     1.0  0.60983  0.67396  0.42610  1.0000
  S   S234      1.0  0.72243  0.98227  0.45673  1.0000
  C   C1030     1.0  0.92328  0.69627  0.40410  1.0000
  H   H1796     1.0  0.83838  0.81179  0.61517  1.0000
  H   H1797     1.0  0.85659  0.71702  0.43604  1.0000
  H   H1798     1.0  0.86917  0.76378  0.57578  1.0000
  Fe  Fe117     1.0  0.98350  0.77274  0.48447  1.0000
  S   S235      1.0  0.78274  0.98183  0.40204  1.0000
  C   C1031     1.0  0.87516  0.85971  0.63041  1.0000
  H   H1799     1.0  0.98671  0.75283  0.41407  1.0000
  H   H1800     1.0  0.74515  0.99339  0.32274  1.0000
  H   H1801     1.0  0.81090  0.87109  0.33127  1.0000
  H   H1802     1.0  0.75837  0.53488  0.46193  1.0000
  H   H1803     1.0  0.66276  0.90335  0.33247  1.0000
  H   H1804     1.0  0.52359  0.89513  0.36635  1.0000
  H   H1805     1.0  0.53979  0.66372  0.45308  1.0000
  C   C1032     1.0  0.54204  0.59663  0.48469  1.0000
  H   H1806     1.0  0.89879  0.67400  0.40394  1.0000
  H   H1807     1.0  0.93999  0.69027  0.42367  1.0000
  H   H1808     1.0  0.98368  0.58763  0.58161  1.0000
  H   H1809     1.0  0.88229  0.82034  0.59537  1.0000
  H   H1810     1.0  0.78647  0.98857  0.54129  1.0000
  C   C1033     1.0  0.94628  0.50997  0.53146  1.0000
  H   H1811     1.0  0.78889  0.88837  0.36359  1.0000
  H   H1812     1.0  0.92683  0.51256  0.55006  1.0000
  H   H1813     1.0  0.96800  0.91622  0.61853  1.0000
  H   H1814     1.0  0.74797  0.87733  0.58201  1.0000
  H   H1815     1.0  0.93480  0.74574  0.35834  1.0000
  H   H1816     1.0  0.54892  0.62163  0.52586  1.0000
  H   H1817     1.0  0.74108  0.62486  0.38962  1.0000
  H   H1818     1.0  0.69147  0.60600  0.38466  1.0000
  N   N59       1.0  0.89122  0.78387  0.63216  1.0000
  H   H1819     1.0  0.87359  0.69455  0.35793  1.0000
  C   C1034     1.0  0.78633  0.86637  0.34635  1.0000
  H   H1820     1.0  0.78953  0.60886  0.63993  1.0000
  H   H1821     1.0  0.96986  0.84513  0.55853  1.0000
  H   H1822     1.0  0.95506  0.62371  0.41440  1.0000
  H   H1823     1.0  0.55432  0.59915  0.46333  1.0000
  C   C1035     1.0  0.88173  0.73911  0.58827  1.0000
  H   H1824     1.0  0.78932  0.83612  0.35534  1.0000
  H   H1825     1.0  0.70829  0.52153  0.40530  1.0000
  H   H1826     1.0  0.71445  0.86913  0.61076  1.0000
  C   C1036     1.0  0.74040  0.91284  0.31984  1.0000
  H   H1827     1.0  0.81527  0.54056  0.63757  1.0000
  H   H1828     1.0  0.66766  0.55114  0.41575  1.0000
  H   H1829     1.0  0.85921  0.92111  0.62226  1.0000
  H   H1830     1.0  0.88920  0.71928  0.63030  1.0000
  H   H1831     1.0  0.98906  0.51813  0.57724  1.0000
  H   H1832     1.0  0.54009  0.50242  0.60752  1.0000
  H   H1833     1.0  0.72725  0.59214  0.47687  1.0000
  C   C1037     1.0  0.87905  0.73089  0.32121  1.0000
  C   C1038     1.0  0.50883  0.67906  0.50237  1.0000
  H   H1834     1.0  0.75398  0.90477  0.61425  1.0000
  H   H1835     1.0  0.95888  0.71084  0.33684  1.0000
  Fe  Fe118     1.0  0.50459  0.78010  0.39325  1.0000
  S   S236      1.0  0.50349  0.77564  0.34637  1.0000
  H   H1836     1.0  0.58810  0.65565  0.41434  1.0000
  H   H1837     1.0  0.97148  0.56751  0.36488  1.0000
  H   H1838     1.0  0.90090  0.73603  0.45285  1.0000
  N   N60       1.0  0.95016  0.69050  0.37915  1.0000
  C   C1039     1.0  0.86086  0.70122  0.57853  1.0000
  C   C1040     1.0  0.60438  0.66827  0.45742  1.0000
  C   C1041     1.0  0.93540  0.78812  0.62768  1.0000
  Fe  Fe119     1.0  0.71710  0.97575  0.41038  1.0000
  H   H1839     1.0  0.60692  0.96099  0.50681  1.0000
  S   S237      1.0  0.76892  0.50848  0.34473  1.0000
  H   H1840     1.0  0.59052  0.88864  0.32796  1.0000
  H   H1841     1.0  0.94589  0.81747  0.63533  1.0000
  H   H1842     1.0  0.71097  0.60374  0.43398  1.0000
  C   C1042     1.0  0.55809  0.87248  0.63227  1.0000
  Fe  Fe120     1.0  0.78773  0.99183  0.44833  1.0000
  H   H1843     1.0  0.64019  0.66454  0.41989  1.0000
  C   C1043     1.0  0.99142  0.92468  0.60329  1.0000
  H   H1844     1.0  0.62658  0.68749  0.46795  1.0000
  N   N61       1.0  0.55236  0.67099  0.49719  1.0000
  H   H1845     1.0  0.64947  0.95897  0.48402  1.0000
  C   C1044     1.0  0.57845  0.69739  0.51489  1.0000
  H   H1846     1.0  0.92846  0.51826  0.51282  1.0000
  C   C1045     1.0  0.56151  0.67915  0.46693  1.0000
  H   H1847     1.0  0.53441  0.54853  0.51454  1.0000
  H   H1848     1.0  0.75307  0.99251  0.51205  1.0000
  C   C1046     1.0  0.57107  0.69552  0.54671  1.0000
  C   C1047     1.0  0.59599  0.72631  0.56232  1.0000
  H   H1849     1.0  0.73386  0.57595  0.37526  1.0000
  H   H1850     1.0  0.72463  0.55583  0.50374  1.0000
  C   C1048     1.0  0.89590  0.70014  0.34143  1.0000
  H   H1851     1.0  0.52300  0.58166  0.31984  1.0000
  H   H1852     1.0  0.61023  0.68937  0.51211  1.0000
  H   H1853     1.0  0.57618  0.72889  0.50795  1.0000
  H   H1854     1.0  0.64819  0.98956  0.58394  1.0000
  H   H1855     1.0  0.55740  0.71127  0.46223  1.0000
  H   H1856     1.0  0.95000  0.89478  0.55712  1.0000
  H   H1857     1.0  0.51485  0.93927  0.57411  1.0000
  H   H1858     1.0  0.56653  0.64098  0.63213  1.0000
  H   H1859     1.0  0.53956  0.70126  0.55190  1.0000
  H   H1860     1.0  0.57961  0.66584  0.55475  1.0000
  H   H1861     1.0  0.62815  0.72138  0.55848  1.0000
  H   H1862     1.0  0.58770  0.75684  0.55571  1.0000
  H   H1863     1.0  0.59042  0.72363  0.58508  1.0000
  C   C1049     1.0  0.87559  0.74549  0.62004  1.0000
  H   H1864     1.0  0.90667  0.86780  0.63374  1.0000
  C   C1050     1.0  0.68286  0.60313  0.50804  1.0000
  C   C1051     1.0  0.67854  0.54768  0.47186  1.0000
  C   C1052     1.0  0.56048  0.62816  0.50461  1.0000
  C   C1053     1.0  0.96216  0.75745  0.64255  1.0000
  H   H1865     1.0  0.97480  0.65222  0.60754  1.0000
  H   H1866     1.0  0.94006  0.86328  0.58692  1.0000
  C   C1054     1.0  0.85657  0.89168  0.61189  1.0000
  C   C1055     1.0  0.72769  0.95746  0.57322  1.0000
  C   C1056     1.0  0.64185  0.58584  0.32675  1.0000
  H   H1867     1.0  0.65538  0.56704  0.46230  1.0000
  H   H1868     1.0  0.96757  0.64223  0.35183  1.0000
  C   C1057     1.0  0.70415  0.92423  0.58849  1.0000
  H   H1869     1.0  0.66560  0.57507  0.31356  1.0000
  C   C1058     1.0  0.88021  0.73999  0.43500  1.0000
  C   C1059     1.0  0.73864  0.50884  0.45894  1.0000
  H   H1870     1.0  0.86620  0.76977  0.43697  1.0000
  C   C1060     1.0  0.73200  0.89197  0.59950  1.0000
  H   H1871     1.0  0.97690  0.94704  0.58953  1.0000
  H   H1872     1.0  0.94262  0.78783  0.60504  1.0000
  H   H1873     1.0  0.51158  0.74189  0.51587  1.0000
  H   H1874     1.0  0.60611  0.70574  0.42042  1.0000
  H   H1875     1.0  0.95313  0.72651  0.63784  1.0000
  H   H1876     1.0  0.74574  0.94210  0.55701  1.0000
  H   H1877     1.0  0.69904  0.95509  0.52247  1.0000
  H   H1878     1.0  0.65762  0.95056  0.54496  1.0000
  C   C1061     1.0  0.63045  0.97898  0.49666  1.0000
  C   C1062     1.0  0.72339  0.58056  0.42009  1.0000
  H   H1879     1.0  0.75490  0.57481  0.42555  1.0000
  H   H1880     1.0  0.97045  0.56853  0.53572  1.0000
  H   H1881     1.0  0.68269  0.90939  0.57438  1.0000
  H   H1882     1.0  0.68756  0.93637  0.60651  1.0000
  H   H1883     1.0  0.73864  0.93185  0.33885  1.0000
  C   C1063     1.0  0.96758  0.61790  0.39340  1.0000
  H   H1884     1.0  0.96055  0.98666  0.31461  1.0000
  H   H1885     1.0  0.66259  0.52909  0.48751  1.0000
  H   H1886     1.0  0.61168  0.63689  0.46206  1.0000
  H   H1887     1.0  0.83076  0.97151  0.31382  1.0000
  H   H1888     1.0  0.87190  0.89318  0.59142  1.0000
  H   H1889     1.0  0.92622  0.56925  0.38521  1.0000
  H   H1890     1.0  0.86499  0.69754  0.55569  1.0000
  H   H1891     1.0  0.87615  0.52057  0.62733  1.0000
  N   N62       1.0  0.69757  0.52153  0.44980  1.0000
  C   C1064     1.0  0.96255  0.87176  0.57122  1.0000
  C   C1065     1.0  0.55056  0.55442  0.49481  1.0000
  C   C1066     1.0  0.93649  0.71344  0.35386  1.0000
  C   C1067     1.0  0.69823  0.54226  0.42195  1.0000
  H   H1892     1.0  0.59115  0.56209  0.38557  1.0000
  Fe  Fe121     1.0  0.51797  0.71058  0.35313  1.0000
  H   H1893     1.0  0.87361  0.67484  0.58919  1.0000
  H   H1894     1.0  0.74933  0.97028  0.58843  1.0000
  H   H1895     1.0  0.51294  0.52082  0.39712  1.0000
  H   H1896     1.0  0.95475  0.97040  0.64439  1.0000
  H   H1897     1.0  0.87194  0.54135  0.31163  1.0000
  H   H1898     1.0  0.50026  0.73513  0.47939  1.0000
  H   H1899     1.0  0.62796  0.60388  0.64492  1.0000
  H   H1900     1.0  0.84995  0.72042  0.31309  1.0000
  H   H1901     1.0  0.52462  0.52936  0.31174  1.0000
  H   H1902     1.0  0.86018  0.58292  0.81194  1.0000
  S   S238      1.0  0.65946  0.53647  0.84704  1.0000
  S   S239      1.0  0.81901  0.56870  0.75868  1.0000
  H   H1903     1.0  0.91427  0.62990  0.82480  1.0000
  H   H1904     1.0  0.91747  0.67343  0.74075  1.0000
  H   H1905     1.0  0.99837  0.60536  0.79846  1.0000
  S   S240      1.0  0.80156  0.92694  0.72062  1.0000
  H   H1906     1.0  0.86352  0.62640  0.72786  1.0000
  S   S241      1.0  0.66256  0.95149  0.88376  1.0000
  C   C1068     1.0  0.61454  0.69334  0.93147  1.0000
  C   C1069     1.0  0.87263  0.60248  0.79634  1.0000
  H   H1907     1.0  0.50952  0.55479  0.83307  1.0000
  S   S242      1.0  0.54431  0.81015  0.91709  1.0000
  S   S243      1.0  0.54034  0.67824  0.81670  1.0000
  C   C1070     1.0  0.90333  0.62920  0.80358  1.0000
  C   C1071     1.0  0.97453  0.75732  0.89757  1.0000
  H   H1908     1.0  0.51130  0.51624  0.80686  1.0000
  S   S244      1.0  0.95840  0.68825  0.79386  1.0000
  C   C1072     1.0  0.56166  0.98816  0.82919  1.0000
  S   S245      1.0  0.97169  0.84686  0.69965  1.0000
  H   H1909     1.0  0.68869  0.67695  0.90341  1.0000
  C   C1073     1.0  0.91597  0.86383  0.96104  1.0000
  C   C1074     1.0  0.86462  0.91047  0.94500  1.0000
  C   C1075     1.0  0.89433  0.88193  0.93932  1.0000
  H   H1910     1.0  0.84808  0.92387  0.92809  1.0000
  H   H1911     1.0  0.90038  0.87359  0.91795  1.0000
  C   C1076     1.0  0.63002  0.91205  0.89340  1.0000
  C   C1077     1.0  0.60637  0.89374  0.87280  1.0000
  C   C1078     1.0  0.58000  0.86261  0.87964  1.0000
  C   C1079     1.0  0.57697  0.84932  0.90719  1.0000
  C   C1080     1.0  0.60070  0.86753  0.92773  1.0000
  C   C1081     1.0  0.62705  0.89866  0.92093  1.0000
  H   H1912     1.0  0.60866  0.90353  0.85139  1.0000
  H   H1913     1.0  0.56233  0.84858  0.86361  1.0000
  H   H1914     1.0  0.59863  0.85756  0.94913  1.0000
  H   H1915     1.0  0.64501  0.91230  0.93703  1.0000
  C   C1082     1.0  0.84984  0.90660  0.71501  1.0000
  C   C1083     1.0  0.87497  0.91983  0.69373  1.0000
  C   C1084     1.0  0.91259  0.90199  0.68989  1.0000
  C   C1085     1.0  0.92560  0.87075  0.70716  1.0000
  C   C1086     1.0  0.90087  0.85824  0.72885  1.0000
  C   C1087     1.0  0.86325  0.87598  0.73266  1.0000
  H   H1916     1.0  0.86529  0.94355  0.68011  1.0000
  H   H1917     1.0  0.93153  0.91208  0.67317  1.0000
  H   H1918     1.0  0.91054  0.83463  0.74256  1.0000
  H   H1919     1.0  0.84425  0.86567  0.74933  1.0000
  S   S246      1.0  0.70281  0.98647  0.71347  1.0000
  C   C1088     1.0  0.60160  0.77936  0.82299  1.0000
  H   H1920     1.0  0.81785  0.96092  0.85191  1.0000
  H   H1921     1.0  0.50006  0.69622  0.71907  1.0000
  C   C1089     1.0  0.52540  0.69597  0.73381  1.0000
  H   H1922     1.0  0.56806  0.73991  0.74888  1.0000
  H   H1923     1.0  0.71117  0.91235  0.76484  1.0000
  H   H1924     1.0  0.99239  0.96626  0.67096  1.0000
  S   S247      1.0  0.76963  0.99506  0.90659  1.0000
  C   C1090     1.0  0.62853  0.57784  0.83899  1.0000
  C   C1091     1.0  0.59899  0.58938  0.85814  1.0000
  C   C1092     1.0  0.57215  0.62039  0.85191  1.0000
  C   C1093     1.0  0.57468  0.64043  0.82644  1.0000
  C   C1094     1.0  0.60512  0.62988  0.80777  1.0000
  C   C1095     1.0  0.63179  0.59869  0.81389  1.0000
  H   H1925     1.0  0.59635  0.57378  0.87775  1.0000
  H   H1926     1.0  0.54899  0.62816  0.86656  1.0000
  H   H1927     1.0  0.60806  0.64593  0.78839  1.0000
  H   H1928     1.0  0.65467  0.59056  0.79912  1.0000
  C   C1096     1.0  0.85794  0.60137  0.76903  1.0000
  C   C1097     1.0  0.87463  0.62697  0.74904  1.0000
  C   C1098     1.0  0.90522  0.65373  0.75630  1.0000
  C   C1099     1.0  0.91977  0.65505  0.78365  1.0000
  H   H1929     1.0  0.89718  0.53809  0.72016  1.0000
  C   C1100     1.0  0.88078  0.78660  0.66284  1.0000
  H   H1930     1.0  0.59869  0.99802  0.97188  1.0000
  H   H1931     1.0  0.55895  0.96106  0.74463  1.0000
  Fe  Fe122     1.0  0.68699  0.98771  0.66783  1.0000
  H   H1932     1.0  0.92657  0.76968  0.80475  1.0000
  C   C1101     1.0  0.85331  0.99143  0.77230  1.0000
  H   H1933     1.0  0.50888  0.97319  0.80652  1.0000
  C   C1102     1.0  0.87678  0.75574  0.71116  1.0000
  H   H1934     1.0  0.93734  0.82032  0.85773  1.0000
  H   H1935     1.0  0.52530  0.56734  0.67333  1.0000
  H   H1936     1.0  0.90100  0.80792  0.67351  1.0000
  C   C1103     1.0  0.50402  0.94849  0.84912  1.0000
  H   H1937     1.0  0.52008  0.75971  0.73954  1.0000
  H   H1938     1.0  0.51434  0.69063  0.75527  1.0000
  H   H1939     1.0  0.52735  0.95193  0.71486  1.0000
  H   H1940     1.0  0.93348  0.70758  0.93380  1.0000
  N   N63       1.0  0.54260  0.62221  0.72180  1.0000
  H   H1941     1.0  0.74472  0.64115  0.88054  1.0000
  H   H1942     1.0  0.90674  0.72879  0.67661  1.0000
  H   H1943     1.0  0.90419  0.77057  0.71878  1.0000
  H   H1944     1.0  0.85075  0.77500  0.71568  1.0000
  H   H1945     1.0  0.87317  0.72740  0.72271  1.0000
  H   H1946     1.0  0.94821  0.77691  0.90063  1.0000
  H   H1947     1.0  0.59049  0.73706  0.90375  1.0000
  H   H1948     1.0  0.83085  0.55158  0.70056  1.0000
  S   S248      1.0  0.74866  0.97311  0.65280  1.0000
  H   H1949     1.0  0.54254  0.51204  0.86706  1.0000
  C   C1104     1.0  0.93917  0.79135  0.84679  1.0000
  S   S249      1.0  0.71965  0.51407  0.77604  1.0000
  H   H1950     1.0  0.58234  0.96679  0.94333  1.0000
  H   H1951     1.0  0.85975  0.86113  0.65081  1.0000
  H   H1952     1.0  0.64998  0.65329  0.88451  1.0000
  C   C1105     1.0  0.96015  0.71403  0.89254  1.0000
  H   H1953     1.0  0.58954  0.68802  0.88984  1.0000
  H   H1954     1.0  0.69817  0.77651  0.86302  1.0000
  H   H1955     1.0  0.58467  0.75532  0.81243  1.0000
  H   H1956     1.0  0.54200  0.93203  0.81399  1.0000
  H   H1957     1.0  0.50388  0.90038  0.89829  1.0000
  C   C1106     1.0  0.72393  0.63626  0.86285  1.0000
  C   C1107     1.0  0.99501  0.57825  0.96455  1.0000
  C   C1108     1.0  0.61416  0.89663  0.67231  1.0000
  H   H1958     1.0  0.69744  0.82864  0.89962  1.0000
  H   H1959     1.0  0.54012  0.61814  0.76683  1.0000
  C   C1109     1.0  0.73390  0.91786  0.78121  1.0000
  H   H1960     1.0  0.75561  0.97012  0.76084  1.0000
  H   H1961     1.0  0.72168  0.90846  0.80168  1.0000
  H   H1962     1.0  0.67952  0.73985  0.92045  1.0000
  C   C1110     1.0  0.72038  0.80483  0.89973  1.0000
  H   H1963     1.0  0.74720  0.81621  0.88891  1.0000
  C   C1111     1.0  0.56462  0.84869  0.65571  1.0000
  H   H1964     1.0  0.93325  0.56322  0.96275  1.0000
  Fe  Fe123     1.0  0.77454  0.98997  0.95348  1.0000
  H   H1965     1.0  0.94136  0.82148  0.80665  1.0000
  H   H1966     1.0  0.89248  0.80668  0.81748  1.0000
  Fe  Fe124     1.0  0.99593  0.72646  0.76452  1.0000
  H   H1967     1.0  0.76051  0.89966  0.77619  1.0000
  H   H1968     1.0  0.72941  0.74556  0.88472  1.0000
  H   H1969     1.0  0.55421  0.74543  0.71247  1.0000
  H   H1970     1.0  0.67876  0.66675  0.83982  1.0000
  H   H1971     1.0  0.62979  0.71559  0.94479  1.0000
  H   H1972     1.0  0.59814  0.84268  0.69382  1.0000
  H   H1973     1.0  0.71657  0.97856  0.78579  1.0000
  Fe  Fe125     1.0  0.78448  0.52484  0.78597  1.0000
  C   C1112     1.0  0.84055  0.98052  0.84228  1.0000
  C   C1113     1.0  0.98217  0.77446  0.84741  1.0000
  H   H1974     1.0  0.98937  0.75728  0.91820  1.0000
  C   C1114     1.0  0.98288  0.98333  0.65234  1.0000
  H   H1975     1.0  0.84376  0.95997  0.77102  1.0000
  H   H1976     1.0  0.84211  0.60815  0.64710  1.0000
  H   H1977     1.0  0.88218  0.51672  0.97165  1.0000
  C   C1115     1.0  0.54324  0.73774  0.73365  1.0000
  C   C1116     1.0  0.51426  0.62156  0.69744  1.0000
  H   H1978     1.0  0.72854  0.79784  0.92165  1.0000
  H   H1979     1.0  0.85650  0.96295  0.82632  1.0000
  C   C1117     1.0  0.63366  0.72981  0.85597  1.0000
  S   S250      1.0  0.50288  0.70766  0.89228  1.0000
  C   C1118     1.0  0.84117  0.53908  0.68031  1.0000
  H   H1980     1.0  0.93348  0.51254  0.76060  1.0000
  H   H1981     1.0  0.63223  0.66552  0.93153  1.0000
  H   H1982     1.0  0.52790  0.63683  0.67926  1.0000
  H   H1983     1.0  0.70577  0.60937  0.86705  1.0000
  H   H1984     1.0  0.50874  0.87442  0.83736  1.0000
  H   H1985     1.0  0.63007  0.78418  0.81182  1.0000
  H   H1986     1.0  0.55150  0.97293  0.97372  1.0000
  H   H1987     1.0  0.88111  0.50648  0.76641  1.0000
  H   H1988     1.0  0.58064  0.95561  0.71054  1.0000
  H   H1989     1.0  0.91657  0.67214  0.90822  1.0000
  C   C1119     1.0  0.55703  0.66431  0.72613  1.0000
  H   H1990     1.0  0.98411  0.83294  0.88916  1.0000
  H   H1991     1.0  0.77318  0.50886  0.70462  1.0000
  S   S251      1.0  0.70934  0.97670  0.95934  1.0000
  H   H1992     1.0  0.52469  0.83920  0.79501  1.0000
  Fe  Fe126     1.0  0.71187  0.51030  0.82257  1.0000
  H   H1993     1.0  0.98462  0.69283  0.89715  1.0000
  H   H1994     1.0  0.65970  0.73353  0.84213  1.0000
  S   S252      1.0  0.95343  0.82838  0.95252  1.0000
  H   H1995     1.0  0.85296  0.99946  0.72709  1.0000
  H   H1996     1.0  0.91842  0.77038  0.85709  1.0000
  C   C1120     1.0  0.69728  0.67257  0.85861  1.0000
  C   C1121     1.0  0.60692  0.92093  0.64925  1.0000
  H   H1997     1.0  0.96102  0.76273  0.66534  1.0000
  S   S253      1.0  0.53762  0.80426  0.66184  1.0000
  H   H1998     1.0  0.55843  0.66098  0.93336  1.0000
  C   C1122     1.0  0.88004  0.74733  0.67992  1.0000
  C   C1123     1.0  0.57469  0.68419  0.94528  1.0000
  C   C1124     1.0  0.60925  0.76873  0.85354  1.0000
  C   C1125     1.0  0.60856  0.70960  0.90141  1.0000
  C   C1126     1.0  0.70501  0.76772  0.88475  1.0000
  C   C1127     1.0  0.92418  0.79758  0.81703  1.0000
  C   C1128     1.0  0.74452  0.96202  0.78172  1.0000
  C   C1129     1.0  0.77587  0.97116  0.80455  1.0000
  H   H1999     1.0  0.98500  0.64089  0.74654  1.0000
  C   C1130     1.0  0.59279  0.86095  0.67564  1.0000
  H   H2000     1.0  0.57292  0.67476  0.70710  1.0000
  H   H2001     1.0  0.87007  0.55403  0.67618  1.0000
  C   C1131     1.0  0.66836  0.75047  0.89993  1.0000
  C   C1132     1.0  0.57811  0.59722  0.71362  1.0000
  H   H2002     1.0  0.85372  0.72935  0.67380  1.0000
  C   C1133     1.0  0.55461  0.96747  0.72211  1.0000
  H   H2003     1.0  0.52926  0.57302  0.74958  1.0000
  C   C1134     1.0  0.61302  0.59592  0.73471  1.0000
  H   H2004     1.0  0.95036  0.70903  0.87074  1.0000
  H   H2005     1.0  0.58391  0.80714  0.82183  1.0000
  C   C1135     1.0  0.64458  0.56591  0.72556  1.0000
  Fe  Fe127     1.0  0.70350  0.98624  0.91336  1.0000
  H   H2006     1.0  0.97598  0.50489  0.94526  1.0000
  C   C1136     1.0  0.96351  0.98577  0.96651  1.0000
  H   H2007     1.0  0.59035  0.60750  0.69324  1.0000
  H   H2008     1.0  0.56913  0.56573  0.71040  1.0000
  H   H2009     1.0  0.74165  0.63074  0.84370  1.0000
  H   H2010     1.0  0.85026  0.79890  0.66553  1.0000
  H   H2011     1.0  0.97236  0.57322  0.75743  1.0000
  C   C1137     1.0  0.92526  0.70363  0.91154  1.0000
  H   H2012     1.0  0.60239  0.58711  0.75568  1.0000
  H   H2013     1.0  0.62798  0.62522  0.73615  1.0000
  H   H2014     1.0  0.64789  0.77548  0.90514  1.0000
  H   H2015     1.0  0.52568  0.93313  0.86289  1.0000
  H   H2016     1.0  0.62528  0.79405  0.86314  1.0000
  S   S254      1.0  0.77586  0.52524  0.83247  1.0000
  H   H2017     1.0  0.63247  0.53521  0.72585  1.0000
  H   H2018     1.0  0.65548  0.57283  0.70423  1.0000
  H   H2019     1.0  0.67022  0.56730  0.74011  1.0000
  H   H2020     1.0  0.63565  0.90565  0.68788  1.0000
  C   C1138     1.0  0.50172  0.57971  0.68707  1.0000
  H   H2021     1.0  0.60026  0.50062  0.88393  1.0000
  H   H2022     1.0  0.79895  0.94774  0.80299  1.0000
  H   H2023     1.0  0.57888  0.66566  0.74347  1.0000
  H   H2024     1.0  0.98145  0.74412  0.83817  1.0000
  C   C1139     1.0  0.99975  0.61913  0.73271  1.0000
  C   C1140     1.0  0.97619  0.61707  0.70546  1.0000
  S   S255      1.0  0.98778  0.73208  0.71834  1.0000
  H   H2025     1.0  0.61589  0.70559  0.84625  1.0000
  H   H2026     1.0  0.55661  0.53934  0.81895  1.0000
  H   H2027     1.0  0.57998  0.76560  0.86380  1.0000
  C   C1141     1.0  0.67008  0.67967  0.88427  1.0000
  H   H2028     1.0  0.71658  0.69838  0.85422  1.0000
  C   C1142     1.0  0.85673  0.92190  0.97252  1.0000
  H   H2029     1.0  0.76076  0.96631  0.82497  1.0000
  N   N64       1.0  0.64604  0.71781  0.88507  1.0000
  H   H2030     1.0  0.88484  0.96385  0.87305  1.0000
  C   C1143     1.0  0.52673  0.52885  0.82533  1.0000
  H   H2031     1.0  0.89926  0.72280  0.90674  1.0000
  C   C1144     1.0  0.89901  0.50534  0.72257  1.0000
  C   C1145     1.0  0.52793  0.95922  0.82263  1.0000
  H   H2032     1.0  0.99156  0.59753  0.69021  1.0000
  H   H2033     1.0  0.77986  0.54638  0.66484  1.0000
  C   C1146     1.0  0.81056  0.55390  0.65833  1.0000
  S   S256      1.0  0.63034  0.96787  0.64545  1.0000
  C   C1147     1.0  0.52451  0.60572  0.74825  1.0000
  C   C1148     1.0  0.81253  0.59902  0.65507  1.0000
  H   H2034     1.0  0.89891  0.98091  0.74118  1.0000
  H   H2035     1.0  0.90588  0.50765  0.93937  1.0000
  H   H2036     1.0  0.80683  0.61389  0.67540  1.0000
  C   C1149     1.0  0.96010  0.55245  0.97385  1.0000
  Fe  Fe128     1.0  0.76585  0.97548  0.69821  1.0000
  H   H2037     1.0  0.55612  0.71147  0.94653  1.0000
  H   H2038     1.0  0.95943  0.95563  0.95719  1.0000
  C   C1150     1.0  0.96807  0.50774  0.96776  1.0000
  H   H2039     1.0  0.94574  0.60567  0.70933  1.0000
  H   H2040     1.0  0.97394  0.64723  0.69624  1.0000
  H   H2041     1.0  0.64445  0.50126  0.92395  1.0000
  H   H2042     1.0  0.98866  0.60989  0.96953  1.0000
  C   C1151     1.0  0.57248  0.98829  0.95951  1.0000
  H   H2043     1.0  0.58060  0.97690  0.84649  1.0000
  C   C1152     1.0  0.87028  0.99127  0.86517  1.0000
  H   H2044     1.0  0.87589  0.99480  0.78897  1.0000
  H   H2045     1.0  0.89805  0.98410  0.92984  1.0000
  H   H2046     1.0  0.58068  0.99198  0.81047  1.0000
  H   H2047     1.0  0.57973  0.67310  0.96681  1.0000
  H   H2048     1.0  0.99976  0.57555  0.94170  1.0000
