data_image0
_chemical_formula_structural       C2HFeS2FeS2FeSFeS3FeS2FeS2FeSFeS3HCSCH2CFeS2FeS2FeS2FeSFeS3FeS2FeS2FeSFeS3H2CH2C6H5C2H5C6H4C6H3C6H4C6H4C6H10C3H4CH2CH3CH2C3H2C3H2CNC12H17CH17CHFeHCH4CNC8H11CH3NC9NH20C3H4NC12H15CHCHCH2C2HCHCHCH2C3H8CH2CHSC2H5CFeH4NH2C2H3CH8C5HC2HC2HSHCHCH2C2H2CH3C2HC3H2CH7SH2C2H5CH6C2H2C2H2C2HCH3NHC2H2CHCH3CH8CH2NH4C2HCH7C2HC2HC2HCHCHCH3SCSCHCH4CH8CH8CHNH4CH4CHC2HC2HCHFeNHCH6SFeSFeS2FeSFeSHS2FeSFeSC2HFe2S2FeS2Fe2S3FeS2FeCS2HFeHS2H2FeC7H4C6H5C3HCHSC7H5C2H3CHCH2CSCSH4CHCH2C4H9SH8SHCNH3SHCH4C3H3NH2CHSCH2C2H2C3H3CHC2HC2SHCHCH12CHC2H2NC3H3C3H2CH3CHNCH2C3H3CH3CH3CHCH6C2H6CNC12H23CFeH7C2H3C2H4CH4C2H2CSHCHC3HCH5C2NC12H26C3NCH3NHC2H3SCH2CH2CH3C2SHCH2CHC2H5CH9C2H8CH2CH2CHCH3CH4CHC2HCH2FeCFeSHFeSHCSFeS2FeS2FeSFeS3FeS2FeS2FeSFeS3FeSHFeS2FeSFeS3HC6H4NCHC5H2C7H4C6H4CH2C2H5C5H4C6H7C2H2CH2CHNH8C2H9CH8CHCHC2HCSHC2HCHCH3SCH2CH2C2H5NC11H21C3HNHC4HC6HCH2CH15C2HCH2C2HCFeHC2HSHNH15CH2CH6CHCHNH2CH2C2H3CH2CH2CH3CH2CHC2HCHC2H8CNC12H28CH2CSH2NH5C2H2C2H2CH4CH3CH4CH2CH7S2FeCHCH11C2H4C3H5C3H3SCHC2HCH2CH2FeSH2C2H5SH3CH8CHCHCH3CH2FeHSFeHCHCHC2H7CHCH2CSCH2SH6C2HCH2CHC2SH4CFeS2FeH2FeHS2HCHCH4CHCH6FeC2H4CH2NHCH5C2NH4CH6CH2CH2CH2CH3CH6CH2CH2CSCH2CH3C3HCH2FeH2CHC2H4CH4CHCHC2H2C2HCHCSC3HSHCH4C2HCH4CH3CH2CNHCHNC2H4CH4CHCHC3H3FeS2NSFeSFeSHSFeS2FeS2CHFeNS2FeS2FeS2FeSFeS3FeS2FeSCFeSFeS3H5CH5N2CHCH8C3H2C6H4C6H5C2HC2H3CH3SCHC6H4C6H5CH13C2H3SHCH2CHC2HCH3CH6CH2CH5CH4CHC2H3C2HC2H12NC3H2CH2NC10H14CHC2H5NC7H4CH2CH2CH2CH2CH7SCHCH7C2H2C2H2SHCHCH2CH2CH10CH7C2H4CHC2H2SH2C3H2CHCFeC3H2NC12H11CH2CH8CH3CHFeCH4C5H2C2H7CH3C2H2CH3CH3CH2CH2CH2C2H5FeS2HFeCS2FeS2FeS2FeSFeS3FeS2FeS2FeSFeS3FeS2FeS2FeCFeS3CH3CH3C2H2C6H3C2HC6H6C7H2C2H3CH2C8H4C7H5C3H4CH5CNSH5CH2C2H2CHC2HCHNH3CH8C2HC4H10NC7H6CH9CH4CHC5HCH2C2HFeCHFeH4CH7C2H5CNC12H28NC12H19CHNH13CH2CHCH10CH6SHCH3C2HC3H3C2H8C2H4CH4C4H2CH4SHCHCHC2HCH6SHCNH9C2HCNH3C3H7C2H2CH2SH2CH2CH4SH3FeS2HFeCHSFeS2FeS2FeSFeS3FeS2FeS2FeSFeS3HSCFeSNFeSFeSHSFeS2FeS2FeHFeS3C2HC4HCH4C7H3C5H3C6H5C2H4C6H4C2HCHC6H4C6H8CHC4H4CH2SH3NHFeC3H4C2H4CH9CH3CSCH2FeNC10HC2SH20CSCH3C2H8C2H3CHCH9CHCHCHCHCH5C2H6CHNH5CH3CNC12H28NC11H22C2HCH2NHCH5CH5CH3C2H3CH5CHCHCHCHCH5CHSC6H3C2H7C2HC2HC3H2C2NHC2H3CH3NCH2C2H5CH5CH4CNH5CH3FeS2FeS2FeSFeCS2FeS2FeS2FeHFeH2SHC2H9CSCH3C7HNH2CH2C6H6CH2CHNC9HC2H19C2H7CH7C3H3C3H3CH3CH6CH6SH3C3H7CH3CH8CHNSH15CHC3H6CH2CHC2HCH2C4H2CHC3H2SHCHC3H3SH5CHC2HCNC2HC2HCHCHCH3FeSCFeSNFeHFeSCSFeS2FeSHFe2SCSFeS2FeS2FeSFeS3FeS2FeS2FeSFeS3C6H4C6H5NC4H4C6H4C3H2CH2C2H4NCH2CH6CH5CHCH2CSH6CHC3HC4H2C2NH4CH4C2H2CH2CH5CH8CH5CH4C2H4CHC2HSHCH3C2H3CHCNHCH2CHC3HCH6CH6CH2C5H2C3H6C2H6CH6CH11C2HCNC12H26SH2C2HC3H2C5SH6C3H2CH5NHCH6C2H2CH4C2H2CH3NCHCH2CH2C3HC2HC2HC3HC2H8CHCHCHCH3CH3NH3CH7CH3CSH3CHC2H5CHC3HC2HCH12C2HFeHSH2S2FeSHFeS2FeSHSH3SC2HCFeSHSHFeS2FeSFeSCFeSFeSHSFeSHFeS2FeSFeS3FeS2FeS2FeHFeS3HC7H4C5H3CFeHC4HC6HCH3C5H4NC2H6CHC2HC6H3SC6H4SH2C3H2NHCH4CHC2HCHCHNC12H27FeHCHSHCH5FeSC3H3CHC4SH3CH2CSH3FeCSH2CH8CH6SHCH3CH2C8H2C2HCHFeNHC2HCHCHCH2NCH13CH5SH2CH3CH3CHFeH6NCSCH2NC5NSH13C3H11C3H5CH3CH9CH6CH5SC3H10C4HCHSCH3CHC4HCHCH3SCHCH2NC2H4CH2C2NC2HCH7CHC2H4C4HCH3CHCH2CFeH3FeSCFeS2FeSFeS3FeSHFeSCHFeS2FeS2FeS2FeSFeS3FeSHFeS2FeSFeSFeS2FeS2FeCFeS3FeS2FeSCFeSFeSCHC6H5CHC6H5C6H4C6H3C7H4C6HCH2C6H7CNH2CHCHCH2CH4CH3CHNC12H29CH4CH3NC8HC4H13SH2C2SC2H6NC8H19C2H4SH3NC11H30NH3CHC3HC2H4CH3CH5C2H6C2H3CH10C2H7C3H2CH2C2S2HS4HCH2CHC2HCSCHFeC2H6C2HCH8CH2C5HCH2CHCH5CH8CH2CHCH5CHCHCHC3HC2H3C2H2CH3C2H6CH13C2HCH5NHCH4CHC2HCHCHCH3CNCH2CHCHCH2CH2SFeS2FeSHFeSFeS3FeH2FeS2FeSFeCS2FeS2FeS2FeHFeS3FeS2FeHSFeSFeHS2CH3C7HCH2C6H5C7H4C6H5C2HSCH2C3HSHC2H5CH3C2H3CH2CHNC7HC2HCHCH12CH2CH11C2H3CHCH3CNH5CH3CH6C2H2CH3CHCHCH3CHSH2CH5SH3NHCSCNCHCH4NC12H23CH3CH2CH3CHCH3SCH3CH7CH2C4H5C2H3C2HCHFeSHS2FeHFeS2HC2S2C2HCHCH6C3HC3NHC4H2C4H3C2HCSCNCH3C2SHC2HCH6CH8SH4CHC2H5NC4SC2H2CNCH15CH9CH2CHFeHC3H2CHCHCFeCSH2CH3CH3CFeH5C2HCFeH2CH5SCH4SH3C2H5CH4CH2C2H5C3H3C2HCHSCH3SHCHSHCHCHCH4FeS2FeH2SFeS2FeS2Fe2S3FeS2FeSCFeSFeS3FeSHFeS2FeSFeS3FeSCFeS2FeSFeS3H2CHC7H3C2HC6H4C6H4C6H5C3HSHC7H4CH8C5NC3H7CH2CH4NHNC12H24SH3NC12H30SCSCH3NC12H29CHCH3NC2HC8NH5CHCH2CH2CH9NCHCH4CHSHC2HCH2CHNCH5CH17CH2CH9CHC2SCH5CNH4CH4FeC2H7CHC3H2CSC3HCHCH2CH3C2H5C3H6C2HCH3C3H2C2H2CH3C2HCH4C2H3CHCH3CHCHCH2CHCH2SCH4FeCH3C3H5CHCHCH2CH5CH3NHSC2HCH2CH4CH2CHCHFeSH2FeSHS2HS2FeSH2SH2SFeS2FeS2FeCFeS3FeS2FeS2FeSFeS3HC2H2C2HS2C2H2C2H2CHNSFeH2CH3C6H4C6H2CHC6H4CH2C5HCH4C6H6CHC2H3C2HNC12H28NC12H28SHCH6CSCH2CH2C3H4CH8CH2CHFeHCHC2H2FeH5CHSC2HCHSHC2H3NH4CH2CH5C2HCNHCH3CH8CH4C2H2CHC2HC2HNFeHC2H4SC2HC2H2C2HCH3C2H2CHC3NH6CH2C2FeH6CH3CHC2H2C2H7C3NCH4SHC3H2C2H3CH2CH5CH2SH5SH2CH8CH3CH2CH2CSHFeS2H2Fe2SHSH2CHFeS2FeS2FeSFeS3FeS2FeS2FeSFeS3CFeS2FeSHFeSFeS3C6HC6H6C6H4C6H4C2H2CH2CHC2H4SC2H3C2H6CHCH4C6H4CHCH2SHC2H4SCH4CH2C2HCH2C3H3CH2SHNC3H3CH3C3H5C2H3C2H4CHCHCH4C4H7CH4CHC4HCH8CH2CH2CHNH3CNC2SCH6CHFeH9C3HC2H2SH2CHNH2CH8CNH6CNC12H26CH2CH2CNH2CH3CH2CH8C2H3CH6C3H3CHCH2CHCH3C2NC2HCFeSHFeS2FeSFeS3HCH2CH5CHC2H4CH2CH5CH6CHC2H3C2H5CH5CH2CH2CH2CHCHCNCHNC3H7CH3CH2C3HCH2C2HC3H6CH6C2H2C4H2C4HNH2C3HCHC3HCHC2H2NHNCHCHCH2NHCHC2H5C3H4CHC2H3C3H5CH5CH7CH3CHSCH2CH5CSCHC2H2C2H2CH8FeS2FeSHFeSCS2H2C2HCH2CHC2SNHC2HCH4CH3CH2CH6CNHNH2C2NCH5CHC2H3C2H2C2H14CH2C2FeCH6C2HC4HCH4CH13CHC2HC2HSCH2CH8CH4C2HCHC6H2C2H2C2H2CHCHC3NH2CHCH5CHC2H2CH4SH2SH2CH12CFeS3FeHFeS2H2S2FeS2FeS2FeSFeS3FeS2FeS2FeCFeS3H2CHCHCH4CH3CH4C7HCH2C6H4C6H4CHC4H3C2H3CH2CHCNHC2H2C2H2CH3NHSCHCH4CH4CH4CH3CHCH3C2NC2HSH4CHCH2CH3CHCH2CH2FeNHCH5FeHC3H4CH5CHCH2CH2C2H2CHCH5C3HCH2CHC2HCHNCHC2H7CH7CHCH4CSH3CH2C2H8CH2CH4FeCH3NHCH2NCFeC2HC2HCHC2H3CH5CH3CHC4HNH13CSCHCH9CFeCH3CHCHCHC2H4CH4CH2CH3CH2NHSC2HCHCHCHC3H2C2SH2CHC2H2CSFeS2FeSFeSFeS3FeS2FeSCFeSFeS3HFeS2FeH2SH2CFeS2FeSFeSFeS3H2CHC6H3CSC3HC2HC2H3CH2C7H5C2H2C6H5CH2C6H6C3H4NHNC5HC4H7CH4CH12C2HC2NC4HC2SH7C2H2C2HCHNC10H24CH2SH5C2H2CHC6H5CSCH2NCHCH4CHCH4CNC8HC3H18CH9C2HFeCH7CH6SH6CH2CH8CH2CH8CH2CH2C3HNHCH4C3H4CHCH6CH3CHC3H6CHCHCHCH2C2H4C2H5CH2C2HCH4CH3CHC2H3CSH2CHCH2SHCHC3H8SCHCHCHCHSH2FeS2FeSHSHFeS2FeS2FeSFeS3FeS2FeS2FeSFeS3HCHSFeS2FeS2FeSFeS3FeS2FeS2FeSFeS3C6H4C6H4C4HCHC8H5SHC6H4C6H4C2HNH7C6H4CH2C3H4C2H4C5H2C4H8NC11H25C5H16CHCH2CHCH3CH3CHCHCH6NH7C4HCH2C4H2C2H2C2H2CH3CH13CH3CH4CHCFeC2H2NCH3SHCH2C3H6C4H8C2H8CH3CHCHNCHCH9C4H3CH2CHC2HC5HC2HSHCH2C2HC2H2CH2C2HCH6C2H5CH2CH3CH3FeH7CHCHCH3CH2CHNC3H4CH2CH2NC2H2CH2CH3NH4SNCH2C2H3NC4H3CHC3H6CHC2HC2HCH6FeHCH2CHC2HCH13C2H3CHC2H2C3H
_chemical_formula_sum              "C2880 H5120 Fe320 S640 N160"
_cell_length_a       58.6209
_cell_length_b       58.8252
_cell_length_c       105.004
_cell_angle_alpha    77.9875
_cell_angle_beta     78.0843
_cell_angle_gamma    78.3964

_space_group_name_H-M_alt    "P 1"
_space_group_IT_number       1

loop_
  _space_group_symop_operation_xyz
  'x, y, z'

loop_
  _atom_site_type_symbol
  _atom_site_label
  _atom_site_symmetry_multiplicity
  _atom_site_fract_x
  _atom_site_fract_y
  _atom_site_fract_z
  _atom_site_occupancy
  C   C1        1.0  0.29907  0.44968  0.08560  1.0000
  C   C2        1.0  0.06605  0.09019  0.99776  1.0000
  H   H1        1.0  0.02289  0.23614  0.00113  1.0000
  Fe  Fe1       1.0  0.21365  0.18230  0.08878  1.0000
  S   S1        1.0  0.24790  0.19633  0.08241  1.0000
  S   S2        1.0  0.19870  0.18547  0.07001  1.0000
  Fe  Fe2       1.0  0.21835  0.17542  0.11806  1.0000
  S   S3        1.0  0.25228  0.19015  0.11338  1.0000
  S   S4        1.0  0.20396  0.16456  0.13989  1.0000
  Fe  Fe3       1.0  0.23479  0.21796  0.09855  1.0000
  S   S5        1.0  0.23426  0.25748  0.09154  1.0000
  Fe  Fe4       1.0  0.26193  0.16739  0.09766  1.0000
  S   S6        1.0  0.29598  0.14141  0.09556  1.0000
  S   S7        1.0  0.19985  0.20515  0.10433  1.0000
  S   S8        1.0  0.22890  0.15144  0.10298  1.0000
  Fe  Fe5       1.0  0.25619  0.41485  0.09793  1.0000
  S   S9        1.0  0.22238  0.44054  0.09966  1.0000
  S   S10       1.0  0.29173  0.42178  0.08629  1.0000
  Fe  Fe6       1.0  0.23346  0.37407  0.11473  1.0000
  S   S11       1.0  0.19766  0.39660  0.11826  1.0000
  S   S12       1.0  0.24200  0.33534  0.12368  1.0000
  Fe  Fe7       1.0  0.20564  0.41131  0.09653  1.0000
  S   S13       1.0  0.17800  0.41979  0.08320  1.0000
  Fe  Fe8       1.0  0.21725  0.42401  0.12121  1.0000
  S   S14       1.0  0.20225  0.44823  0.13639  1.0000
  S   S15       1.0  0.24008  0.38704  0.09287  1.0000
  S   S16       1.0  0.25234  0.40013  0.11959  1.0000
  H   H2        1.0  0.27306  0.06019  0.02894  1.0000
  C   C3        1.0  0.29572  0.99889  0.98949  1.0000
  S   S17       1.0  0.24661  0.01227  0.20009  1.0000
  C   C4        1.0  0.02336  0.36557  0.02637  1.0000
  H   H3        1.0  0.19952  0.41443  0.01123  1.0000
  H   H4        1.0  0.02818  0.27724  0.02139  1.0000
  C   C5        1.0  0.27207  0.23794  0.22034  1.0000
  Fe  Fe9       1.0  0.23300  0.05104  0.19450  1.0000
  S   S18       1.0  0.22545  0.06108  0.17338  1.0000
  S   S19       1.0  0.26373  0.06267  0.19945  1.0000
  Fe  Fe10      1.0  0.10761  0.15362  0.03462  1.0000
  S   S20       1.0  0.12465  0.17751  0.01729  1.0000
  S   S21       1.0  0.12086  0.14026  0.05422  1.0000
  Fe  Fe11      1.0  0.06558  0.15322  0.02085  1.0000
  S   S22       1.0  0.07969  0.17722  0.00261  1.0000
  S   S23       1.0  0.03067  0.13906  0.02546  1.0000
  Fe  Fe12      1.0  0.11518  0.15464  0.00499  1.0000
  S   S24       1.0  0.14094  0.14468  0.98684  1.0000
  Fe  Fe13      1.0  0.08799  0.19777  0.01647  1.0000
  S   S25       1.0  0.07480  0.23666  0.01691  1.0000
  S   S26       1.0  0.10060  0.12927  0.02243  1.0000
  S   S27       1.0  0.07139  0.17521  0.03460  1.0000
  Fe  Fe14      1.0  0.12317  0.39989  0.01124  1.0000
  S   S28       1.0  0.10596  0.39420  0.03273  1.0000
  S   S29       1.0  0.13150  0.43706  0.00279  1.0000
  Fe  Fe15      1.0  0.12574  0.34798  0.00966  1.0000
  S   S30       1.0  0.11038  0.33886  0.03104  1.0000
  S   S31       1.0  0.13651  0.31854  0.99765  1.0000
  Fe  Fe16      1.0  0.08384  0.37176  0.02688  1.0000
  S   S32       1.0  0.04511  0.36803  0.03541  1.0000
  Fe  Fe17      1.0  0.13384  0.36193  0.03466  1.0000
  S   S33       1.0  0.15924  0.34956  0.04940  1.0000
  S   S34       1.0  0.09862  0.38023  0.00523  1.0000
  S   S35       1.0  0.15161  0.36828  0.01347  1.0000
  H   H5        1.0  0.23472  0.21457  0.05272  1.0000
  H   H6        1.0  0.29863  0.45483  0.20827  1.0000
  C   C6        1.0  0.02542  0.37354  0.01273  1.0000
  H   H7        1.0  0.16535  0.44083  0.02297  1.0000
  H   H8        1.0  0.04077  0.38111  0.00741  1.0000
  C   C7        1.0  0.09286  0.25867  0.01151  1.0000
  C   C8        1.0  0.08470  0.28049  0.01564  1.0000
  C   C9        1.0  0.09801  0.29881  0.01145  1.0000
  C   C10       1.0  0.11970  0.29554  0.00299  1.0000
  C   C11       1.0  0.12783  0.27382  0.99865  1.0000
  C   C12       1.0  0.11444  0.25538  0.00291  1.0000
  H   H9        1.0  0.06782  0.28343  0.02204  1.0000
  H   H10       1.0  0.09122  0.31565  0.01456  1.0000
  H   H11       1.0  0.14452  0.27126  0.99199  1.0000
  H   H12       1.0  0.12069  0.23878  0.99943  1.0000
  H   H13       1.0  0.15204  0.27295  0.09634  1.0000
  C   C13       1.0  0.00698  0.14425  0.01649  1.0000
  C   C14       1.0  0.00883  0.15579  0.00335  1.0000
  H   H14       1.0  0.22070  0.32406  0.15467  1.0000
  H   H15       1.0  0.19298  0.10965  0.08281  1.0000
  H   H16       1.0  0.02489  0.16248  0.99847  1.0000
  H   H17       1.0  0.99731  0.43962  0.04427  1.0000
  H   H18       1.0  0.17919  0.28336  0.09572  1.0000
  C   C15       1.0  0.17376  0.40025  0.07352  1.0000
  C   C16       1.0  0.15420  0.40621  0.06699  1.0000
  C   C17       1.0  0.14988  0.39104  0.05934  1.0000
  C   C18       1.0  0.16500  0.36965  0.05826  1.0000
  C   C19       1.0  0.18485  0.36384  0.06461  1.0000
  C   C20       1.0  0.18935  0.37919  0.07211  1.0000
  H   H19       1.0  0.14213  0.42254  0.06798  1.0000
  H   H20       1.0  0.13454  0.39568  0.05454  1.0000
  H   H21       1.0  0.19676  0.34745  0.06376  1.0000
  H   H22       1.0  0.20461  0.37455  0.07698  1.0000
  C   C21       1.0  0.21707  0.45552  0.14775  1.0000
  C   C22       1.0  0.23872  0.44255  0.15062  1.0000
  C   C23       1.0  0.24954  0.44860  0.15998  1.0000
  C   C24       1.0  0.13154  0.47307  0.03183  1.0000
  C   C25       1.0  0.24423  0.46485  0.00335  1.0000
  C   C26       1.0  0.22874  0.03913  0.99567  1.0000
  H   H23       1.0  0.24692  0.42771  0.14577  1.0000
  H   H24       1.0  0.26621  0.43838  0.16221  1.0000
  H   H25       1.0  0.17068  0.29727  0.01525  1.0000
  C   C27       1.0  0.17770  0.17146  0.06606  1.0000
  C   C28       1.0  0.17550  0.17438  0.05272  1.0000
  C   C29       1.0  0.15829  0.16476  0.04899  1.0000
  C   C30       1.0  0.14311  0.15204  0.05857  1.0000
  C   C31       1.0  0.14560  0.14866  0.07191  1.0000
  C   C32       1.0  0.16272  0.15849  0.07567  1.0000
  H   H26       1.0  0.18709  0.18432  0.04523  1.0000
  H   H27       1.0  0.15678  0.16709  0.03869  1.0000
  H   H28       1.0  0.13390  0.13880  0.07938  1.0000
  H   H29       1.0  0.16400  0.15638  0.08599  1.0000
  C   C33       1.0  0.21222  0.13592  0.14894  1.0000
  C   C34       1.0  0.20969  0.13268  0.16279  1.0000
  C   C35       1.0  0.21466  0.11002  0.17037  1.0000
  C   C36       1.0  0.22159  0.09022  0.16419  1.0000
  C   C37       1.0  0.22432  0.09345  0.15032  1.0000
  C   C38       1.0  0.21995  0.11618  0.14272  1.0000
  H   H30       1.0  0.20362  0.14778  0.16770  1.0000
  H   H31       1.0  0.21234  0.10780  0.18102  1.0000
  H   H32       1.0  0.22944  0.07827  0.14545  1.0000
  H   H33       1.0  0.22170  0.11838  0.13211  1.0000
  C   C39       1.0  0.23673  0.27854  0.10078  1.0000
  C   C40       1.0  0.24482  0.27213  0.11288  1.0000
  C   C41       1.0  0.24673  0.28968  0.11974  1.0000
  C   C42       1.0  0.24041  0.31369  0.11462  1.0000
  C   C43       1.0  0.23220  0.32003  0.10259  1.0000
  C   C44       1.0  0.23048  0.30256  0.09571  1.0000
  H   H34       1.0  0.24968  0.25368  0.11689  1.0000
  H   H35       1.0  0.25297  0.28462  0.12910  1.0000
  H   H36       1.0  0.22693  0.33841  0.09863  1.0000
  H   H37       1.0  0.22395  0.30781  0.08649  1.0000
  H   H38       1.0  0.20429  0.28495  0.02744  1.0000
  H   H39       1.0  0.20958  0.45794  0.21798  1.0000
  H   H40       1.0  0.20026  0.24966  0.11742  1.0000
  H   H41       1.0  0.15017  0.29761  0.03059  1.0000
  H   H42       1.0  0.19481  0.46395  0.04457  1.0000
  H   H43       1.0  0.28877  0.34470  0.11285  1.0000
  C   C45       1.0  0.00139  0.32258  0.97368  1.0000
  C   C46       1.0  0.17684  0.42617  0.98877  1.0000
  C   C47       1.0  0.15958  0.44335  0.99416  1.0000
  H   H44       1.0  0.22927  0.37825  0.01697  1.0000
  H   H45       1.0  0.17327  0.40843  0.98996  1.0000
  H   H46       1.0  0.16852  0.27033  0.02680  1.0000
  H   H47       1.0  0.30789  0.39685  0.06377  1.0000
  C   C48       1.0  0.28333  0.46683  0.09187  1.0000
  H   H48       1.0  0.31421  0.46343  0.15044  1.0000
  H   H49       1.0  0.05852  0.07377  0.99888  1.0000
  C   C49       1.0  0.06351  0.32491  0.97928  1.0000
  H   H50       1.0  0.19947  0.07770  0.99923  1.0000
  H   H51       1.0  0.17757  0.26185  0.14483  1.0000
  H   H52       1.0  0.28739  0.16193  0.06909  1.0000
  C   C50       1.0  0.28384  0.05910  0.12264  1.0000
  H   H53       1.0  0.25928  0.22843  0.05334  1.0000
  H   H54       1.0  0.25586  0.22144  0.03798  1.0000
  C   C51       1.0  0.15219  0.11554  0.98403  1.0000
  C   C52       1.0  0.14674  0.09592  0.99344  1.0000
  C   C53       1.0  0.15509  0.07306  0.99056  1.0000
  H   H55       1.0  0.13595  0.09837  0.00288  1.0000
  H   H56       1.0  0.15029  0.05798  0.99776  1.0000
  C   C54       1.0  0.19521  0.10529  0.10333  1.0000
  C   C55       1.0  0.30533  0.35226  0.11061  1.0000
  C   C56       1.0  0.19214  0.11372  0.01178  1.0000
  H   H57       1.0  0.15521  0.30277  0.08847  1.0000
  H   H58       1.0  0.19790  0.22941  0.13287  1.0000
  C   C57       1.0  0.20514  0.11308  0.08875  1.0000
  N   N1        1.0  0.09924  0.23633  0.05518  1.0000
  C   C58       1.0  0.11541  0.22501  0.04419  1.0000
  C   C59       1.0  0.08069  0.22125  0.06220  1.0000
  C   C60       1.0  0.08655  0.25960  0.04884  1.0000
  C   C61       1.0  0.11275  0.24118  0.06482  1.0000
  C   C62       1.0  0.12776  0.21952  0.07203  1.0000
  C   C63       1.0  0.13525  0.23861  0.03598  1.0000
  C   C64       1.0  0.06751  0.27375  0.05819  1.0000
  C   C65       1.0  0.08824  0.19410  0.06379  1.0000
  C   C66       1.0  0.06868  0.18124  0.07232  1.0000
  C   C67       1.0  0.14500  0.22687  0.07887  1.0000
  C   C68       1.0  0.15092  0.22497  0.02558  1.0000
  C   C69       1.0  0.05436  0.29551  0.05030  1.0000
  H   H59       1.0  0.10475  0.22213  0.03719  1.0000
  H   H60       1.0  0.12437  0.20716  0.04795  1.0000
  H   H61       1.0  0.07320  0.22564  0.07221  1.0000
  H   H62       1.0  0.06547  0.22513  0.05677  1.0000
  H   H63       1.0  0.07772  0.25654  0.04108  1.0000
  H   H64       1.0  0.09918  0.27179  0.04382  1.0000
  H   H65       1.0  0.12419  0.25457  0.05989  1.0000
  H   H66       1.0  0.10040  0.24931  0.07282  1.0000
  H   H67       1.0  0.13837  0.20791  0.06519  1.0000
  H   H68       1.0  0.11600  0.20928  0.07979  1.0000
  H   H69       1.0  0.12781  0.25586  0.03056  1.0000
  H   H70       1.0  0.14684  0.24143  0.04242  1.0000
  H   H71       1.0  0.07584  0.28010  0.06507  1.0000
  H   H72       1.0  0.05417  0.26300  0.06406  1.0000
  H   H73       1.0  0.09194  0.18864  0.05398  1.0000
  H   H74       1.0  0.10431  0.18780  0.06828  1.0000
  H   H75       1.0  0.20597  0.98813  0.01232  1.0000
  C   C70       1.0  0.98710  0.36267  0.01274  1.0000
  H   H76       1.0  0.07454  0.16191  0.07297  1.0000
  H   H77       1.0  0.15364  0.21113  0.08508  1.0000
  H   H78       1.0  0.15902  0.23447  0.07135  1.0000
  H   H79       1.0  0.13571  0.23982  0.08533  1.0000
  H   H80       1.0  0.16379  0.23579  0.01918  1.0000
  H   H81       1.0  0.16088  0.20845  0.03032  1.0000
  H   H82       1.0  0.14011  0.22064  0.01920  1.0000
  H   H83       1.0  0.04430  0.29023  0.04382  1.0000
  H   H84       1.0  0.19684  0.45754  0.01140  1.0000
  H   H85       1.0  0.06690  0.30697  0.04411  1.0000
  H   H86       1.0  0.99668  0.31091  0.00299  1.0000
  H   H87       1.0  0.29228  0.31836  0.08980  1.0000
  H   H88       1.0  0.21502  0.42223  0.18237  1.0000
  H   H89       1.0  0.24228  0.34128  0.04378  1.0000
  H   H90       1.0  0.20636  0.36599  0.02942  1.0000
  H   H91       1.0  0.29809  0.05101  0.11538  1.0000
  H   H92       1.0  0.30302  0.44039  0.05739  1.0000
  C   C71       1.0  0.19659  0.40298  0.02103  1.0000
  H   H93       1.0  0.13988  0.27660  0.14796  1.0000
  Fe  Fe18      1.0  0.24277  0.06182  0.22010  1.0000
  H   H94       1.0  0.02595  0.20516  0.00026  1.0000
  C   C72       1.0  0.28819  0.33787  0.08778  1.0000
  H   H95       1.0  0.00910  0.37867  0.99548  1.0000
  H   H96       1.0  0.26123  0.31809  0.03576  1.0000
  H   H97       1.0  0.19039  0.01826  0.18966  1.0000
  H   H98       1.0  0.24187  0.43279  0.19446  1.0000
  C   C73       1.0  0.06248  0.34937  0.98300  1.0000
  N   N2        1.0  0.17091  0.31124  0.13430  1.0000
  C   C74       1.0  0.18775  0.30959  0.14369  1.0000
  C   C75       1.0  0.17783  0.29042  0.12710  1.0000
  C   C76       1.0  0.17302  0.33355  0.12422  1.0000
  C   C77       1.0  0.14554  0.31313  0.14127  1.0000
  C   C78       1.0  0.18459  0.33096  0.15078  1.0000
  C   C79       1.0  0.16179  0.33603  0.11171  1.0000
  C   C80       1.0  0.18806  0.26630  0.13490  1.0000
  C   C81       1.0  0.16215  0.36059  0.10339  1.0000
  H   H99       1.0  0.20624  0.30721  0.13825  1.0000
  H   H100      1.0  0.16262  0.28802  0.12295  1.0000
  H   H101      1.0  0.19206  0.29389  0.11844  1.0000
  H   H102      1.0  0.19194  0.33534  0.12068  1.0000
  H   H103      1.0  0.16485  0.34938  0.12881  1.0000
  H   H104      1.0  0.14000  0.32971  0.14543  1.0000
  H   H105      1.0  0.13352  0.31470  0.13411  1.0000
  H   H106      1.0  0.18780  0.34718  0.14356  1.0000
  H   H107      1.0  0.14317  0.33318  0.11426  1.0000
  H   H108      1.0  0.17184  0.32318  0.10535  1.0000
  H   H109      1.0  0.20628  0.26666  0.13626  1.0000
  C   C82       1.0  0.31447  0.34748  0.12388  1.0000
  H   H110      1.0  0.18056  0.36423  0.10040  1.0000
  H   H111      1.0  0.15461  0.36178  0.09435  1.0000
  H   H112      1.0  0.15141  0.37432  0.10899  1.0000
  N   N3        1.0  0.24042  0.10224  0.07031  1.0000
  C   C83       1.0  0.26581  0.08993  0.06878  1.0000
  C   C84       1.0  0.23982  0.12815  0.06475  1.0000
  C   C85       1.0  0.23078  0.10017  0.08495  1.0000
  C   C86       1.0  0.22496  0.09175  0.06398  1.0000
  C   C87       1.0  0.23683  0.08058  0.05157  1.0000
  C   C88       1.0  0.26991  0.06405  0.07616  1.0000
  C   C89       1.0  0.24959  0.13469  0.04983  1.0000
  C   C90       1.0  0.24962  0.16121  0.04577  1.0000
  C   C91       1.0  0.21822  0.07466  0.04507  1.0000
  N   N4        1.0  0.07327  0.10002  0.98329  1.0000
  H   H113      1.0  0.27676  0.09972  0.07250  1.0000
  H   H114      1.0  0.27382  0.09020  0.05822  1.0000
  H   H115      1.0  0.22139  0.13777  0.06606  1.0000
  H   H116      1.0  0.24954  0.13608  0.07035  1.0000
  H   H117      1.0  0.24245  0.10685  0.08999  1.0000
  H   H118      1.0  0.23079  0.08136  0.08960  1.0000
  H   H119      1.0  0.21689  0.07752  0.07117  1.0000
  H   H120      1.0  0.20962  0.10531  0.06131  1.0000
  H   H121      1.0  0.24886  0.06391  0.05435  1.0000
  H   H122      1.0  0.24744  0.09225  0.04407  1.0000
  H   H123      1.0  0.27030  0.06387  0.08671  1.0000
  H   H124      1.0  0.25558  0.05454  0.07581  1.0000
  H   H125      1.0  0.26798  0.12570  0.04719  1.0000
  H   H126      1.0  0.23812  0.13013  0.04389  1.0000
  H   H127      1.0  0.25828  0.16518  0.03529  1.0000
  H   H128      1.0  0.23125  0.17098  0.04673  1.0000
  H   H129      1.0  0.25939  0.16751  0.05199  1.0000
  H   H130      1.0  0.22704  0.06578  0.03660  1.0000
  H   H131      1.0  0.20736  0.06259  0.05221  1.0000
  H   H132      1.0  0.20645  0.09098  0.04141  1.0000
  C   C92       1.0  0.24699  0.07390  0.98580  1.0000
  C   C93       1.0  0.30739  0.13723  0.05667  1.0000
  C   C94       1.0  0.99018  0.15785  0.99635  1.0000
  H   H133      1.0  0.16658  0.33412  0.15666  1.0000
  H   H134      1.0  0.07931  0.23553  0.98268  1.0000
  H   H135      1.0  0.29254  0.02842  0.97367  1.0000
  H   H136      1.0  0.26801  0.32490  0.05038  1.0000
  N   N5        1.0  0.20289  0.28516  0.05475  1.0000
  C   C95       1.0  0.21795  0.30357  0.04763  1.0000
  C   C96       1.0  0.18279  0.28594  0.04750  1.0000
  C   C97       1.0  0.19231  0.29122  0.06827  1.0000
  C   C98       1.0  0.21726  0.26072  0.05661  1.0000
  C   C99       1.0  0.23128  0.25187  0.04390  1.0000
  C   C100      1.0  0.23868  0.30566  0.05418  1.0000
  C   C101      1.0  0.17454  0.27569  0.07706  1.0000
  C   C102      1.0  0.18730  0.29405  0.03225  1.0000
  C   C103      1.0  0.16786  0.28951  0.02592  1.0000
  C   C104      1.0  0.24618  0.22761  0.04723  1.0000
  C   C105      1.0  0.25341  0.32360  0.04544  1.0000
  C   C106      1.0  0.16465  0.28432  0.09020  1.0000
  H   H137      1.0  0.20659  0.32125  0.04639  1.0000
  H   H138      1.0  0.22587  0.30064  0.03745  1.0000
  H   H139      1.0  0.17680  0.26850  0.04972  1.0000
  H   H140      1.0  0.16696  0.29850  0.05108  1.0000
  H   H141      1.0  0.18319  0.30989  0.06730  1.0000
  H   H142      1.0  0.20636  0.28973  0.07414  1.0000
  H   H143      1.0  0.22974  0.25920  0.06354  1.0000
  H   H144      1.0  0.20564  0.24746  0.06147  1.0000
  H   H145      1.0  0.24350  0.26394  0.03818  1.0000
  H   H146      1.0  0.21891  0.24995  0.03765  1.0000
  H   H147      1.0  0.23203  0.31197  0.06369  1.0000
  H   H148      1.0  0.25059  0.28851  0.05591  1.0000
  H   H149      1.0  0.18334  0.25717  0.07949  1.0000
  H   H150      1.0  0.15942  0.27615  0.07212  1.0000
  H   H151      1.0  0.18761  0.31334  0.02989  1.0000
  C   C107      1.0  0.18947  0.24624  0.12742  1.0000
  H   H152      1.0  0.20481  0.13237  0.08710  1.0000
  C   C108      1.0  0.16946  0.06956  0.97840  1.0000
  H   H153      1.0  0.23698  0.45395  0.03833  1.0000
  C   C109      1.0  0.27908  0.34490  0.07463  1.0000
  H   H154      1.0  0.17153  0.24415  0.12645  1.0000
  H   H155      1.0  0.22391  0.40832  0.03059  1.0000
  C   C110      1.0  0.19858  0.43204  0.98154  1.0000
  C   C111      1.0  0.02170  0.33235  0.97709  1.0000
  H   H156      1.0  0.18695  0.29373  0.15149  1.0000
  C   C112      1.0  0.15710  0.46906  0.03409  1.0000
  H   H157      1.0  0.19990  0.34239  0.16502  1.0000
  C   C113      1.0  0.04533  0.29192  0.97794  1.0000
  H   H158      1.0  0.24456  0.04720  0.01828  1.0000
  C   C114      1.0  0.13918  0.29240  0.15234  1.0000
  H   H159      1.0  0.05180  0.10286  0.00260  1.0000
  H   H160      1.0  0.27524  0.47123  0.13812  1.0000
  C   C115      1.0  0.27986  0.01241  0.16416  1.0000
  C   C116      1.0  0.21637  0.09925  0.00770  1.0000
  C   C117      1.0  0.20230  0.32676  0.16020  1.0000
  H   H161      1.0  0.19960  0.31111  0.16800  1.0000
  H   H162      1.0  0.26154  0.45741  0.99792  1.0000
  H   H163      1.0  0.22625  0.09683  0.01594  1.0000
  H   H164      1.0  0.17758  0.11603  0.10594  1.0000
  H   H165      1.0  0.00113  0.35010  0.04371  1.0000
  H   H166      1.0  0.26354  0.04232  0.15188  1.0000
  H   H167      1.0  0.05694  0.26651  0.99475  1.0000
  H   H168      1.0  0.24396  0.02919  0.98969  1.0000
  C   C118      1.0  0.06343  0.27172  0.98407  1.0000
  H   H169      1.0  0.28503  0.06796  0.99857  1.0000
  H   H170      1.0  0.11221  0.31356  0.16471  1.0000
  C   C119      1.0  0.23911  0.46791  0.16636  1.0000
  H   H171      1.0  0.31043  0.01829  0.12836  1.0000
  S   S36       1.0  0.27815  0.98242  0.98422  1.0000
  C   C120      1.0  0.30531  0.40557  0.05362  1.0000
  C   C121      1.0  0.22760  0.44092  0.04567  1.0000
  H   H172      1.0  0.27363  0.34347  0.09561  1.0000
  H   H173      1.0  0.28090  0.06279  0.16548  1.0000
  H   H174      1.0  0.19311  0.08646  0.10525  1.0000
  H   H175      1.0  0.02239  0.10966  0.99174  1.0000
  H   H176      1.0  0.20679  0.06520  0.01496  1.0000
  C   C122      1.0  0.01322  0.29845  0.00449  1.0000
  Fe  Fe19      1.0  0.27641  0.02395  0.20576  1.0000
  H   H177      1.0  0.29324  0.04868  0.06005  1.0000
  H   H178      1.0  0.22104  0.46218  0.06126  1.0000
  H   H179      1.0  0.06067  0.34777  0.99388  1.0000
  H   H180      1.0  0.31436  0.46736  0.11371  1.0000
  N   N6        1.0  0.30117  0.03924  0.14400  1.0000
  H   H181      1.0  0.19879  0.00677  0.99727  1.0000
  H   H182      1.0  0.20702  0.10771  0.10979  1.0000
  C   C123      1.0  0.30657  0.46095  0.12411  1.0000
  C   C124      1.0  0.22992  0.44435  0.05937  1.0000
  H   H183      1.0  0.23666  0.42286  0.04453  1.0000
  H   H184      1.0  0.31239  0.42543  0.11984  1.0000
  H   H185      1.0  0.23290  0.01388  0.01423  1.0000
  C   C125      1.0  0.29923  0.06578  0.16119  1.0000
  H   H186      1.0  0.15110  0.28816  0.15973  1.0000
  H   H187      1.0  0.01231  0.30613  0.02408  1.0000
  H   H188      1.0  0.29002  0.44919  0.19382  1.0000
  H   H189      1.0  0.10964  0.28284  0.16743  1.0000
  H   H190      1.0  0.20076  0.40588  0.19735  1.0000
  H   H191      1.0  0.18028  0.99757  0.18253  1.0000
  H   H192      1.0  0.24393  0.39831  0.21193  1.0000
  H   H193      1.0  0.27979  0.07379  0.14017  1.0000
  C   C126      1.0  0.29758  0.36100  0.13396  1.0000
  C   C127      1.0  0.18647  0.47211  0.98540  1.0000
  C   C128      1.0  0.20996  0.37816  0.01987  1.0000
  C   C129      1.0  0.20132  0.44502  0.04402  1.0000
  C   C130      1.0  0.16453  0.46636  0.99244  1.0000
  H   H194      1.0  0.09851  0.16552  0.97435  1.0000
  C   C131      1.0  0.23312  0.44514  0.01302  1.0000
  C   C132      1.0  0.20647  0.47459  0.15429  1.0000
  H   H195      1.0  0.10105  0.30215  0.15287  1.0000
  C   C133      1.0  0.11397  0.29819  0.15975  1.0000
  C   C134      1.0  0.27344  0.08313  0.11544  1.0000
  H   H196      1.0  0.00706  0.09572  0.97482  1.0000
  S   S37       1.0  0.25394  0.47499  0.17775  1.0000
  H   H197      1.0  0.21162  0.41870  0.97721  1.0000
  C   C135      1.0  0.16983  0.44388  0.03223  1.0000
  H   H198      1.0  0.01362  0.28250  0.00038  1.0000
  C   C136      1.0  0.20346  0.45506  0.97972  1.0000
  H   H199      1.0  0.29670  0.00021  0.16475  1.0000
  H   H200      1.0  0.05237  0.18622  0.06786  1.0000
  C   C137      1.0  0.27926  0.42534  0.21200  1.0000
  C   C138      1.0  0.30998  0.34960  0.08728  1.0000
  H   H201      1.0  0.26681  0.08087  0.10671  1.0000
  H   H202      1.0  0.12172  0.45976  0.03866  1.0000
  C   C139      1.0  0.00736  0.37220  0.00600  1.0000
  H   H203      1.0  0.19762  0.40279  0.04144  1.0000
  H   H204      1.0  0.23299  0.43117  0.00737  1.0000
  H   H205      1.0  0.20705  0.47228  0.02156  1.0000
  C   C140      1.0  0.29342  0.05030  0.07036  1.0000
  C   C141      1.0  0.27938  0.02840  0.15040  1.0000
  H   H206      1.0  0.30903  0.07153  0.13088  1.0000
  C   C142      1.0  0.29384  0.06177  0.13474  1.0000
  C   C143      1.0  0.20444  0.41302  0.03168  1.0000
  C   C144      1.0  0.25530  0.44035  0.21668  1.0000
  H   H207      1.0  0.28717  0.09465  0.11199  1.0000
  H   H208      1.0  0.26496  0.03491  0.00557  1.0000
  C   C145      1.0  0.21936  0.02125  0.00782  1.0000
  H   H209      1.0  0.17746  0.40176  0.02374  1.0000
  H   H210      1.0  0.25848  0.09194  0.12204  1.0000
  H   H211      1.0  0.26278  0.33738  0.07549  1.0000
  H   H212      1.0  0.27245  0.47048  0.04510  1.0000
  H   H213      1.0  0.29254  0.33800  0.06663  1.0000
  H   H214      1.0  0.29409  0.04052  0.01936  1.0000
  H   H215      1.0  0.26625  0.46315  0.09722  1.0000
  S   S38       1.0  0.31427  0.00814  0.19804  1.0000
  H   H216      1.0  0.28616  0.40819  0.05319  1.0000
  H   H217      1.0  0.06474  0.18537  0.08248  1.0000
  C   C146      1.0  0.23035  0.08500  0.97562  1.0000
  C   C147      1.0  0.21386  0.07495  0.00516  1.0000
  H   H218      1.0  0.28301  0.44133  0.11880  1.0000
  H   H219      1.0  0.27735  0.02339  0.17192  1.0000
  H   H220      1.0  0.24253  0.00923  0.16802  1.0000
  H   H221      1.0  0.26337  0.08635  0.00826  1.0000
  H   H222      1.0  0.99203  0.16620  0.98607  1.0000
  C   C148      1.0  0.31877  0.02302  0.13583  1.0000
  H   H223      1.0  0.26970  0.04806  0.12571  1.0000
  H   H224      1.0  0.27476  0.36438  0.07195  1.0000
  H   H225      1.0  0.04164  0.30600  0.05716  1.0000
  H   H226      1.0  0.20396  0.37156  0.01216  1.0000
  H   H227      1.0  0.21575  0.09817  0.97964  1.0000
  H   H228      1.0  0.99649  0.28294  0.02394  1.0000
  C   C149      1.0  0.00296  0.35626  0.03315  1.0000
  C   C150      1.0  0.30586  0.98939  0.00088  1.0000
  H   H229      1.0  0.06335  0.13522  0.98805  1.0000
  H   H230      1.0  0.30399  0.35630  0.14356  1.0000
  C   C151      1.0  0.28520  0.05907  0.01939  1.0000
  C   C152      1.0  0.21767  0.41179  0.19223  1.0000
  H   H231      1.0  0.09059  0.07185  0.02670  1.0000
  H   H232      1.0  0.30834  0.05920  0.07050  1.0000
  C   C153      1.0  0.26006  0.99763  0.16765  1.0000
  C   C154      1.0  0.31631  0.03228  0.98609  1.0000
  H   H233      1.0  0.18201  0.10401  0.02066  1.0000
  C   C155      1.0  0.06688  0.24984  0.97774  1.0000
  H   H234      1.0  0.27522  0.01809  0.14365  1.0000
  H   H235      1.0  0.09496  0.06546  0.98289  1.0000
  H   H236      1.0  0.03089  0.32787  0.00174  1.0000
  N   N7        1.0  0.23586  0.06051  0.99872  1.0000
  H   H237      1.0  0.18180  0.11786  0.00359  1.0000
  C   C156      1.0  0.02108  0.21835  0.00696  1.0000
  C   C157      1.0  0.20747  0.45440  0.01943  1.0000
  H   H238      1.0  0.30273  0.14819  0.04765  1.0000
  H   H239      1.0  0.20322  0.02962  0.01380  1.0000
  C   C158      1.0  0.07833  0.12456  0.98235  1.0000
  H   H240      1.0  0.29382  0.44171  0.03450  1.0000
  C   C159      1.0  0.29649  0.44082  0.20319  1.0000
  H   H241      1.0  0.05025  0.30089  0.00245  1.0000
  H   H242      1.0  0.21455  0.04443  0.98956  1.0000
  H   H243      1.0  0.19435  0.13063  0.01412  1.0000
  C   C160      1.0  0.03471  0.31084  0.99811  1.0000
  H   H244      1.0  0.23151  0.39619  0.19072  1.0000
  H   H245      1.0  0.22547  0.10984  0.99883  1.0000
  H   H246      1.0  0.31786  0.03007  0.16152  1.0000
  H   H247      1.0  0.25737  0.23503  0.21599  1.0000
  H   H248      1.0  0.26222  0.06213  0.98098  1.0000
  H   H249      1.0  0.30351  0.36894  0.08554  1.0000
  H   H250      1.0  0.21893  0.98131  0.18994  1.0000
  H   H251      1.0  0.29673  0.38029  0.13054  1.0000
  C   C161      1.0  0.07606  0.07601  0.02083  1.0000
  H   H252      1.0  0.99204  0.23157  0.02094  1.0000
  H   H253      1.0  0.22849  0.99081  0.99784  1.0000
  N   N8        1.0  0.19635  0.43908  0.03164  1.0000
  H   H254      1.0  0.26832  0.25635  0.22221  1.0000
  H   H255      1.0  0.09404  0.09979  0.00570  1.0000
  H   H256      1.0  0.03361  0.21388  0.01408  1.0000
  H   H257      1.0  0.29833  0.08292  0.15430  1.0000
  C   C162      1.0  0.99589  0.21804  0.01452  1.0000
  C   C163      1.0  0.21277  0.00053  0.00350  1.0000
  H   H258      1.0  0.19139  0.43501  0.05291  1.0000
  C   C164      1.0  0.08588  0.08418  0.00629  1.0000
  H   H259      1.0  0.30141  0.08341  0.17700  1.0000
  H   H260      1.0  0.31556  0.32848  0.12821  1.0000
  H   H261      1.0  0.09998  0.06989  0.00303  1.0000
  H   H262      1.0  0.06252  0.09013  0.02480  1.0000
  H   H263      1.0  0.31187  0.05215  0.17986  1.0000
  H   H264      1.0  0.31126  0.30879  0.10845  1.0000
  H   H265      1.0  0.06804  0.05995  0.02205  1.0000
  C   C165      1.0  0.30051  0.02074  0.98233  1.0000
  C   C166      1.0  0.22955  0.41315  0.21402  1.0000
  H   H266      1.0  0.22198  0.43088  0.06713  1.0000
  C   C167      1.0  0.29781  0.43800  0.12442  1.0000
  C   C168      1.0  0.08520  0.35928  0.97678  1.0000
  H   H267      1.0  0.09371  0.12397  0.98716  1.0000
  C   C169      1.0  0.27177  0.06790  0.00781  1.0000
  C   C170      1.0  0.25374  0.05173  0.00794  1.0000
  H   H268      1.0  0.99560  0.20046  0.02094  1.0000
  C   C171      1.0  0.29869  0.14502  0.06879  1.0000
  H   H269      1.0  0.29636  0.03227  0.07626  1.0000
  C   C172      1.0  0.01028  0.11414  0.97339  1.0000
  H   H270      1.0  0.31536  0.39374  0.04666  1.0000
  C   C173      1.0  0.01256  0.29079  0.01938  1.0000
  H   H271      1.0  0.16124  0.43129  0.04037  1.0000
  H   H272      1.0  0.24886  0.44228  0.06014  1.0000
  H   H273      1.0  0.27958  0.35643  0.13556  1.0000
  S   S39       1.0  0.17760  0.04062  0.97485  1.0000
  C   C174      1.0  0.02923  0.11551  0.98113  1.0000
  S   S40       1.0  0.21061  0.05272  0.21473  1.0000
  C   C175      1.0  0.31326  0.04553  0.15387  1.0000
  H   H274      1.0  0.25011  0.45389  0.20819  1.0000
  C   C176      1.0  0.99853  0.43048  0.03584  1.0000
  H   H275      1.0  0.01640  0.41964  0.03420  1.0000
  H   H276      1.0  0.27730  0.41232  0.20622  1.0000
  H   H277      1.0  0.29946  0.37155  0.10780  1.0000
  H   H278      1.0  0.21135  0.44283  0.20084  1.0000
  C   C177      1.0  0.22527  0.42709  0.20020  1.0000
  H   H279      1.0  0.25466  0.08864  0.98736  1.0000
  H   H280      1.0  0.21373  0.40481  0.21885  1.0000
  H   H281      1.0  0.07798  0.31315  0.98398  1.0000
  H   H282      1.0  0.99641  0.44373  0.02675  1.0000
  H   H283      1.0  0.23268  0.47372  0.99600  1.0000
  H   H284      1.0  0.24489  0.43752  0.02035  1.0000
  H   H285      1.0  0.29166  0.42981  0.13478  1.0000
  H   H286      1.0  0.29901  0.07004  0.01852  1.0000
  C   C178      1.0  0.30534  0.13131  0.08041  1.0000
  H   H287      1.0  0.02891  0.28439  0.97945  1.0000
  H   H288      1.0  0.04753  0.36244  0.97963  1.0000
  H   H289      1.0  0.31405  0.42987  0.20077  1.0000
  H   H290      1.0  0.11131  0.08895  0.97985  1.0000
  H   H291      1.0  0.99270  0.31122  0.98233  1.0000
  H   H292      1.0  0.13100  0.47183  0.02148  1.0000
  H   H293      1.0  0.28883  0.23567  0.21315  1.0000
  H   H294      1.0  0.08106  0.27683  0.98276  1.0000
  C   C179      1.0  0.18388  0.00112  0.19184  1.0000
  H   H295      1.0  0.15645  0.47161  0.04436  1.0000
  N   N9        1.0  0.04082  0.31471  0.98325  1.0000
  H   H296      1.0  0.01337  0.34561  0.98358  1.0000
  H   H297      1.0  0.03138  0.13424  0.97956  1.0000
  H   H298      1.0  0.08396  0.37683  0.97947  1.0000
  H   H299      1.0  0.26211  0.98592  0.16030  1.0000
  C   C180      1.0  0.31139  0.06833  0.17224  1.0000
  H   H300      1.0  0.31256  0.47576  0.05055  1.0000
  H   H301      1.0  0.28742  0.41597  0.22071  1.0000
  H   H302      1.0  0.16719  0.00259  0.19914  1.0000
  H   H303      1.0  0.10067  0.34743  0.98047  1.0000
  C   C181      1.0  0.31196  0.47500  0.01807  1.0000
  H   H304      1.0  0.99341  0.12522  0.97700  1.0000
  C   C182      1.0  0.31228  0.44105  0.03591  1.0000
  C   C183      1.0  0.20257  0.98163  0.19738  1.0000
  H   H305      1.0  0.04984  0.24348  0.97889  1.0000
  C   C184      1.0  0.09519  0.08407  0.97779  1.0000
  C   C185      1.0  0.31633  0.47296  0.99371  1.0000
  H   H306      1.0  0.29246  0.47738  0.01881  1.0000
  C   C186      1.0  0.31405  0.42929  0.05033  1.0000
  H   H307      1.0  0.31516  0.44332  0.00935  1.0000
  Fe  Fe20      1.0  0.22732  0.01504  0.22069  1.0000
  N   N10       1.0  0.31941  0.46509  0.03134  1.0000
  H   H308      1.0  0.04963  0.08163  0.97760  1.0000
  C   C187      1.0  0.05299  0.10002  0.97644  1.0000
  H   H309      1.0  0.06735  0.17306  0.97329  1.0000
  H   H310      1.0  0.20610  0.98661  0.20634  1.0000
  H   H311      1.0  0.26087  0.98641  0.17748  1.0000
  H   H312      1.0  0.31620  0.98742  0.14694  1.0000
  H   H313      1.0  0.30846  0.15627  0.22051  1.0000
  H   H314      1.0  0.22257  0.07148  0.97286  1.0000
  S   S41       1.0  0.15268  0.45443  0.36043  1.0000
  Fe  Fe21      1.0  0.28221  0.00639  0.44304  1.0000
  S   S42       1.0  0.26549  0.03549  0.45457  1.0000
  Fe  Fe22      1.0  0.24387  0.01896  0.42514  1.0000
  S   S43       1.0  0.22434  0.04871  0.43555  1.0000
  S   S44       1.0  0.23532  0.00713  0.40744  1.0000
  Fe  Fe23      1.0  0.26051  0.05755  0.43475  1.0000
  S   S45       1.0  0.26629  0.09552  0.42762  1.0000
  Fe  Fe24      1.0  0.23094  0.02422  0.45452  1.0000
  S   S46       1.0  0.27957  0.02933  0.42316  1.0000
  H   H315      1.0  0.99802  0.13602  0.34001  1.0000
  S   S47       1.0  0.10612  0.01279  0.33388  1.0000
  S   S48       1.0  0.10902  0.05023  0.35270  1.0000
  Fe  Fe25      1.0  0.08609  0.02355  0.35300  1.0000
  S   S49       1.0  0.04636  0.02976  0.36015  1.0000
  Fe  Fe26      1.0  0.13127  0.03650  0.33493  1.0000
  S   S50       1.0  0.15072  0.05614  0.31640  1.0000
  C   C188      1.0  0.28050  0.27544  0.32706  1.0000
  C   C189      1.0  0.13635  0.99992  0.45803  1.0000
  H   H316      1.0  0.08476  0.04863  0.42506  1.0000
  Fe  Fe27      1.0  0.13113  0.02088  0.36461  1.0000
  Fe  Fe28      1.0  0.25662  0.18611  0.29546  1.0000
  S   S51       1.0  0.28636  0.15581  0.29865  1.0000
  S   S52       1.0  0.26800  0.22035  0.28372  1.0000
  Fe  Fe29      1.0  0.21951  0.15532  0.30959  1.0000
  S   S53       1.0  0.24654  0.12329  0.31381  1.0000
  S   S54       1.0  0.18117  0.15284  0.31746  1.0000
  Fe  Fe30      1.0  0.26612  0.14805  0.31918  1.0000
  Fe  Fe31      1.0  0.26373  0.13416  0.29277  1.0000
  S   S55       1.0  0.27934  0.10697  0.27933  1.0000
  S   S56       1.0  0.23772  0.17960  0.31642  1.0000
  S   S57       1.0  0.23537  0.16494  0.28820  1.0000
  Fe  Fe32      1.0  0.23962  0.40352  0.30353  1.0000
  S   S58       1.0  0.27745  0.40850  0.30023  1.0000
  S   S59       1.0  0.21286  0.43672  0.30499  1.0000
  Fe  Fe33      1.0  0.25301  0.35113  0.30061  1.0000
  C   C190      1.0  0.06470  0.44936  0.36332  1.0000
  S   S60       1.0  0.23619  0.31793  0.30500  1.0000
  S   S61       1.0  0.31696  0.98219  0.44609  1.0000
  H   H317      1.0  0.22252  0.99135  0.38616  1.0000
  Fe  Fe34      1.0  0.28177  0.38810  0.28380  1.0000
  H   H318      1.0  0.10051  0.02129  0.44345  1.0000
  S   S62       1.0  0.24515  0.37004  0.31798  1.0000
  S   S63       1.0  0.24358  0.38473  0.28646  1.0000
  H   H319      1.0  0.25906  0.45059  0.22355  1.0000
  H   H320      1.0  0.24251  0.47369  0.25682  1.0000
  Fe  Fe35      1.0  0.12808  0.98596  0.34678  1.0000
  C   C191      1.0  0.25312  0.38518  0.23508  1.0000
  C   C192      1.0  0.25990  0.24705  0.29012  1.0000
  C   C193      1.0  0.27193  0.26608  0.28424  1.0000
  C   C194      1.0  0.26533  0.28779  0.28883  1.0000
  C   C195      1.0  0.24637  0.29074  0.29923  1.0000
  C   C196      1.0  0.23461  0.27159  0.30521  1.0000
  C   C197      1.0  0.24143  0.24982  0.30076  1.0000
  H   H321      1.0  0.28628  0.26409  0.27601  1.0000
  H   H322      1.0  0.27452  0.30238  0.28414  1.0000
  H   H323      1.0  0.21991  0.27370  0.31325  1.0000
  H   H324      1.0  0.23194  0.23540  0.30535  1.0000
  C   C198      1.0  0.24728  0.09536  0.24513  1.0000
  C   C199      1.0  0.23651  0.11366  0.25223  1.0000
  C   C200      1.0  0.24542  0.11666  0.26314  1.0000
  C   C201      1.0  0.26590  0.10206  0.26669  1.0000
  C   C202      1.0  0.27676  0.08385  0.25955  1.0000
  C   C203      1.0  0.26734  0.08030  0.24892  1.0000
  H   H325      1.0  0.22098  0.12540  0.24937  1.0000
  H   H326      1.0  0.23667  0.13040  0.26871  1.0000
  H   H327      1.0  0.29263  0.07246  0.26222  1.0000
  H   H328      1.0  0.27401  0.46088  0.41984  1.0000
  H   H329      1.0  0.20406  0.46405  0.39089  1.0000
  C   C204      1.0  0.26757  0.44155  0.25972  1.0000
  C   C205      1.0  0.28937  0.42896  0.25474  1.0000
  C   C206      1.0  0.21447  0.45906  0.23749  1.0000
  H   H330      1.0  0.14599  0.08537  0.45222  1.0000
  C   C207      1.0  0.30495  0.14800  0.34033  1.0000
  H   H331      1.0  0.25740  0.43419  0.26894  1.0000
  S   S64       1.0  0.30119  0.40137  0.26340  1.0000
  C   C208      1.0  0.29982  0.17881  0.25010  1.0000
  C   C209      1.0  0.16008  0.08180  0.31812  1.0000
  C   C210      1.0  0.18198  0.08706  0.31107  1.0000
  C   C211      1.0  0.18892  0.10847  0.31122  1.0000
  C   C212      1.0  0.17383  0.12492  0.31829  1.0000
  C   C213      1.0  0.15217  0.11942  0.32564  1.0000
  C   C214      1.0  0.14538  0.09780  0.32565  1.0000
  H   H332      1.0  0.19358  0.07465  0.30540  1.0000
  H   H333      1.0  0.20554  0.11261  0.30542  1.0000
  H   H334      1.0  0.14047  0.13207  0.33116  1.0000
  H   H335      1.0  0.12845  0.09388  0.33112  1.0000
  H   H336      1.0  0.03238  0.41801  0.40095  1.0000
  C   C215      1.0  0.02551  0.02327  0.35207  1.0000
  C   C216      1.0  0.00299  0.02030  0.35928  1.0000
  H   H337      1.0  0.16801  0.09258  0.43791  1.0000
  H   H338      1.0  0.11407  0.05266  0.41659  1.0000
  H   H339      1.0  0.26741  0.19213  0.22506  1.0000
  C   C217      1.0  0.29466  0.10386  0.42428  1.0000
  H   H340      1.0  0.28630  0.43010  0.33880  1.0000
  C   C218      1.0  0.29730  0.12699  0.41801  1.0000
  H   H341      1.0  0.18655  0.12123  0.23524  1.0000
  H   H342      1.0  0.28181  0.13980  0.41609  1.0000
  C   C219      1.0  0.20921  0.01478  0.40028  1.0000
  S   S65       1.0  0.15471  0.00883  0.34668  1.0000
  C   C220      1.0  0.30022  0.40727  0.38406  1.0000
  S   S66       1.0  0.14088  0.03164  0.38235  1.0000
  H   H343      1.0  0.31101  0.30620  0.36635  1.0000
  H   H344      1.0  0.25557  0.19475  0.25788  1.0000
  H   H345      1.0  0.19969  0.99980  0.28194  1.0000
  H   H346      1.0  0.13153  0.98858  0.22695  1.0000
  C   C221      1.0  0.27993  0.40055  0.37930  1.0000
  H   H347      1.0  0.18970  0.46945  0.27617  1.0000
  C   C222      1.0  0.16999  0.44977  0.34514  1.0000
  H   H348      1.0  0.28245  0.13857  0.24846  1.0000
  H   H349      1.0  0.28868  0.02356  0.38100  1.0000
  C   C223      1.0  0.19684  0.44138  0.32059  1.0000
  C   C224      1.0  0.19524  0.42284  0.33131  1.0000
  C   C225      1.0  0.18171  0.42702  0.34356  1.0000
  C   C226      1.0  0.25717  0.17944  0.25284  1.0000
  H   H350      1.0  0.20379  0.40518  0.33004  1.0000
  H   H351      1.0  0.17994  0.41255  0.35175  1.0000
  H   H352      1.0  0.27060  0.41015  0.33457  1.0000
  H   H353      1.0  0.25435  0.35129  0.34787  1.0000
  H   H354      1.0  0.05245  0.00199  0.30816  1.0000
  H   H355      1.0  0.17674  0.07236  0.45213  1.0000
  H   H356      1.0  0.04500  0.06849  0.33854  1.0000
  H   H357      1.0  0.24080  0.98364  0.27401  1.0000
  H   H358      1.0  0.23340  0.98027  0.25869  1.0000
  S   S67       1.0  0.10665  0.99503  0.36601  1.0000
  H   H359      1.0  0.01477  0.11102  0.32422  1.0000
  H   H360      1.0  0.26882  0.10658  0.39602  1.0000
  H   H361      1.0  0.08150  0.41853  0.38345  1.0000
  H   H362      1.0  0.30353  0.47370  0.43888  1.0000
  H   H363      1.0  0.27607  0.47503  0.38532  1.0000
  H   H364      1.0  0.29902  0.10201  0.37384  1.0000
  H   H365      1.0  0.11885  0.01025  0.46148  1.0000
  H   H366      1.0  0.06112  0.43526  0.35875  1.0000
  S   S68       1.0  0.29184  0.35286  0.29664  1.0000
  H   H367      1.0  0.28021  0.13331  0.39488  1.0000
  C   C227      1.0  0.30782  0.14517  0.23048  1.0000
  N   N11       1.0  0.15016  0.01488  0.44682  1.0000
  H   H368      1.0  0.26098  0.46425  0.32689  1.0000
  H   H369      1.0  0.01624  0.08069  0.32306  1.0000
  H   H370      1.0  0.01605  0.01930  0.32176  1.0000
  S   S69       1.0  0.24826  0.99363  0.44409  1.0000
  H   H371      1.0  0.30173  0.05930  0.34546  1.0000
  C   C228      1.0  0.23075  0.41992  0.37209  1.0000
  H   H372      1.0  0.03918  0.99509  0.29574  1.0000
  H   H373      1.0  0.29606  0.08711  0.35120  1.0000
  H   H374      1.0  0.28840  0.30250  0.30995  1.0000
  H   H375      1.0  0.19019  0.45102  0.38106  1.0000
  C   C229      1.0  0.16258  0.07824  0.44601  1.0000
  C   C230      1.0  0.01635  0.43756  0.37124  1.0000
  C   C231      1.0  0.04460  0.47348  0.39589  1.0000
  H   H376      1.0  0.30432  0.04569  0.39378  1.0000
  H   H377      1.0  0.30506  0.39416  0.39275  1.0000
  H   H378      1.0  0.00102  0.09748  0.35010  1.0000
  N   N12       1.0  0.23535  0.42697  0.22324  1.0000
  H   H379      1.0  0.24069  0.37527  0.23274  1.0000
  H   H380      1.0  0.21148  0.19958  0.26250  1.0000
  C   C232      1.0  0.20294  0.99001  0.27363  1.0000
  H   H381      1.0  0.02142  0.44267  0.36037  1.0000
  S   S70       1.0  0.27836  0.13987  0.33895  1.0000
  C   C233      1.0  0.17520  0.00255  0.44318  1.0000
  H   H382      1.0  0.11965  0.45223  0.34277  1.0000
  H   H383      1.0  0.26437  0.40146  0.38733  1.0000
  C   C234      1.0  0.31065  0.22070  0.33698  1.0000
  C   C235      1.0  0.26338  0.44604  0.32489  1.0000
  H   H384      1.0  0.29367  0.14967  0.36096  1.0000
  H   H385      1.0  0.24279  0.44106  0.38370  1.0000
  C   C236      1.0  0.15105  0.03752  0.45123  1.0000
  C   C237      1.0  0.24943  0.43169  0.34922  1.0000
  C   C238      1.0  0.29649  0.25501  0.32052  1.0000
  H   H386      1.0  0.28850  0.22504  0.23747  1.0000
  H   H387      1.0  0.02350  0.98898  0.27770  1.0000
  H   H388      1.0  0.04297  0.09877  0.34030  1.0000
  C   C239      1.0  0.27465  0.41670  0.36617  1.0000
  H   H389      1.0  0.28036  0.27294  0.33780  1.0000
  C   C240      1.0  0.06196  0.42174  0.38415  1.0000
  C   C241      1.0  0.26893  0.42790  0.33703  1.0000
  H   H390      1.0  0.29475  0.42481  0.38711  1.0000
  C   C242      1.0  0.25434  0.38938  0.35984  1.0000
  C   C243      1.0  0.23463  0.38439  0.35349  1.0000
  S   S71       1.0  0.23494  0.09232  0.23164  1.0000
  H   H391      1.0  0.27586  0.06619  0.24353  1.0000
  C   C244      1.0  0.23690  0.35806  0.35344  1.0000
  H   H392      1.0  0.23203  0.43197  0.34640  1.0000
  C   C245      1.0  0.29401  0.46835  0.28304  1.0000
  H   H393      1.0  0.25424  0.37713  0.36947  1.0000
  H   H394      1.0  0.23577  0.39365  0.34311  1.0000
  H   H395      1.0  0.21686  0.39017  0.35901  1.0000
  H   H396      1.0  0.27163  0.38361  0.35375  1.0000
  H   H397      1.0  0.31143  0.10751  0.23838  1.0000
  H   H398      1.0  0.17556  0.05173  0.43382  1.0000
  H   H399      1.0  0.19126  0.98231  0.32436  1.0000
  H   H400      1.0  0.29750  0.19310  0.22449  1.0000
  H   H401      1.0  0.22288  0.35506  0.34859  1.0000
  H   H402      1.0  0.23485  0.34800  0.36369  1.0000
  H   H403      1.0  0.31086  0.04337  0.46706  1.0000
  H   H404      1.0  0.30729  0.46716  0.39887  1.0000
  C   C246      1.0  0.99717  0.08958  0.34218  1.0000
  H   H405      1.0  0.27471  0.43535  0.36680  1.0000
  C   C247      1.0  0.05195  0.41451  0.39895  1.0000
  C   C248      1.0  0.18719  0.00921  0.38396  1.0000
  H   H406      1.0  0.31166  0.12459  0.37772  1.0000
  H   H407      1.0  0.13205  0.98481  0.45465  1.0000
  N   N13       1.0  0.25235  0.41441  0.36183  1.0000
  C   C249      1.0  0.23438  0.18221  0.24687  1.0000
  C   C250      1.0  0.05968  0.38819  0.40366  1.0000
  C   C251      1.0  0.20776  0.00404  0.38975  1.0000
  H   H408      1.0  0.23082  0.00922  0.26246  1.0000
  H   H409      1.0  0.18242  0.09564  0.22946  1.0000
  H   H410      1.0  0.30108  0.45279  0.28996  1.0000
  C   C252      1.0  0.11238  0.03286  0.43671  1.0000
  C   C253      1.0  0.21352  0.44468  0.22679  1.0000
  C   C254      1.0  0.04137  0.08707  0.33358  1.0000
  H   H411      1.0  0.31522  0.25752  0.31922  1.0000
  H   H412      1.0  0.14528  0.06482  0.43376  1.0000
  C   C255      1.0  0.10355  0.04000  0.42349  1.0000
  H   H413      1.0  0.11060  0.04903  0.44093  1.0000
  H   H414      1.0  0.07927  0.45690  0.38685  1.0000
  H   H415      1.0  0.26995  0.15110  0.23420  1.0000
  C   C256      1.0  0.31469  0.08777  0.42728  1.0000
  H   H416      1.0  0.27828  0.44393  0.31654  1.0000
  N   N14       1.0  0.29390  0.23001  0.32724  1.0000
  C   C257      1.0  0.26850  0.22876  0.33363  1.0000
  H   H417      1.0  0.30645  0.29918  0.32250  1.0000
  H   H418      1.0  0.19137  0.99940  0.26638  1.0000
  C   C258      1.0  0.17183  0.46837  0.33447  1.0000
  C   C259      1.0  0.30802  0.15120  0.35269  1.0000
  C   C260      1.0  0.26304  0.20409  0.34079  1.0000
  H   H419      1.0  0.22793  0.47074  0.23383  1.0000
  H   H420      1.0  0.29554  0.11675  0.22462  1.0000
  H   H421      1.0  0.13737  0.00270  0.43193  1.0000
  C   C261      1.0  0.23697  0.20526  0.34706  1.0000
  H   H422      1.0  0.25684  0.23538  0.32603  1.0000
  H   H423      1.0  0.26219  0.24054  0.34105  1.0000
  H   H424      1.0  0.16893  0.00439  0.22420  1.0000
  C   C262      1.0  0.24092  0.41096  0.23593  1.0000
  H   H425      1.0  0.28686  0.21947  0.31003  1.0000
  H   H426      1.0  0.15592  0.98926  0.27363  1.0000
  H   H427      1.0  0.10149  0.43133  0.36401  1.0000
  C   C263      1.0  0.01250  0.01923  0.33227  1.0000
  H   H428      1.0  0.28792  0.23368  0.35448  1.0000
  C   C264      1.0  0.03027  0.02264  0.33853  1.0000
  H   H429      1.0  0.26674  0.19161  0.33379  1.0000
  H   H430      1.0  0.27360  0.19681  0.34879  1.0000
  H   H431      1.0  0.23437  0.16676  0.24238  1.0000
  H   H432      1.0  0.26197  0.27680  0.32563  1.0000
  H   H433      1.0  0.24899  0.44992  0.35073  1.0000
  H   H434      1.0  0.22949  0.40506  0.38058  1.0000
  C   C265      1.0  0.01678  0.09277  0.32980  1.0000
  C   C266      1.0  0.19080  0.47483  0.24101  1.0000
  H   H435      1.0  0.31890  0.18008  0.27231  1.0000
  H   H436      1.0  0.09734  0.46246  0.36399  1.0000
  H   H437      1.0  0.19622  0.18779  0.25276  1.0000
  H   H438      1.0  0.23229  0.21668  0.35472  1.0000
  H   H439      1.0  0.22554  0.21220  0.33942  1.0000
  H   H440      1.0  0.23354  0.18725  0.35180  1.0000
  C   C267      1.0  0.28844  0.29905  0.32076  1.0000
  N   N15       1.0  0.16956  0.07620  0.27120  1.0000
  C   C268      1.0  0.17900  0.08406  0.25676  1.0000
  C   C269      1.0  0.18835  0.05898  0.27781  1.0000
  C   C270      1.0  0.14933  0.06335  0.27185  1.0000
  C   C271      1.0  0.16012  0.09671  0.27846  1.0000
  C   C272      1.0  0.17689  0.11455  0.27735  1.0000
  C   C273      1.0  0.16118  0.10100  0.24861  1.0000
  C   C274      1.0  0.13845  0.05161  0.28587  1.0000
  C   C275      1.0  0.21439  0.06282  0.27308  1.0000
  C   C276      1.0  0.23061  0.04705  0.28221  1.0000
  C   C277      1.0  0.16381  0.13615  0.28333  1.0000
  C   C278      1.0  0.17337  0.11040  0.23473  1.0000
  C   C279      1.0  0.11933  0.03787  0.28522  1.0000
  H   H441      1.0  0.18589  0.06841  0.25180  1.0000
  H   H442      1.0  0.19452  0.09288  0.25550  1.0000
  H   H443      1.0  0.18413  0.05816  0.28872  1.0000
  H   H444      1.0  0.18848  0.04083  0.27625  1.0000
  H   H445      1.0  0.15510  0.04940  0.26556  1.0000
  H   H446      1.0  0.13440  0.07554  0.26779  1.0000
  H   H447      1.0  0.14335  0.10666  0.27533  1.0000
  H   H448      1.0  0.15508  0.09025  0.28923  1.0000
  H   H449      1.0  0.18442  0.12106  0.26697  1.0000
  H   H450      1.0  0.19143  0.10637  0.28293  1.0000
  H   H451      1.0  0.14728  0.09167  0.24741  1.0000
  H   H452      1.0  0.15266  0.11642  0.25339  1.0000
  H   H453      1.0  0.13004  0.06518  0.29208  1.0000
  H   H454      1.0  0.15198  0.03908  0.29093  1.0000
  H   H455      1.0  0.22085  0.05844  0.26301  1.0000
  H   H456      1.0  0.21637  0.08118  0.27270  1.0000
  H   H457      1.0  0.22592  0.05185  0.29222  1.0000
  H   H458      1.0  0.22937  0.02822  0.28300  1.0000
  H   H459      1.0  0.24921  0.04946  0.27820  1.0000
  H   H460      1.0  0.15044  0.14650  0.27734  1.0000
  H   H461      1.0  0.15481  0.13082  0.29363  1.0000
  H   H462      1.0  0.17660  0.14761  0.28358  1.0000
  H   H463      1.0  0.21436  0.42165  0.36790  1.0000
  C   C280      1.0  0.22875  0.44278  0.37774  1.0000
  Fe  Fe36      1.0  0.28358  0.37331  0.31342  1.0000
  H   H464      1.0  0.11216  0.02946  0.29537  1.0000
  H   H465      1.0  0.10459  0.04987  0.28090  1.0000
  H   H466      1.0  0.12676  0.02388  0.27917  1.0000
  H   H467      1.0  0.31794  0.43190  0.43615  1.0000
  H   H468      1.0  0.05272  0.38353  0.41437  1.0000
  H   H469      1.0  0.22439  0.40910  0.24328  1.0000
  H   H470      1.0  0.24710  0.44339  0.32193  1.0000
  C   C281      1.0  0.14578  0.97841  0.23187  1.0000
  C   C282      1.0  0.09189  0.44874  0.35999  1.0000
  H   H471      1.0  0.99944  0.07032  0.34607  1.0000
  H   H472      1.0  0.29998  0.19588  0.32116  1.0000
  H   H473      1.0  0.11510  0.99391  0.26868  1.0000
  C   C283      1.0  0.30634  0.23307  0.34909  1.0000
  C   C284      1.0  0.16781  0.02527  0.38865  1.0000
  H   H474      1.0  0.25772  0.46582  0.29151  1.0000
  H   H475      1.0  0.25195  0.41897  0.24069  1.0000
  H   H476      1.0  0.30469  0.46915  0.22716  1.0000
  H   H477      1.0  0.05896  0.42406  0.40497  1.0000
  C   C285      1.0  0.17902  0.98697  0.31708  1.0000
  H   H478      1.0  0.17672  0.46401  0.24548  1.0000
  H   H479      1.0  0.17245  0.97992  0.42949  1.0000
  H   H480      1.0  0.27605  0.31349  0.32512  1.0000
  H   H481      1.0  0.26649  0.12972  0.38185  1.0000
  C   C286      1.0  0.13819  0.01954  0.43492  1.0000
  C   C287      1.0  0.10017  0.45318  0.34501  1.0000
  H   H482      1.0  0.21871  0.44750  0.24677  1.0000
  H   H483      1.0  0.02177  0.47099  0.37435  1.0000
  C   C288      1.0  0.27420  0.22083  0.23332  1.0000
  S   S72       1.0  0.25845  0.02422  0.22693  1.0000
  H   H484      1.0  0.29227  0.25840  0.31033  1.0000
  C   C289      1.0  0.26076  0.47174  0.41387  1.0000
  H   H485      1.0  0.05847  0.40893  0.37863  1.0000
  C   C290      1.0  0.06166  0.46422  0.38392  1.0000
  C   C291      1.0  0.30186  0.10974  0.38204  1.0000
  C   C292      1.0  0.15886  0.05780  0.44017  1.0000
  H   H486      1.0  0.18498  0.01341  0.43465  1.0000
  C   C293      1.0  0.16695  0.98739  0.23027  1.0000
  H   H487      1.0  0.17978  0.00541  0.31195  1.0000
  H   H488      1.0  0.07928  0.38366  0.40215  1.0000
  H   H489      1.0  0.16009  0.12165  0.22895  1.0000
  H   H490      1.0  0.31038  0.25117  0.34585  1.0000
  H   H491      1.0  0.09559  0.43968  0.34043  1.0000
  C   C294      1.0  0.31060  0.11952  0.22873  1.0000
  C   C295      1.0  0.29395  0.46125  0.23599  1.0000
  N   N16       1.0  0.22216  0.09018  0.36183  1.0000
  C   C296      1.0  0.20781  0.11423  0.36295  1.0000
  C   C297      1.0  0.22299  0.07615  0.37558  1.0000
  C   C298      1.0  0.24659  0.09323  0.35440  1.0000
  C   C299      1.0  0.21128  0.07703  0.35435  1.0000
  C   C300      1.0  0.18441  0.07656  0.35881  1.0000
  C   C301      1.0  0.20425  0.13083  0.34968  1.0000
  C   C302      1.0  0.26500  0.07035  0.35385  1.0000
  C   C303      1.0  0.23593  0.08573  0.38433  1.0000
  C   C304      1.0  0.23879  0.06841  0.39715  1.0000
  C   C305      1.0  0.17636  0.05997  0.35187  1.0000
  C   C306      1.0  0.18766  0.15371  0.35210  1.0000
  C   C307      1.0  0.28897  0.07589  0.34616  1.0000
  H   H492      1.0  0.21647  0.12386  0.36816  1.0000
  H   H493      1.0  0.19018  0.11267  0.36920  1.0000
  H   H494      1.0  0.20480  0.07529  0.38120  1.0000
  H   H495      1.0  0.23099  0.05739  0.37517  1.0000
  H   H496      1.0  0.25390  0.10578  0.35843  1.0000
  H   H497      1.0  0.24580  0.10163  0.34394  1.0000
  H   H498      1.0  0.21420  0.08429  0.34357  1.0000
  H   H499      1.0  0.22026  0.05834  0.35516  1.0000
  H   H500      1.0  0.17401  0.09435  0.35631  1.0000
  H   H501      1.0  0.17987  0.07041  0.36960  1.0000
  H   H502      1.0  0.22134  0.13573  0.34410  1.0000
  H   H503      1.0  0.19664  0.12254  0.34332  1.0000
  H   H504      1.0  0.25924  0.05822  0.34881  1.0000
  H   H505      1.0  0.26763  0.06106  0.36388  1.0000
  H   H506      1.0  0.25383  0.08878  0.37924  1.0000
  H   H507      1.0  0.22571  0.10258  0.38705  1.0000
  H   H508      1.0  0.25034  0.05176  0.39497  1.0000
  H   H509      1.0  0.24704  0.07594  0.40358  1.0000
  H   H510      1.0  0.22135  0.06457  0.40271  1.0000
  H   H511      1.0  0.18440  0.04144  0.35516  1.0000
  H   H512      1.0  0.15685  0.06134  0.35439  1.0000
  H   H513      1.0  0.18135  0.06465  0.34098  1.0000
  H   H514      1.0  0.18626  0.16574  0.34252  1.0000
  H   H515      1.0  0.16971  0.15005  0.35687  1.0000
  H   H516      1.0  0.19457  0.16276  0.35843  1.0000
  H   H517      1.0  0.28730  0.08527  0.33596  1.0000
  C   C308      1.0  0.26023  0.37232  0.24826  1.0000
  C   C309      1.0  0.31721  0.46950  0.43067  1.0000
  C   C310      1.0  0.27246  0.47407  0.24115  1.0000
  N   N17       1.0  0.05365  0.44668  0.37778  1.0000
  C   C311      1.0  0.02712  0.45208  0.37855  1.0000
  H   H518      1.0  0.16081  0.98585  0.32255  1.0000
  H   H519      1.0  0.25677  0.16398  0.26097  1.0000
  H   H520      1.0  0.31359  0.01225  0.46747  1.0000
  N   N18       1.0  0.28027  0.17641  0.24334  1.0000
  H   H521      1.0  0.13361  0.04457  0.45678  1.0000
  C   C312      1.0  0.27994  0.19489  0.23103  1.0000
  C   C313      1.0  0.31834  0.37679  0.33754  1.0000
  H   H522      1.0  0.99917  0.02089  0.36975  1.0000
  H   H523      1.0  0.05499  0.08963  0.32457  1.0000
  H   H524      1.0  0.14884  0.02917  0.42623  1.0000
  S   S73       1.0  0.30060  0.36138  0.33184  1.0000
  C   C314      1.0  0.30225  0.43870  0.24270  1.0000
  H   H525      1.0  0.23027  0.45831  0.36977  1.0000
  H   H526      1.0  0.29986  0.28426  0.36076  1.0000
  C   C315      1.0  0.18511  0.46413  0.32220  1.0000
  H   H527      1.0  0.03739  0.45923  0.40329  1.0000
  H   H528      1.0  0.28984  0.15694  0.26943  1.0000
  C   C316      1.0  0.25922  0.46398  0.25293  1.0000
  H   H529      1.0  0.25736  0.22434  0.24023  1.0000
  H   H530      1.0  0.31084  0.20153  0.34056  1.0000
  H   H531      1.0  0.02225  0.41838  0.37410  1.0000
  C   C317      1.0  0.23644  0.47230  0.42272  1.0000
  C   C318      1.0  0.20492  0.44794  0.38674  1.0000
  S   S74       1.0  0.21236  0.98467  0.23517  1.0000
  H   H532      1.0  0.29040  0.41204  0.35865  1.0000
  C   C319      1.0  0.30029  0.21467  0.31669  1.0000
  H   H533      1.0  0.24463  0.37245  0.25633  1.0000
  H   H534      1.0  0.31216  0.14156  0.25827  1.0000
  C   C320      1.0  0.21219  0.18458  0.25743  1.0000
  H   H535      1.0  0.15481  0.04926  0.40245  1.0000
  C   C321      1.0  0.19003  0.03124  0.40476  1.0000
  C   C322      1.0  0.27790  0.12032  0.38918  1.0000
  H   H536      1.0  0.29224  0.06440  0.38038  1.0000
  H   H537      1.0  0.04745  0.02530  0.33286  1.0000
  H   H538      1.0  0.28533  0.38194  0.37779  1.0000
  H   H539      1.0  0.21178  0.16815  0.26486  1.0000
  H   H540      1.0  0.19102  0.03993  0.41267  1.0000
  C   C323      1.0  0.16953  0.03648  0.39894  1.0000
  H   H541      1.0  0.31563  0.20790  0.29032  1.0000
  H   H542      1.0  0.09196  0.47099  0.34055  1.0000
  H   H543      1.0  0.07229  0.47480  0.40670  1.0000
  H   H544      1.0  0.23266  0.19821  0.23917  1.0000
  H   H545      1.0  0.19779  0.43565  0.23031  1.0000
  H   H546      1.0  0.29318  0.46240  0.27380  1.0000
  H   H547      1.0  0.23252  0.45408  0.42605  1.0000
  H   H548      1.0  0.26813  0.35372  0.24755  1.0000
  H   H549      1.0  0.05644  0.46618  0.35786  1.0000
  C   C324      1.0  0.22855  0.99073  0.26681  1.0000
  C   C325      1.0  0.28407  0.15242  0.23951  1.0000
  H   H550      1.0  0.18618  0.00048  0.37603  1.0000
  H   H551      1.0  0.31643  0.18058  0.24287  1.0000
  H   H552      1.0  0.29523  0.19541  0.25429  1.0000
  H   H553      1.0  0.05266  0.37754  0.39824  1.0000
  H   H554      1.0  0.20247  0.43303  0.39506  1.0000
  H   H555      1.0  0.16340  0.03410  0.45843  1.0000
  H   H556      1.0  0.30906  0.03297  0.36632  1.0000
  H   H557      1.0  0.31805  0.45442  0.37645  1.0000
  C   C326      1.0  0.98934  0.44223  0.37444  1.0000
  H   H558      1.0  0.26113  0.46217  0.40579  1.0000
  H   H559      1.0  0.16442  0.99414  0.29392  1.0000
  C   C327      1.0  0.31617  0.28994  0.36190  1.0000
  H   H560      1.0  0.27359  0.38079  0.25078  1.0000
  H   H561      1.0  0.01808  0.97970  0.31738  1.0000
  C   C328      1.0  0.30568  0.15872  0.26168  1.0000
  H   H562      1.0  0.01777  0.45001  0.38891  1.0000
  C   C329      1.0  0.99009  0.01591  0.33953  1.0000
  H   H563      1.0  0.31834  0.20250  0.36320  1.0000
  H   H564      1.0  0.10488  0.02432  0.41886  1.0000
  H   H565      1.0  0.17612  0.47541  0.29248  1.0000
  C   C330      1.0  0.04953  0.98738  0.30379  1.0000
  H   H566      1.0  0.26920  0.38431  0.22741  1.0000
  H   H567      1.0  0.18533  0.00074  0.45131  1.0000
  H   H568      1.0  0.31613  0.40756  0.37618  1.0000
  H   H569      1.0  0.31286  0.07010  0.43241  1.0000
  C   C331      1.0  0.30629  0.02904  0.37728  1.0000
  H   H570      1.0  0.31745  0.35326  0.35629  1.0000
  C   C332      1.0  0.30735  0.05068  0.38291  1.0000
  C   C333      1.0  0.31652  0.09149  0.39145  1.0000
  H   H571      1.0  0.30451  0.08069  0.39861  1.0000
  C   C334      1.0  0.14823  0.99028  0.47041  1.0000
  H   H572      1.0  0.31916  0.42912  0.23880  1.0000
  H   H573      1.0  0.98634  0.98936  0.27005  1.0000
  Fe  Fe37      1.0  0.29225  0.04182  0.70022  1.0000
  C   C335      1.0  0.04815  0.33915  0.64109  1.0000
  Fe  Fe38      1.0  0.27415  0.01136  0.68426  1.0000
  S   S75       1.0  0.23627  0.02298  0.69274  1.0000
  H   H574      1.0  0.98973  0.38219  0.64865  1.0000
  Fe  Fe39      1.0  0.24577  0.05928  0.68898  1.0000
  S   S76       1.0  0.22925  0.09163  0.67564  1.0000
  H   H575      1.0  0.00183  0.46818  0.59098  1.0000
  C   C336      1.0  0.01217  0.15336  0.64525  1.0000
  S   S77       1.0  0.28351  0.04779  0.67976  1.0000
  Fe  Fe40      1.0  0.11183  0.15289  0.64800  1.0000
  S   S78       1.0  0.13686  0.16740  0.63040  1.0000
  S   S79       1.0  0.12331  0.12581  0.66537  1.0000
  Fe  Fe41      1.0  0.06828  0.18104  0.63702  1.0000
  S   S80       1.0  0.09045  0.19725  0.61860  1.0000
  S   S81       1.0  0.02913  0.19577  0.63858  1.0000
  Fe  Fe42      1.0  0.11162  0.16094  0.61854  1.0000
  S   S82       1.0  0.12589  0.14784  0.59904  1.0000
  Fe  Fe43      1.0  0.11342  0.20255  0.63204  1.0000
  S   S83       1.0  0.12830  0.23706  0.62704  1.0000
  S   S84       1.0  0.08777  0.14417  0.63604  1.0000
  S   S85       1.0  0.09000  0.18849  0.65057  1.0000
  Fe  Fe44      1.0  0.09797  0.40975  0.63445  1.0000
  S   S86       1.0  0.09223  0.43087  0.65065  1.0000
  S   S87       1.0  0.08348  0.42836  0.61598  1.0000
  Fe  Fe45      1.0  0.11161  0.36249  0.65253  1.0000
  S   S88       1.0  0.10697  0.38090  0.66999  1.0000
  S   S89       1.0  0.11583  0.32219  0.65819  1.0000
  Fe  Fe46      1.0  0.07390  0.40139  0.66280  1.0000
  S   S90       1.0  0.03782  0.40655  0.67555  1.0000
  Fe  Fe47      1.0  0.12600  0.40877  0.65621  1.0000
  S   S91       1.0  0.15747  0.42417  0.65929  1.0000
  S   S92       1.0  0.07759  0.38183  0.64636  1.0000
  S   S93       1.0  0.13299  0.38891  0.63898  1.0000
  Fe  Fe48      1.0  0.12389  0.00721  0.55106  1.0000
  S   S94       1.0  0.13339  0.04299  0.54880  1.0000
  H   H576      1.0  0.04229  0.33956  0.68968  1.0000
  Fe  Fe49      1.0  0.07189  0.02743  0.54857  1.0000
  S   S95       1.0  0.07831  0.06481  0.54562  1.0000
  S   S96       1.0  0.03616  0.01491  0.55317  1.0000
  Fe  Fe50      1.0  0.11238  0.05214  0.53229  1.0000
  S   S97       1.0  0.13012  0.07130  0.51273  1.0000
  Fe  Fe51      1.0  0.09909  0.05188  0.56232  1.0000
  S   S98       1.0  0.09198  0.06394  0.58227  1.0000
  S   S99       1.0  0.10419  0.01582  0.53403  1.0000
  S   S100      1.0  0.09132  0.01503  0.56579  1.0000
  H   H577      1.0  0.07938  0.01378  0.59679  1.0000
  C   C337      1.0  0.15099  0.05507  0.50168  1.0000
  C   C338      1.0  0.16551  0.06689  0.49101  1.0000
  C   C339      1.0  0.18214  0.05432  0.48208  1.0000
  C   C340      1.0  0.18407  0.02984  0.48365  1.0000
  C   C341      1.0  0.16938  0.01814  0.49421  1.0000
  C   C342      1.0  0.15315  0.03059  0.50325  1.0000
  H   H578      1.0  0.16398  0.08584  0.48970  1.0000
  H   H579      1.0  0.20152  0.38619  0.71484  1.0000
  H   H580      1.0  0.17049  0.99930  0.49542  1.0000
  H   H581      1.0  0.14209  0.02124  0.51133  1.0000
  N   N19       1.0  0.02925  0.46550  0.57368  1.0000
  C   C343      1.0  0.01005  0.02662  0.54640  1.0000
  H   H582      1.0  0.02536  0.05149  0.53050  1.0000
  C   C344      1.0  0.08249  0.41510  0.58126  1.0000
  C   C345      1.0  0.14655  0.46826  0.68649  1.0000
  C   C346      1.0  0.01502  0.39341  0.67284  1.0000
  C   C347      1.0  0.01201  0.39186  0.66014  1.0000
  C   C348      1.0  0.19232  0.43949  0.71793  1.0000
  H   H583      1.0  0.26921  0.42837  0.66578  1.0000
  H   H584      1.0  0.02464  0.39785  0.65165  1.0000
  C   C349      1.0  0.16903  0.47435  0.68535  1.0000
  C   C350      1.0  0.10243  0.08691  0.58664  1.0000
  C   C351      1.0  0.09643  0.09039  0.59983  1.0000
  C   C352      1.0  0.10330  0.10911  0.60376  1.0000
  C   C353      1.0  0.11657  0.12431  0.59452  1.0000
  C   C354      1.0  0.12311  0.12044  0.58139  1.0000
  C   C355      1.0  0.11608  0.10179  0.57744  1.0000
  H   H585      1.0  0.08626  0.07861  0.60704  1.0000
  H   H586      1.0  0.09847  0.11171  0.61393  1.0000
  H   H587      1.0  0.13354  0.13204  0.57420  1.0000
  H   H588      1.0  0.12092  0.09919  0.56727  1.0000
  C   C356      1.0  0.12181  0.26126  0.63561  1.0000
  C   C357      1.0  0.12708  0.28333  0.62872  1.0000
  C   C358      1.0  0.12433  0.30251  0.63535  1.0000
  C   C359      1.0  0.11699  0.29959  0.64905  1.0000
  C   C360      1.0  0.11152  0.27756  0.65592  1.0000
  C   C361      1.0  0.11343  0.25864  0.64922  1.0000
  H   H589      1.0  0.13371  0.28550  0.61821  1.0000
  H   H590      1.0  0.12880  0.31925  0.62995  1.0000
  H   H591      1.0  0.10600  0.27506  0.66653  1.0000
  H   H592      1.0  0.10950  0.24174  0.65466  1.0000
  C   C362      1.0  0.00794  0.17747  0.64017  1.0000
  H   H593      1.0  0.02904  0.14534  0.64816  1.0000
  H   H594      1.0  0.05530  0.23525  0.64681  1.0000
  C   C363      1.0  0.10106  0.44629  0.60415  1.0000
  C   C364      1.0  0.12546  0.43931  0.60088  1.0000
  H   H595      1.0  0.18841  0.00634  0.52855  1.0000
  H   H596      1.0  0.13389  0.42272  0.60585  1.0000
  H   H597      1.0  0.13882  0.04798  0.59159  1.0000
  H   H598      1.0  0.99400  0.05856  0.56335  1.0000
  H   H599      1.0  0.26217  0.40567  0.71504  1.0000
  C   C365      1.0  0.06051  0.42670  0.57517  1.0000
  C   C366      1.0  0.23567  0.42756  0.69769  1.0000
  C   C367      1.0  0.14261  0.45303  0.67864  1.0000
  C   C368      1.0  0.16114  0.44367  0.66946  1.0000
  C   C369      1.0  0.18361  0.44986  0.66828  1.0000
  H   H600      1.0  0.27012  0.01870  0.48167  1.0000
  H   H601      1.0  0.12523  0.44850  0.67972  1.0000
  H   H602      1.0  0.19808  0.44287  0.66118  1.0000
  H   H603      1.0  0.09046  0.39853  0.57743  1.0000
  C   C370      1.0  0.19965  0.10048  0.67298  1.0000
  C   C371      1.0  0.18086  0.09100  0.68148  1.0000
  C   C372      1.0  0.15758  0.09891  0.67899  1.0000
  C   C373      1.0  0.15288  0.11632  0.66802  1.0000
  C   C374      1.0  0.17172  0.12561  0.65946  1.0000
  C   C375      1.0  0.19496  0.11769  0.66193  1.0000
  H   H604      1.0  0.18422  0.07780  0.69004  1.0000
  H   H605      1.0  0.14310  0.09163  0.68567  1.0000
  H   H606      1.0  0.16838  0.13871  0.65088  1.0000
  H   H607      1.0  0.20946  0.12473  0.65517  1.0000
  H   H608      1.0  0.24370  0.44043  0.70104  1.0000
  H   H609      1.0  0.02590  0.20000  0.66704  1.0000
  H   H610      1.0  0.16875  0.38532  0.70346  1.0000
  C   C376      1.0  0.00941  0.04454  0.53532  1.0000
  C   C377      1.0  0.04932  0.31240  0.66208  1.0000
  H   H611      1.0  0.19168  0.37011  0.69226  1.0000
  H   H612      1.0  0.21740  0.02383  0.53583  1.0000
  C   C378      1.0  0.22573  0.00291  0.62428  1.0000
  H   H613      1.0  0.06897  0.30924  0.66037  1.0000
  H   H614      1.0  0.19070  0.47196  0.60814  1.0000
  C   C379      1.0  0.21420  0.02907  0.52552  1.0000
  H   H615      1.0  0.17908  0.43136  0.71511  1.0000
  N   N20       1.0  0.22797  0.40913  0.70927  1.0000
  H   H616      1.0  0.00879  0.20766  0.60986  1.0000
  H   H617      1.0  0.09591  0.42700  0.57869  1.0000
  H   H618      1.0  0.13202  0.47536  0.69352  1.0000
  H   H619      1.0  0.06954  0.00439  0.61416  1.0000
  H   H620      1.0  0.04663  0.45988  0.54701  1.0000
  H   H621      1.0  0.25930  0.45239  0.67483  1.0000
  H   H622      1.0  0.19153  0.99334  0.56406  1.0000
  H   H623      1.0  0.20480  0.46985  0.67499  1.0000
  C   C380      1.0  0.01452  0.45070  0.56969  1.0000
  C   C381      1.0  0.03434  0.08785  0.63077  1.0000
  H   H624      1.0  0.03207  0.27093  0.65565  1.0000
  H   H625      1.0  0.27520  0.34867  0.72099  1.0000
  H   H626      1.0  0.17532  0.01674  0.66530  1.0000
  H   H627      1.0  0.17893  0.04872  0.53111  1.0000
  H   H628      1.0  0.23655  0.97989  0.67498  1.0000
  H   H629      1.0  0.04757  0.33290  0.62104  1.0000
  H   H630      1.0  0.04911  0.08305  0.63648  1.0000
  H   H631      1.0  0.16223  0.46894  0.60653  1.0000
  H   H632      1.0  0.29383  0.08840  0.71596  1.0000
  C   C382      1.0  0.01565  0.11918  0.61362  1.0000
  H   H633      1.0  0.05638  0.46333  0.63662  1.0000
  H   H634      1.0  0.02442  0.07966  0.54871  1.0000
  H   H635      1.0  0.24320  0.99087  0.49184  1.0000
  H   H636      1.0  0.19887  0.01672  0.51180  1.0000
  H   H637      1.0  0.04387  0.29618  0.66854  1.0000
  H   H638      1.0  0.17165  0.39539  0.68590  1.0000
  H   H639      1.0  0.17322  0.98074  0.52093  1.0000
  H   H640      1.0  0.18061  0.08057  0.60016  1.0000
  C   C383      1.0  0.02074  0.21572  0.67196  1.0000
  H   H641      1.0  0.27249  0.06997  0.64739  1.0000
  C   C384      1.0  0.18167  0.38760  0.69412  1.0000
  H   H642      1.0  0.07777  0.41074  0.59219  1.0000
  C   C385      1.0  0.04181  0.34707  0.62706  1.0000
  C   C386      1.0  0.16446  0.07400  0.59953  1.0000
  H   H643      1.0  0.07373  0.25335  0.63480  1.0000
  C   C387      1.0  0.19608  0.05179  0.52479  1.0000
  S   S101      1.0  0.28691  0.00392  0.70381  1.0000
  H   H644      1.0  0.00077  0.38664  0.69360  1.0000
  C   C388      1.0  0.24595  0.00291  0.49805  1.0000
  C   C389      1.0  0.04893  0.44997  0.58032  1.0000
  H   H645      1.0  0.00732  0.40073  0.62182  1.0000
  C   C390      1.0  0.98914  0.01780  0.55256  1.0000
  H   H646      1.0  0.15141  0.01437  0.57163  1.0000
  C   C391      1.0  0.17211  0.47323  0.61344  1.0000
  H   H647      1.0  0.99258  0.42303  0.64002  1.0000
  H   H648      1.0  0.04620  0.29817  0.63252  1.0000
  H   H649      1.0  0.99772  0.15757  0.58688  1.0000
  S   S102      1.0  0.25518  0.05563  0.70925  1.0000
  C   C392      1.0  0.16683  0.01870  0.57466  1.0000
  H   H650      1.0  0.99547  0.12733  0.59187  1.0000
  H   H651      1.0  0.98760  0.44008  0.65841  1.0000
  C   C393      1.0  0.01332  0.08729  0.55723  1.0000
  H   H652      1.0  0.04787  0.41399  0.57800  1.0000
  H   H653      1.0  0.14524  0.00472  0.62120  1.0000
  C   C394      1.0  0.05468  0.47278  0.55019  1.0000
  C   C395      1.0  0.98808  0.05333  0.53041  1.0000
  H   H654      1.0  0.04857  0.37377  0.60961  1.0000
  H   H655      1.0  0.27714  0.05148  0.63491  1.0000
  H   H656      1.0  0.01739  0.08976  0.63783  1.0000
  H   H657      1.0  0.99243  0.43638  0.55231  1.0000
  H   H658      1.0  0.00979  0.44375  0.61789  1.0000
  N   N21       1.0  0.20740  0.04558  0.65035  1.0000
  C   C396      1.0  0.22922  0.05705  0.64699  1.0000
  C   C397      1.0  0.18646  0.06384  0.64686  1.0000
  C   C398      1.0  0.20285  0.03753  0.66517  1.0000
  C   C399      1.0  0.21008  0.02437  0.64376  1.0000
  C   C400      1.0  0.22638  0.02453  0.63005  1.0000
  C   C401      1.0  0.25122  0.04194  0.65242  1.0000
  C   C402      1.0  0.17885  0.02904  0.67108  1.0000
  C   C403      1.0  0.18781  0.07623  0.63226  1.0000
  C   C404      1.0  0.16643  0.09572  0.63057  1.0000
  C   C405      1.0  0.99626  0.41407  0.61551  1.0000
  C   C406      1.0  0.98986  0.07801  0.56075  1.0000
  H   H659      1.0  0.22554  0.07383  0.65097  1.0000
  H   H660      1.0  0.23430  0.06235  0.63617  1.0000
  H   H661      1.0  0.17007  0.05590  0.64920  1.0000
  H   H662      1.0  0.18319  0.07777  0.65308  1.0000
  H   H663      1.0  0.20392  0.05188  0.67036  1.0000
  H   H664      1.0  0.21693  0.02277  0.66816  1.0000
  H   H665      1.0  0.21738  0.00797  0.65011  1.0000
  H   H666      1.0  0.19243  0.02139  0.64273  1.0000
  H   H667      1.0  0.24505  0.02392  0.63090  1.0000
  H   H668      1.0  0.22135  0.04046  0.62286  1.0000
  H   H669      1.0  0.24914  0.04205  0.66315  1.0000
  H   H670      1.0  0.25352  0.02336  0.65110  1.0000
  H   H671      1.0  0.00564  0.33723  0.65312  1.0000
  H   H672      1.0  0.16425  0.04438  0.67115  1.0000
  H   H673      1.0  0.20384  0.08455  0.62865  1.0000
  H   H674      1.0  0.18745  0.06343  0.62595  1.0000
  H   H675      1.0  0.16572  0.10929  0.63663  1.0000
  H   H676      1.0  0.16773  0.10453  0.62006  1.0000
  H   H677      1.0  0.14971  0.08835  0.63353  1.0000
  H   H678      1.0  0.04264  0.25653  0.63412  1.0000
  H   H679      1.0  0.07187  0.29706  0.63899  1.0000
  C   C407      1.0  0.00195  0.23370  0.66546  1.0000
  C   C408      1.0  0.31125  0.08806  0.71801  1.0000
  C   C409      1.0  0.12786  0.47490  0.58424  1.0000
  H   H680      1.0  0.04835  0.38312  0.62493  1.0000
  N   N22       1.0  0.01858  0.13881  0.60187  1.0000
  H   H681      1.0  0.07223  0.46429  0.55276  1.0000
  C   C410      1.0  0.04032  0.13067  0.59218  1.0000
  C   C411      1.0  0.99429  0.13969  0.64681  1.0000
  C   C412      1.0  0.02169  0.16014  0.60680  1.0000
  C   C413      1.0  0.02390  0.18276  0.59637  1.0000
  H   H682      1.0  0.20258  0.06551  0.52825  1.0000
  C   C414      1.0  0.03688  0.11090  0.62113  1.0000
  C   C415      1.0  0.03991  0.14004  0.57722  1.0000
  C   C416      1.0  0.06392  0.13336  0.56877  1.0000
  C   C417      1.0  0.02528  0.20337  0.60280  1.0000
  C   C418      1.0  0.26976  0.01088  0.49224  1.0000
  C   C419      1.0  0.19846  0.40395  0.69478  1.0000
  H   H683      1.0  0.17517  0.00126  0.61343  1.0000
  C   C420      1.0  0.99668  0.14334  0.59564  1.0000
  H   H684      1.0  0.05648  0.13501  0.59455  1.0000
  H   H685      1.0  0.04365  0.11108  0.59312  1.0000
  C   C421      1.0  0.25007  0.39422  0.71375  1.0000
  H   H686      1.0  0.20751  0.00246  0.62306  1.0000
  H   H687      1.0  0.00712  0.16436  0.61500  1.0000
  H   H688      1.0  0.03803  0.15633  0.61124  1.0000
  H   H689      1.0  0.31033  0.18096  0.70116  1.0000
  H   H690      1.0  0.04045  0.17999  0.58912  1.0000
  H   H691      1.0  0.00727  0.43847  0.57855  1.0000
  H   H692      1.0  0.19335  0.06359  0.47400  1.0000
  H   H693      1.0  0.03798  0.12429  0.62692  1.0000
  H   H694      1.0  0.05383  0.10802  0.61432  1.0000
  H   H695      1.0  0.02693  0.13219  0.57387  1.0000
  H   H696      1.0  0.03500  0.15944  0.57506  1.0000
  H   H697      1.0  0.07771  0.14086  0.57160  1.0000
  H   H698      1.0  0.06890  0.11390  0.56992  1.0000
  H   H699      1.0  0.06308  0.14045  0.55818  1.0000
  H   H700      1.0  0.04056  0.19909  0.60812  1.0000
  C   C422      1.0  0.09013  0.46747  0.59745  1.0000
  C   C423      1.0  0.20492  0.00933  0.52141  1.0000
  H   H701      1.0  0.23206  0.01876  0.49723  1.0000
  C   C424      1.0  0.10635  0.00901  0.60908  1.0000
  H   H702      1.0  0.28906  0.04052  0.64993  1.0000
  H   H703      1.0  0.02142  0.33768  0.67184  1.0000
  C   C425      1.0  0.04091  0.33237  0.67046  1.0000
  C   C426      1.0  0.01955  0.45961  0.64027  1.0000
  H   H704      1.0  0.02414  0.44147  0.63802  1.0000
  C   C427      1.0  0.05374  0.36800  0.61953  1.0000
  Fe  Fe52      1.0  0.24957  0.01783  0.71207  1.0000
  H   H705      1.0  0.00598  0.29230  0.64216  1.0000
  C   C428      1.0  0.99215  0.38330  0.65842  1.0000
  C   C429      1.0  0.00195  0.31164  0.64178  1.0000
  H   H706      1.0  0.22033  0.43847  0.69349  1.0000
  S   S103      1.0  0.27229  0.45016  0.71782  1.0000
  H   H707      1.0  0.01035  0.10679  0.55439  1.0000
  N   N23       1.0  0.22173  0.98637  0.52056  1.0000
  H   H708      1.0  0.01407  0.21004  0.68262  1.0000
  H   H709      1.0  0.19313  0.05851  0.51446  1.0000
  H   H710      1.0  0.07330  0.36300  0.61818  1.0000
  H   H711      1.0  0.23217  0.98647  0.63084  1.0000
  H   H712      1.0  0.01175  0.10360  0.61046  1.0000
  H   H713      1.0  0.15768  0.44803  0.58824  1.0000
  H   H714      1.0  0.18182  0.02817  0.69155  1.0000
  H   H715      1.0  0.30991  0.22169  0.70481  1.0000
  H   H716      1.0  0.02541  0.43911  0.56285  1.0000
  H   H717      1.0  0.28443  0.99572  0.49301  1.0000
  H   H718      1.0  0.99809  0.24921  0.67047  1.0000
  H   H719      1.0  0.06326  0.46016  0.57986  1.0000
  H   H720      1.0  0.12405  0.47470  0.61605  1.0000
  H   H721      1.0  0.31170  0.47608  0.71363  1.0000
  H   H722      1.0  0.18537  0.02222  0.55449  1.0000
  C   C430      1.0  0.17839  0.01642  0.68537  1.0000
  H   H723      1.0  0.99749  0.12110  0.65088  1.0000
  H   H724      1.0  0.00028  0.12455  0.62120  1.0000
  C   C431      1.0  0.25408  0.41787  0.68633  1.0000
  H   H725      1.0  0.22517  0.37737  0.70254  1.0000
  H   H726      1.0  0.03498  0.07339  0.62532  1.0000
  H   H727      1.0  0.17067  0.98580  0.58790  1.0000
  H   H728      1.0  0.00984  0.23916  0.65500  1.0000
  H   H729      1.0  0.06581  0.42948  0.56431  1.0000
  H   H730      1.0  0.04241  0.44425  0.59105  1.0000
  C   C432      1.0  0.05012  0.27149  0.64991  1.0000
  H   H731      1.0  0.19734  0.45425  0.71008  1.0000
  C   C433      1.0  0.31615  0.45908  0.71968  1.0000
  H   H732      1.0  0.30652  0.24863  0.68230  1.0000
  N   N24       1.0  0.04048  0.31666  0.64909  1.0000
  H   H733      1.0  0.12207  0.01706  0.58868  1.0000
  H   H734      1.0  0.03943  0.30956  0.68978  1.0000
  C   C434      1.0  0.04800  0.32466  0.68411  1.0000
  H   H735      1.0  0.03996  0.35428  0.64620  1.0000
  H   H736      1.0  0.06769  0.33774  0.64018  1.0000
  C   C435      1.0  0.17209  0.45321  0.62560  1.0000
  C   C436      1.0  0.25513  0.43559  0.67342  1.0000
  H   H737      1.0  0.02310  0.08200  0.56567  1.0000
  H   H738      1.0  0.06753  0.31964  0.68316  1.0000
  H   H739      1.0  0.02761  0.21920  0.59509  1.0000
  C   C437      1.0  0.18011  0.42911  0.62138  1.0000
  H   H740      1.0  0.16425  0.03799  0.57429  1.0000
  H   H741      1.0  0.25011  0.40131  0.68447  1.0000
  C   C438      1.0  0.16983  0.04734  0.60012  1.0000
  H   H742      1.0  0.06265  0.26628  0.65703  1.0000
  H   H743      1.0  0.03677  0.22369  0.67105  1.0000
  C   C439      1.0  0.24565  0.99004  0.51257  1.0000
  H   H744      1.0  0.16075  0.01130  0.68949  1.0000
  H   H745      1.0  0.13443  0.04193  0.60894  1.0000
  H   H746      1.0  0.23066  0.03341  0.51891  1.0000
  C   C440      1.0  0.03978  0.47277  0.63318  1.0000
  H   H747      1.0  0.15422  0.45313  0.63167  1.0000
  H   H748      1.0  0.18468  0.45494  0.63176  1.0000
  C   C441      1.0  0.08458  0.00222  0.60589  1.0000
  H   H749      1.0  0.20444  0.01718  0.56664  1.0000
  C   C442      1.0  0.18755  0.46503  0.67616  1.0000
  C   C443      1.0  0.99860  0.38558  0.68376  1.0000
  H   H750      1.0  0.21001  0.40659  0.68497  1.0000
  C   C444      1.0  0.18849  0.01242  0.56438  1.0000
  H   H751      1.0  0.00800  0.32001  0.63152  1.0000
  C   C445      1.0  0.27381  0.05169  0.64569  1.0000
  C   C446      1.0  0.12773  0.00578  0.59776  1.0000
  H   H752      1.0  0.16775  0.42591  0.61549  1.0000
  H   H753      1.0  0.19821  0.42786  0.61546  1.0000
  H   H754      1.0  0.18029  0.41511  0.63031  1.0000
  H   H755      1.0  0.17711  0.03939  0.60930  1.0000
  H   H756      1.0  0.18748  0.00555  0.59055  1.0000
  H   H757      1.0  0.15035  0.07880  0.60783  1.0000
  H   H758      1.0  0.00785  0.30795  0.66163  1.0000
  H   H759      1.0  0.00539  0.41529  0.60507  1.0000
  C   C447      1.0  0.15751  0.99809  0.61267  1.0000
  N   N25       1.0  0.18996  0.20362  0.65041  1.0000
  C   C448      1.0  0.19323  0.22498  0.65527  1.0000
  C   C449      1.0  0.20927  0.18343  0.65400  1.0000
  C   C450      1.0  0.19314  0.20947  0.63548  1.0000
  C   C451      1.0  0.16574  0.19680  0.65567  1.0000
  C   C452      1.0  0.15381  0.20142  0.66976  1.0000
  C   C453      1.0  0.17776  0.24845  0.65014  1.0000
  C   C454      1.0  0.19448  0.18861  0.62826  1.0000
  C   C455      1.0  0.20943  0.17414  0.66891  1.0000
  C   C456      1.0  0.23216  0.15693  0.67109  1.0000
  C   C457      1.0  0.13174  0.18988  0.67467  1.0000
  C   C458      1.0  0.17650  0.26737  0.65838  1.0000
  C   C459      1.0  0.19023  0.19723  0.61404  1.0000
  H   H760      1.0  0.21198  0.22779  0.65229  1.0000
  H   H761      1.0  0.18997  0.22237  0.66621  1.0000
  H   H762      1.0  0.20811  0.16773  0.64998  1.0000
  H   H763      1.0  0.22690  0.18835  0.64933  1.0000
  H   H764      1.0  0.20952  0.21728  0.63134  1.0000
  H   H765      1.0  0.17832  0.22324  0.63234  1.0000
  H   H766      1.0  0.15288  0.20626  0.64906  1.0000
  H   H767      1.0  0.16645  0.17782  0.65552  1.0000
  H   H768      1.0  0.14821  0.22062  0.66972  1.0000
  H   H769      1.0  0.16572  0.19462  0.67708  1.0000
  H   H770      1.0  0.18524  0.25534  0.63975  1.0000
  H   H771      1.0  0.15960  0.24573  0.65033  1.0000
  H   H772      1.0  0.18128  0.17726  0.63345  1.0000
  H   H773      1.0  0.21233  0.17762  0.62785  1.0000
  H   H774      1.0  0.20825  0.18846  0.67450  1.0000
  H   H775      1.0  0.19445  0.16436  0.67314  1.0000
  H   H776      1.0  0.23484  0.14239  0.66540  1.0000
  H   H777      1.0  0.24770  0.16616  0.66802  1.0000
  H   H778      1.0  0.23103  0.14902  0.68173  1.0000
  H   H779      1.0  0.12379  0.19308  0.68482  1.0000
  H   H780      1.0  0.11844  0.19753  0.66815  1.0000
  H   H781      1.0  0.13619  0.17052  0.67491  1.0000
  H   H782      1.0  0.16740  0.26209  0.66865  1.0000
  H   H783      1.0  0.19449  0.27049  0.65854  1.0000
  H   H784      1.0  0.16624  0.28416  0.65400  1.0000
  H   H785      1.0  0.19194  0.18188  0.60908  1.0000
  H   H786      1.0  0.17210  0.20741  0.61389  1.0000
  H   H787      1.0  0.20331  0.20853  0.60841  1.0000
  C   C460      1.0  0.05580  0.25313  0.64082  1.0000
  H   H788      1.0  0.02244  0.35299  0.62778  1.0000
  H   H789      1.0  0.22046  0.97805  0.69987  1.0000
  C   C461      1.0  0.16978  0.00459  0.58861  1.0000
  S   S104      1.0  0.28585  0.98800  0.66834  1.0000
  H   H790      1.0  0.23737  0.00344  0.61446  1.0000
  H   H791      1.0  0.18766  0.42122  0.69616  1.0000
  N   N26       1.0  0.15055  0.01148  0.59977  1.0000
  H   H792      1.0  0.98948  0.00392  0.56113  1.0000
  H   H793      1.0  0.01869  0.45843  0.65106  1.0000
  H   H794      1.0  0.00854  0.18811  0.59116  1.0000
  H   H795      1.0  0.27197  0.41399  0.68909  1.0000
  H   H796      1.0  0.26023  0.38390  0.70604  1.0000
  C   C462      1.0  0.21354  0.39327  0.70584  1.0000
  C   C463      1.0  0.14720  0.03751  0.60003  1.0000
  H   H797      1.0  0.24505  0.99432  0.54069  1.0000
  H   H798      1.0  0.23807  0.43900  0.66980  1.0000
  C   C464      1.0  0.13882  0.45356  0.59087  1.0000
  C   C465      1.0  0.01384  0.31885  0.65193  1.0000
  H   H799      1.0  0.10167  0.02767  0.61048  1.0000
  H   H800      1.0  0.15871  0.08288  0.59003  1.0000
  C   C466      1.0  0.05255  0.29651  0.64196  1.0000
  H   H801      1.0  0.18370  0.04385  0.59151  1.0000
  H   H802      1.0  0.25455  0.00001  0.51740  1.0000
  H   H803      1.0  0.27248  0.02447  0.49745  1.0000
  H   H804      1.0  0.04930  0.34803  0.66570  1.0000
  C   C467      1.0  0.99227  0.43812  0.61973  1.0000
  H   H805      1.0  0.19191  0.00022  0.68582  1.0000
  H   H806      1.0  0.07137  0.47299  0.60008  1.0000
  H   H807      1.0  0.11008  0.99778  0.61853  1.0000
  C   C468      1.0  0.99574  0.47267  0.63606  1.0000
  H   H808      1.0  0.98778  0.06703  0.52178  1.0000
  H   H809      1.0  0.20870  0.98153  0.50354  1.0000
  H   H810      1.0  0.13032  0.98746  0.59590  1.0000
  H   H811      1.0  0.04235  0.47340  0.62235  1.0000
  C   C469      1.0  0.99351  0.46445  0.56283  1.0000
  H   H812      1.0  0.08817  0.98356  0.60445  1.0000
  H   H813      1.0  0.15230  0.00491  0.47424  1.0000
  C   C470      1.0  0.21439  0.42112  0.72062  1.0000
  H   H814      1.0  0.99978  0.47625  0.55361  1.0000
  H   H815      1.0  0.11543  0.98897  0.48464  1.0000
  H   H816      1.0  0.31435  0.14004  0.69690  1.0000
  H   H817      1.0  0.31595  0.98363  0.53141  1.0000
  H   H818      1.0  0.31626  0.15893  0.71513  1.0000
  H   H819      1.0  0.20381  0.97851  0.71628  1.0000
  H   H820      1.0  0.31838  0.02042  0.48888  1.0000
  S   S105      1.0  0.20424  0.01279  0.47277  1.0000
  S   S106      1.0  0.21565  0.01754  0.94083  1.0000
  Fe  Fe53      1.0  0.25358  0.02172  0.93951  1.0000
  C   C471      1.0  0.26910  0.35937  0.72898  1.0000
  H   H821      1.0  0.31671  0.23362  0.72637  1.0000
  C   C472      1.0  0.30553  0.45521  0.75808  1.0000
  H   H822      1.0  0.09687  0.10016  0.95653  1.0000
  H   H823      1.0  0.31851  0.98234  0.86644  1.0000
  H   H824      1.0  0.13744  0.08027  0.95874  1.0000
  H   H825      1.0  0.05132  0.29536  0.96702  1.0000
  H   H826      1.0  0.10218  0.13118  0.96351  1.0000
  H   H827      1.0  0.02951  0.34263  0.96758  1.0000
  H   H828      1.0  0.99016  0.35378  0.95961  1.0000
  H   H829      1.0  0.05734  0.10598  0.96563  1.0000
  H   H830      1.0  0.29105  0.05312  0.80739  1.0000
  H   H831      1.0  0.29925  0.22690  0.75026  1.0000
  H   H832      1.0  0.21575  0.47637  0.94291  1.0000
  C   C473      1.0  0.30812  0.03285  0.89881  1.0000
  C   C474      1.0  0.29929  0.02400  0.91202  1.0000
  H   H833      1.0  0.31017  0.01434  0.95101  1.0000
  H   H834      1.0  0.28319  0.36931  0.72926  1.0000
  H   H835      1.0  0.19265  0.45701  0.73434  1.0000
  H   H836      1.0  0.26497  0.02299  0.81734  1.0000
  C   C475      1.0  0.24622  0.37628  0.72679  1.0000
  C   C476      1.0  0.30122  0.21292  0.74425  1.0000
  C   C477      1.0  0.24701  0.00466  0.90581  1.0000
  H   H837      1.0  0.17120  0.12713  0.96463  1.0000
  H   H838      1.0  0.26089  0.01355  0.89893  1.0000
  H   H839      1.0  0.27781  0.99229  0.82037  1.0000
  H   H840      1.0  0.29330  0.99478  0.75899  1.0000
  H   H841      1.0  0.30689  0.08377  0.82221  1.0000
  C   C478      1.0  0.30353  0.01607  0.81436  1.0000
  C   C479      1.0  0.22658  0.47033  0.75242  1.0000
  C   C480      1.0  0.30004  0.44332  0.72314  1.0000
  H   H842      1.0  0.29241  0.98899  0.78276  1.0000
  H   H843      1.0  0.06967  0.32634  0.96841  1.0000
  H   H844      1.0  0.30395  0.01055  0.87082  1.0000
  S   S107      1.0  0.23144  0.99963  0.73178  1.0000
  C   C481      1.0  0.31447  0.99437  0.73274  1.0000
  H   H845      1.0  0.31756  0.00167  0.81120  1.0000
  C   C482      1.0  0.27984  0.00950  0.81385  1.0000
  C   C483      1.0  0.30157  0.99493  0.86714  1.0000
  H   H846      1.0  0.29297  0.05791  0.82775  1.0000
  C   C484      1.0  0.31484  0.43491  0.76837  1.0000
  H   H847      1.0  0.23257  0.36572  0.72670  1.0000
  H   H848      1.0  0.29894  0.00860  0.73396  1.0000
  C   C485      1.0  0.30710  0.03986  0.80514  1.0000
  H   H849      1.0  0.29912  0.04921  0.89390  1.0000
  H   H850      1.0  0.18627  0.08671  0.95969  1.0000
  Fe  Fe54      1.0  0.21047  0.02472  0.96168  1.0000
  S   S108      1.0  0.27394  0.03991  0.92062  1.0000
  H   H851      1.0  0.29781  0.07569  0.84628  1.0000
  H   H852      1.0  0.31647  0.47126  0.90407  1.0000
  C   C486      1.0  0.12396  0.06982  0.95824  1.0000
  C   C487      1.0  0.24598  0.98070  0.90218  1.0000
  H   H853      1.0  0.20888  0.01332  0.91207  1.0000
  H   H854      1.0  0.26533  0.99640  0.87646  1.0000
  H   H855      1.0  0.29716  0.00082  0.85705  1.0000
  H   H856      1.0  0.08630  0.07254  0.96111  1.0000
  H   H857      1.0  0.28428  0.21418  0.74078  1.0000
  S   S109      1.0  0.24712  0.03300  0.95942  1.0000
  H   H858      1.0  0.30496  0.99633  0.92848  1.0000
  H   H859      1.0  0.31085  0.08473  0.80038  1.0000
  H   H860      1.0  0.26603  0.34722  0.73857  1.0000
  C   C488      1.0  0.30940  0.06500  0.82708  1.0000
  H   H861      1.0  0.29351  0.98847  0.89357  1.0000
  H   H862      1.0  0.25828  0.08508  0.95827  1.0000
  H   H863      1.0  0.07448  0.25373  0.96707  1.0000
  H   H864      1.0  0.12745  0.05214  0.96445  1.0000
  H   H865      1.0  0.21463  0.45933  0.75954  1.0000
  H   H866      1.0  0.30740  0.10868  0.77820  1.0000
  H   H867      1.0  0.22449  0.03803  0.90836  1.0000
  H   H868      1.0  0.25104  0.11222  0.96494  1.0000
  C   C489      1.0  0.24368  0.09762  0.96290  1.0000
  H   H869      1.0  0.23825  0.98484  0.89302  1.0000
  C   C490      1.0  0.31287  0.06425  0.84120  1.0000
  H   H870      1.0  0.21952  0.02560  0.89506  1.0000
  C   C491      1.0  0.22348  0.02135  0.90527  1.0000
  H   H871      1.0  0.27890  0.00789  0.80363  1.0000
  H   H872      1.0  0.12576  0.06751  0.94783  1.0000
  H   H873      1.0  0.30659  0.05628  0.94241  1.0000
  C   C492      1.0  0.17549  0.08915  0.96915  1.0000
  H   H874      1.0  0.22631  0.43017  0.72415  1.0000
  H   H875      1.0  0.08935  0.17409  0.95847  1.0000
  Fe  Fe55      1.0  0.22796  0.97972  0.94915  1.0000
  H   H876      1.0  0.29371  0.44865  0.75321  1.0000
  S   S110      1.0  0.22041  0.98630  0.97012  1.0000
  Fe  Fe56      1.0  0.25713  0.99467  0.96723  1.0000
  H   H877      1.0  0.25049  0.00213  0.91604  1.0000
  C   C493      1.0  0.30616  0.42120  0.73090  1.0000
  H   H878      1.0  0.30698  0.03706  0.79502  1.0000
  C   C494      1.0  0.08431  0.13870  0.96827  1.0000
  H   H879      1.0  0.24940  0.99015  0.79372  1.0000
  C   C495      1.0  0.08486  0.16440  0.96868  1.0000
  C   C496      1.0  0.18009  0.44977  0.73032  1.0000
  H   H880      1.0  0.23136  0.10515  0.95577  1.0000
  H   H881      1.0  0.31358  0.04598  0.84683  1.0000
  H   H882      1.0  0.08802  0.36142  0.96584  1.0000
  H   H883      1.0  0.25428  0.45797  0.76383  1.0000
  H   H884      1.0  0.24058  0.38562  0.73538  1.0000
  H   H885      1.0  0.23522  0.46071  0.74416  1.0000
  H   H886      1.0  0.27985  0.47109  0.77337  1.0000
  C   C497      1.0  0.09916  0.08262  0.96286  1.0000
  H   H887      1.0  0.31817  0.06544  0.77955  1.0000
  C   C498      1.0  0.31125  0.00301  0.91828  1.0000
  H   H888      1.0  0.17251  0.43603  0.73806  1.0000
  H   H889      1.0  0.30005  0.42886  0.77595  1.0000
  C   C499      1.0  0.16681  0.11204  0.97195  1.0000
  S   S111      1.0  0.23080  0.46169  0.97011  1.0000
  C   C500      1.0  0.28172  0.98316  0.87630  1.0000
  H   H890      1.0  0.29379  0.40891  0.73364  1.0000
  H   H891      1.0  0.07117  0.13877  0.96205  1.0000
  S   S112      1.0  0.26608  0.98382  0.94719  1.0000
  H   H892      1.0  0.16549  0.46426  0.72779  1.0000
  H   H893      1.0  0.30508  0.19552  0.75067  1.0000
  H   H894      1.0  0.30376  0.01673  0.82481  1.0000
  H   H895      1.0  0.20799  0.40794  0.72918  1.0000
  H   H896      1.0  0.00838  0.31212  0.96562  1.0000
  H   H897      1.0  0.01562  0.12072  0.96269  1.0000
  C   C501      1.0  0.29274  0.47690  0.76447  1.0000
  C   C502      1.0  0.24507  0.47526  0.75937  1.0000
  H   H898      1.0  0.30911  0.97945  0.72977  1.0000
  C   C503      1.0  0.31519  0.10521  0.72458  1.0000
  H   H899      1.0  0.30063  0.11864  0.72752  1.0000
  H   H900      1.0  0.30813  0.19323  0.72324  1.0000
  C   C504      1.0  0.30554  0.97809  0.75734  1.0000
  H   H901      1.0  0.16860  0.87720  0.97469  1.0000
  C   C505      1.0  0.28388  0.68952  0.10666  1.0000
  C   C506      1.0  0.11518  0.52334  0.97609  1.0000
  S   S113      1.0  0.27278  0.53113  0.99856  1.0000
  H   H902      1.0  0.17554  0.64307  0.20257  1.0000
  H   H903      1.0  0.27517  0.94389  0.21539  1.0000
  H   H904      1.0  0.24704  0.51634  0.14820  1.0000
  H   H905      1.0  0.15821  0.57586  0.98961  1.0000
  C   C507      1.0  0.25924  0.60473  0.22110  1.0000
  Fe  Fe57      1.0  0.26064  0.55378  0.18788  1.0000
  S   S114      1.0  0.22977  0.54421  0.18157  1.0000
  S   S115      1.0  0.27363  0.58548  0.17368  1.0000
  Fe  Fe58      1.0  0.25533  0.51731  0.21365  1.0000
  H   H906      1.0  0.14711  0.67593  0.21051  1.0000
  H   H907      1.0  0.28941  0.60187  0.07691  1.0000
  Fe  Fe59      1.0  0.21169  0.54467  0.20270  1.0000
  H   H908      1.0  0.15820  0.68389  0.19314  1.0000
  S   S116      1.0  0.27754  0.51595  0.19346  1.0000
  S   S117      1.0  0.24143  0.55614  0.20860  1.0000
  H   H909      1.0  0.13458  0.56006  0.97800  1.0000
  C   C508      1.0  0.18258  0.65818  0.20419  1.0000
  H   H910      1.0  0.29341  0.65463  0.17830  1.0000
  C   C509      1.0  0.14082  0.59547  0.22008  1.0000
  H   H911      1.0  0.29608  0.51680  0.14828  1.0000
  H   H912      1.0  0.26480  0.66045  0.11247  1.0000
  H   H913      1.0  0.08999  0.50190  0.97427  1.0000
  H   H914      1.0  0.21523  0.59470  0.17061  1.0000
  C   C510      1.0  0.25385  0.92509  0.17159  1.0000
  H   H915      1.0  0.28070  0.66396  0.09567  1.0000
  C   C511      1.0  0.25223  0.60975  0.14108  1.0000
  H   H916      1.0  0.08598  0.51037  0.99023  1.0000
  H   H917      1.0  0.25252  0.94593  0.18617  1.0000
  H   H918      1.0  0.21159  0.67715  0.19731  1.0000
  H   H919      1.0  0.21409  0.63725  0.16877  1.0000
  H   H920      1.0  0.27445  0.48423  0.12141  1.0000
  H   H921      1.0  0.31909  0.56605  0.18268  1.0000
  Fe  Fe60      1.0  0.26640  0.52790  0.97820  1.0000
  C   C512      1.0  0.24727  0.51758  0.13749  1.0000
  C   C513      1.0  0.26997  0.50022  0.05444  1.0000
  H   H922      1.0  0.18525  0.56228  0.98065  1.0000
  H   H923      1.0  0.26510  0.62149  0.11502  1.0000
  H   H924      1.0  0.27682  0.63392  0.13506  1.0000
  H   H925      1.0  0.18801  0.59592  0.18255  1.0000
  C   C514      1.0  0.16307  0.67969  0.20315  1.0000
  H   H926      1.0  0.23398  0.90718  0.19570  1.0000
  H   H927      1.0  0.31728  0.62680  0.08992  1.0000
  N   N27       1.0  0.21192  0.93575  0.20474  1.0000
  H   H928      1.0  0.25132  0.59106  0.14110  1.0000
  C   C515      1.0  0.31182  0.49390  0.08435  1.0000
  H   H929      1.0  0.16619  0.48268  0.02709  1.0000
  H   H930      1.0  0.31918  0.65192  0.10416  1.0000
  H   H931      1.0  0.15086  0.83877  0.99274  1.0000
  H   H932      1.0  0.18625  0.63972  0.17988  1.0000
  H   H933      1.0  0.16445  0.92727  0.20738  1.0000
  C   C516      1.0  0.29847  0.53616  0.00344  1.0000
  C   C517      1.0  0.29686  0.54024  0.01637  1.0000
  N   N28       1.0  0.22485  0.64179  0.19337  1.0000
  H   H934      1.0  0.31350  0.49921  0.03706  1.0000
  H   H935      1.0  0.21088  0.90100  0.21683  1.0000
  H   H936      1.0  0.27976  0.54230  0.02270  1.0000
  H   H937      1.0  0.21054  0.53427  0.13959  1.0000
  C   C518      1.0  0.17744  0.91147  0.21028  1.0000
  H   H938      1.0  0.20997  0.92138  0.18770  1.0000
  H   H939      1.0  0.27028  0.52583  0.11866  1.0000
  H   H940      1.0  0.20068  0.67048  0.18428  1.0000
  H   H941      1.0  0.28449  0.69130  0.11691  1.0000
  H   H942      1.0  0.27988  0.49340  0.15267  1.0000
  H   H943      1.0  0.18623  0.65445  0.21445  1.0000
  C   C519      1.0  0.31725  0.54113  0.02133  1.0000
  H   H944      1.0  0.16884  0.69520  0.20525  1.0000
  H   H945      1.0  0.17920  0.95963  0.20967  1.0000
  C   C520      1.0  0.28032  0.67075  0.17601  1.0000
  H   H946      1.0  0.20919  0.49569  0.16836  1.0000
  H   H947      1.0  0.28835  0.62754  0.15806  1.0000
  C   C521      1.0  0.16468  0.58469  0.21807  1.0000
  H   H948      1.0  0.13343  0.86083  0.97352  1.0000
  H   H949      1.0  0.30220  0.97253  0.00656  1.0000
  C   C522      1.0  0.31378  0.50874  0.12198  1.0000
  H   H950      1.0  0.28982  0.60327  0.13930  1.0000
  H   H951      1.0  0.28669  0.97329  0.19613  1.0000
  H   H952      1.0  0.24189  0.91853  0.16676  1.0000
  C   C523      1.0  0.15453  0.82357  0.98744  1.0000
  H   H953      1.0  0.11001  0.48757  0.98567  1.0000
  H   H954      1.0  0.27496  0.53840  0.13178  1.0000
  H   H955      1.0  0.23878  0.95615  0.20544  1.0000
  H   H956      1.0  0.12813  0.58945  0.21593  1.0000
  H   H957      1.0  0.12256  0.49089  0.03365  1.0000
  H   H958      1.0  0.26485  0.93625  0.16388  1.0000
  C   C524      1.0  0.28105  0.61264  0.11940  1.0000
  H   H959      1.0  0.18344  0.90185  0.20183  1.0000
  H   H960      1.0  0.27120  0.62497  0.20228  1.0000
  C   C525      1.0  0.30638  0.59217  0.07982  1.0000
  H   H961      1.0  0.26590  0.90990  0.17616  1.0000
  H   H962      1.0  0.16585  0.54416  0.99221  1.0000
  C   C526      1.0  0.27185  0.52188  0.12935  1.0000
  S   S118      1.0  0.22861  0.52583  0.97750  1.0000
  C   C527      1.0  0.30735  0.48194  0.04067  1.0000
  H   H963      1.0  0.27633  0.59241  0.22092  1.0000
  H   H964      1.0  0.31572  0.54398  0.03134  1.0000
  C   C528      1.0  0.29550  0.49942  0.14584  1.0000
  H   H965      1.0  0.24927  0.61240  0.15150  1.0000
  H   H966      1.0  0.18965  0.48462  0.15218  1.0000
  H   H967      1.0  0.28178  0.59355  0.11963  1.0000
  C   C529      1.0  0.22354  0.92485  0.19273  1.0000
  C   C530      1.0  0.30110  0.59561  0.17065  1.0000
  C   C531      1.0  0.30338  0.61728  0.16222  1.0000
  H   H968      1.0  0.28622  0.62714  0.09354  1.0000
  C   C532      1.0  0.09937  0.50461  0.98187  1.0000
  H   H969      1.0  0.30023  0.69449  0.10006  1.0000
  H   H970      1.0  0.26010  0.66616  0.19554  1.0000
  Fe  Fe61      1.0  0.24534  0.50661  0.18836  1.0000
  H   H971      1.0  0.27690  0.51707  0.05263  1.0000
  H   H972      1.0  0.21838  0.62476  0.21378  1.0000
  C   C533      1.0  0.20539  0.66279  0.19421  1.0000
  H   H973      1.0  0.25664  0.60150  0.20148  1.0000
  C   C534      1.0  0.30973  0.95047  0.18346  1.0000
  C   C535      1.0  0.15340  0.56009  0.97362  1.0000
  H   H974      1.0  0.28742  0.68610  0.17731  1.0000
  H   H975      1.0  0.23792  0.62145  0.13624  1.0000
  H   H976      1.0  0.30877  0.54732  0.12051  1.0000
  H   H977      1.0  0.27477  0.48932  0.06380  1.0000
  C   C536      1.0  0.16253  0.83150  0.97265  1.0000
  H   H978      1.0  0.18806  0.61112  0.16576  1.0000
  H   H979      1.0  0.24489  0.68610  0.18339  1.0000
  H   H980      1.0  0.29705  0.93884  0.18457  1.0000
  H   H981      1.0  0.25925  0.63331  0.18143  1.0000
  C   C537      1.0  0.23233  0.63343  0.20672  1.0000
  H   H982      1.0  0.27813  0.67314  0.16552  1.0000
  C   C538      1.0  0.22782  0.53783  0.13357  1.0000
  H   H983      1.0  0.29700  0.47929  0.99452  1.0000
  C   C539      1.0  0.16653  0.56050  0.98470  1.0000
  C   C540      1.0  0.19887  0.91794  0.21454  1.0000
  H   H984      1.0  0.27756  0.50200  0.09623  1.0000
  H   H985      1.0  0.26059  0.91450  0.20651  1.0000
  C   C541      1.0  0.19395  0.95745  0.20117  1.0000
  C   C542      1.0  0.28163  0.66432  0.10607  1.0000
  H   H986      1.0  0.23120  0.55470  0.13538  1.0000
  C   C543      1.0  0.20347  0.62814  0.17762  1.0000
  H   H987      1.0  0.22667  0.53947  0.12297  1.0000
  C   C544      1.0  0.21650  0.62173  0.18966  1.0000
  S   S119      1.0  0.17344  0.56157  0.20869  1.0000
  C   C545      1.0  0.25671  0.66890  0.18530  1.0000
  C   C546      1.0  0.24525  0.64889  0.18290  1.0000
  C   C547      1.0  0.28976  0.48883  0.09130  1.0000
  H   H988      1.0  0.23165  0.60759  0.18750  1.0000
  S   S120      1.0  0.22428  0.50595  0.20890  1.0000
  H   H989      1.0  0.23960  0.65516  0.17313  1.0000
  C   C548      1.0  0.19840  0.60606  0.17396  1.0000
  H   H990      1.0  0.20461  0.61298  0.19812  1.0000
  H   H991      1.0  0.15137  0.47977  0.99663  1.0000
  H   H992      1.0  0.26847  0.70198  0.10332  1.0000
  H   H993      1.0  0.13836  0.81543  0.98921  1.0000
  C   C549      1.0  0.27645  0.61564  0.13405  1.0000
  C   C550      1.0  0.23963  0.93958  0.18197  1.0000
  H   H994      1.0  0.19030  0.48966  0.98437  1.0000
  C   C551      1.0  0.30311  0.61810  0.09684  1.0000
  H   H995      1.0  0.24268  0.90648  0.22241  1.0000
  H   H996      1.0  0.18550  0.95532  0.19301  1.0000
  H   H997      1.0  0.25039  0.50427  0.05559  1.0000
  H   H998      1.0  0.30845  0.57371  0.07828  1.0000
  C   C552      1.0  0.24986  0.92124  0.21538  1.0000
  H   H999      1.0  0.16872  0.81029  0.99155  1.0000
  H   H1000     1.0  0.01513  0.76217  0.21271  1.0000
  H   H1001     1.0  0.12354  0.52544  0.98425  1.0000
  C   C553      1.0  0.30298  0.64661  0.11070  1.0000
  H   H1002     1.0  0.24249  0.50117  0.13593  1.0000
  H   H1003     1.0  0.29228  0.58305  0.10029  1.0000
  C   C554      1.0  0.30384  0.96993  0.19005  1.0000
  N   N29       1.0  0.30293  0.62087  0.11087  1.0000
  H   H1004     1.0  0.31037  0.51078  0.11174  1.0000
  C   C555      1.0  0.22984  0.94161  0.21152  1.0000
  H   H1005     1.0  0.17438  0.91691  0.97447  1.0000
  N   N30       1.0  0.29227  0.50212  0.13168  1.0000
  C   C556      1.0  0.25592  0.61585  0.20695  1.0000
  C   C557      1.0  0.30663  0.59239  0.09430  1.0000
  H   H1006     1.0  0.30404  0.64992  0.12056  1.0000
  H   H1007     1.0  0.23378  0.64856  0.21119  1.0000
  H   H1008     1.0  0.22863  0.95488  0.17677  1.0000
  H   H1009     1.0  0.27364  0.49825  0.03399  1.0000
  C   C558      1.0  0.27994  0.48698  0.04289  1.0000
  H   H1010     1.0  0.16880  0.52308  0.97399  1.0000
  H   H1011     1.0  0.31677  0.49281  0.01445  1.0000
  H   H1012     1.0  0.14924  0.89083  0.21831  1.0000
  H   H1013     1.0  0.19918  0.58429  0.22224  1.0000
  C   C559      1.0  0.21749  0.48088  0.16349  1.0000
  H   H1014     1.0  0.22062  0.94833  0.22067  1.0000
  C   C560      1.0  0.26655  0.92968  0.22216  1.0000
  H   H1015     1.0  0.30409  0.93923  0.97497  1.0000
  C   C561      1.0  0.31708  0.48167  0.15003  1.0000
  C   C562      1.0  0.16423  0.89554  0.22161  1.0000
  C   C563      1.0  0.28599  0.47988  0.12911  1.0000
  H   H1016     1.0  0.30441  0.47983  0.17123  1.0000
  H   H1017     1.0  0.24712  0.47820  0.00870  1.0000
  H   H1018     1.0  0.10368  0.54001  0.97275  1.0000
  Fe  Fe62      1.0  0.08857  0.52498  0.36756  1.0000
  S   S121      1.0  0.10723  0.55413  0.36925  1.0000
  S   S122      1.0  0.04796  0.53053  0.37145  1.0000
  N   N31       1.0  0.01874  0.81898  0.26191  1.0000
  S   S123      1.0  0.15759  0.51889  0.36190  1.0000
  Fe  Fe63      1.0  0.13229  0.52637  0.38032  1.0000
  S   S124      1.0  0.14669  0.52195  0.39962  1.0000
  Fe  Fe64      1.0  0.13115  0.54424  0.35083  1.0000
  S   S125      1.0  0.14338  0.57171  0.33360  1.0000
  H   H1019     1.0  0.14848  0.52360  0.30216  1.0000
  S   S126      1.0  0.11150  0.51651  0.34861  1.0000
  Fe  Fe65      1.0  0.27186  0.58007  0.44857  1.0000
  S   S127      1.0  0.28539  0.54275  0.45713  1.0000
  S   S128      1.0  0.28165  0.61309  0.45303  1.0000
  Fe  Fe66      1.0  0.23819  0.56387  0.43376  1.0000
  S   S129      1.0  0.24936  0.52568  0.44174  1.0000
  S   S130      1.0  0.21258  0.57752  0.41905  1.0000
  C   C564      1.0  0.07858  0.93801  0.36346  1.0000
  H   H1020     1.0  0.99234  0.75610  0.24204  1.0000
  Fe  Fe67      1.0  0.28637  0.53407  0.43701  1.0000
  N   N32       1.0  0.23377  0.51195  0.28421  1.0000
  S   S131      1.0  0.23351  0.57593  0.45329  1.0000
  S   S132      1.0  0.27519  0.57200  0.42816  1.0000
  Fe  Fe68      1.0  0.05817  0.90078  0.27471  1.0000
  S   S133      1.0  0.07808  0.86826  0.28539  1.0000
  S   S134      1.0  0.01856  0.90719  0.28164  1.0000
  Fe  Fe69      1.0  0.10358  0.91657  0.25808  1.0000
  S   S135      1.0  0.12672  0.88482  0.26739  1.0000
  S   S136      1.0  0.11576  0.94611  0.24180  1.0000
  Fe  Fe70      1.0  0.09954  0.86376  0.26556  1.0000
  S   S137      1.0  0.10740  0.83009  0.25662  1.0000
  Fe  Fe71      1.0  0.10296  0.89213  0.28648  1.0000
  S   S138      1.0  0.11671  0.88728  0.30567  1.0000
  S   S139      1.0  0.07809  0.89523  0.25469  1.0000
  S   S140      1.0  0.08145  0.92501  0.27734  1.0000
  Fe  Fe72      1.0  0.05292  0.67806  0.25689  1.0000
  S   S141      1.0  0.05288  0.67898  0.27808  1.0000
  S   S142      1.0  0.01651  0.68995  0.25127  1.0000
  Fe  Fe73      1.0  0.10635  0.66144  0.25149  1.0000
  S   S143      1.0  0.10962  0.66185  0.27242  1.0000
  C   C565      1.0  0.00466  0.61562  0.30700  1.0000
  Fe  Fe74      1.0  0.07752  0.64460  0.27797  1.0000
  S   S144      1.0  0.07159  0.61278  0.29375  1.0000
  Fe  Fe75      1.0  0.08487  0.69664  0.27063  1.0000
  S   S145      1.0  0.08616  0.72602  0.28164  1.0000
  S   S146      1.0  0.07530  0.64223  0.25726  1.0000
  S   S147      1.0  0.08377  0.69782  0.24920  1.0000
  H   H1021     1.0  0.16687  0.88932  0.29728  1.0000
  H   H1022     1.0  0.02107  0.86239  0.24402  1.0000
  H   H1023     1.0  0.10926  0.70744  0.33897  1.0000
  H   H1024     1.0  0.19129  0.92155  0.27371  1.0000
  H   H1025     1.0  0.05622  0.82018  0.25553  1.0000
  C   C566      1.0  0.13308  0.53192  0.25205  1.0000
  H   H1026     1.0  0.18725  0.54146  0.32194  1.0000
  H   H1027     1.0  0.12675  0.51927  0.44680  1.0000
  H   H1028     1.0  0.03562  0.59442  0.33765  1.0000
  H   H1029     1.0  0.05621  0.85305  0.22725  1.0000
  H   H1030     1.0  0.18575  0.48701  0.23205  1.0000
  N   N33       1.0  0.15155  0.54852  0.45591  1.0000
  N   N34       1.0  0.17438  0.96116  0.28647  1.0000
  C   C567      1.0  0.03562  0.51014  0.35262  1.0000
  H   H1031     1.0  0.22808  0.48164  0.27708  1.0000
  C   C568      1.0  0.26944  0.47932  0.28935  1.0000
  H   H1032     1.0  0.15080  0.59756  0.44086  1.0000
  H   H1033     1.0  0.05418  0.50770  0.34831  1.0000
  H   H1034     1.0  0.28101  0.53588  0.38047  1.0000
  H   H1035     1.0  0.09685  0.56285  0.43301  1.0000
  H   H1036     1.0  0.06859  0.96527  0.34764  1.0000
  H   H1037     1.0  0.07129  0.92365  0.37084  1.0000
  H   H1038     1.0  0.16269  0.52844  0.23572  1.0000
  H   H1039     1.0  0.02334  0.64565  0.24151  1.0000
  C   C569      1.0  0.14278  0.95654  0.23993  1.0000
  C   C570      1.0  0.16133  0.94347  0.24619  1.0000
  C   C571      1.0  0.18259  0.95231  0.24445  1.0000
  H   H1040     1.0  0.15932  0.92650  0.25229  1.0000
  H   H1041     1.0  0.28056  0.91481  0.22500  1.0000
  C   C572      1.0  0.12206  0.90618  0.31546  1.0000
  C   C573      1.0  0.13623  0.89588  0.32500  1.0000
  C   C574      1.0  0.14145  0.90932  0.33321  1.0000
  C   C575      1.0  0.13237  0.93334  0.33222  1.0000
  C   C576      1.0  0.11789  0.94399  0.32273  1.0000
  C   C577      1.0  0.11279  0.93036  0.31430  1.0000
  H   H1042     1.0  0.14339  0.87726  0.32604  1.0000
  H   H1043     1.0  0.15257  0.90091  0.34049  1.0000
  H   H1044     1.0  0.22867  0.55348  0.24091  1.0000
  H   H1045     1.0  0.10161  0.93837  0.30703  1.0000
  C   C578      1.0  0.10046  0.80159  0.26381  1.0000
  C   C579      1.0  0.09320  0.79498  0.27742  1.0000
  C   C580      1.0  0.08865  0.77188  0.28268  1.0000
  C   C581      1.0  0.09114  0.75517  0.27443  1.0000
  C   C582      1.0  0.09783  0.76196  0.26079  1.0000
  C   C583      1.0  0.10257  0.78498  0.25555  1.0000
  H   H1046     1.0  0.09153  0.80752  0.28390  1.0000
  H   H1047     1.0  0.08338  0.76690  0.29323  1.0000
  H   H1048     1.0  0.09983  0.74935  0.25431  1.0000
  H   H1049     1.0  0.10819  0.78989  0.24501  1.0000
  H   H1050     1.0  0.00808  0.84991  0.27128  1.0000
  C   C584      1.0  0.25951  0.50184  0.28017  1.0000
  C   C585      1.0  0.11821  0.53795  0.44625  1.0000
  H   H1051     1.0  0.03822  0.78166  0.24677  1.0000
  C   C586      1.0  0.00439  0.90408  0.25859  1.0000
  C   C587      1.0  0.03609  0.97026  0.31422  1.0000
  H   H1052     1.0  0.18981  0.92852  0.29759  1.0000
  H   H1053     1.0  0.19231  0.48555  0.24826  1.0000
  H   H1054     1.0  0.02089  0.90954  0.25339  1.0000
  C   C588      1.0  0.04630  0.89155  0.31742  1.0000
  H   H1055     1.0  0.07522  0.85264  0.23887  1.0000
  H   H1056     1.0  0.04418  0.49263  0.41153  1.0000
  H   H1057     1.0  0.31722  0.49466  0.39126  1.0000
  S   S148      1.0  0.14199  0.64859  0.23940  1.0000
  C   C589      1.0  0.03559  0.82710  0.28117  1.0000
  H   H1058     1.0  0.19569  0.51164  0.26936  1.0000
  C   C590      1.0  0.09142  0.60238  0.30495  1.0000
  C   C591      1.0  0.11321  0.60999  0.30277  1.0000
  C   C592      1.0  0.12920  0.60030  0.31155  1.0000
  C   C593      1.0  0.12311  0.58356  0.32275  1.0000
  C   C594      1.0  0.10105  0.57644  0.32509  1.0000
  C   C595      1.0  0.08543  0.58556  0.31609  1.0000
  H   H1059     1.0  0.11784  0.62306  0.29425  1.0000
  H   H1060     1.0  0.14629  0.60581  0.30970  1.0000
  H   H1061     1.0  0.09612  0.56369  0.33374  1.0000
  H   H1062     1.0  0.06870  0.57949  0.31772  1.0000
  C   C596      1.0  0.16616  0.53729  0.40418  1.0000
  C   C597      1.0  0.17944  0.52579  0.41414  1.0000
  C   C598      1.0  0.19433  0.53758  0.41850  1.0000
  C   C599      1.0  0.19556  0.56127  0.41323  1.0000
  C   C600      1.0  0.18239  0.57273  0.40325  1.0000
  C   C601      1.0  0.16789  0.56080  0.39868  1.0000
  H   H1063     1.0  0.10804  0.68193  0.29714  1.0000
  H   H1064     1.0  0.20459  0.52849  0.42606  1.0000
  H   H1065     1.0  0.18322  0.59105  0.39910  1.0000
  H   H1066     1.0  0.15766  0.56995  0.39111  1.0000
  H   H1067     1.0  0.15691  0.90481  0.23016  1.0000
  C   C602      1.0  0.02797  0.52127  0.36366  1.0000
  H   H1068     1.0  0.08235  0.95086  0.36882  1.0000
  H   H1069     1.0  0.19693  0.94197  0.24922  1.0000
  H   H1070     1.0  0.99431  0.62896  0.31287  1.0000
  H   H1071     1.0  0.00016  0.81985  0.24593  1.0000
  H   H1072     1.0  0.16710  0.62685  0.44826  1.0000
  H   H1073     1.0  0.09572  0.97392  0.27818  1.0000
  H   H1074     1.0  0.20294  0.55400  0.25365  1.0000
  H   H1075     1.0  0.21244  0.53065  0.36504  1.0000
  H   H1076     1.0  0.14741  0.55541  0.43541  1.0000
  H   H1077     1.0  0.20092  0.52670  0.45850  1.0000
  H   H1078     1.0  0.20052  0.54637  0.29792  1.0000
  H   H1079     1.0  0.19258  0.51758  0.30473  1.0000
  H   H1080     1.0  0.17365  0.52236  0.44502  1.0000
  C   C603      1.0  0.99058  0.76071  0.23146  1.0000
  C   C604      1.0  0.10632  0.54437  0.43401  1.0000
  H   H1081     1.0  0.03382  0.90003  0.31048  1.0000
  H   H1082     1.0  0.19052  0.60540  0.44159  1.0000
  H   H1083     1.0  0.18034  0.88164  0.28140  1.0000
  S   S149      1.0  0.11127  0.49815  0.38036  1.0000
  H   H1084     1.0  0.99799  0.54862  0.31899  1.0000
  C   C605      1.0  0.19588  0.49077  0.46471  1.0000
  H   H1085     1.0  0.26256  0.49711  0.27014  1.0000
  H   H1086     1.0  0.03993  0.65784  0.30654  1.0000
  C   C606      1.0  0.00364  0.52491  0.36887  1.0000
  H   H1087     1.0  0.03511  0.66097  0.32361  1.0000
  C   C607      1.0  0.03921  0.82710  0.25186  1.0000
  C   C608      1.0  0.22838  0.53495  0.27495  1.0000
  H   H1088     1.0  0.22537  0.57145  0.25337  1.0000
  C   C609      1.0  0.14970  0.62284  0.23213  1.0000
  H   H1089     1.0  0.99492  0.95865  0.26875  1.0000
  H   H1090     1.0  0.24482  0.59458  0.22607  1.0000
  H   H1091     1.0  0.04375  0.83479  0.29891  1.0000
  C   C610      1.0  0.14339  0.52800  0.23793  1.0000
  H   H1092     1.0  0.20958  0.51593  0.32459  1.0000
  H   H1093     1.0  0.25540  0.50898  0.41501  1.0000
  H   H1094     1.0  0.23449  0.50023  0.30513  1.0000
  H   H1095     1.0  0.11965  0.54225  0.42494  1.0000
  H   H1096     1.0  0.01827  0.92967  0.32600  1.0000
  H   H1097     1.0  0.11075  0.96258  0.32191  1.0000
  C   C611      1.0  0.15752  0.59232  0.45038  1.0000
  H   H1098     1.0  0.12522  0.57233  0.44558  1.0000
  H   H1099     1.0  0.01793  0.74569  0.26996  1.0000
  C   C612      1.0  0.24316  0.50946  0.39157  1.0000
  H   H1100     1.0  0.99175  0.90333  0.24078  1.0000
  H   H1101     1.0  0.13628  0.60603  0.35614  1.0000
  H   H1102     1.0  0.16702  0.96628  0.44662  1.0000
  H   H1103     1.0  0.10247  0.74029  0.31256  1.0000
  H   H1104     1.0  0.12337  0.53586  0.31309  1.0000
  C   C613      1.0  0.18086  0.59259  0.22353  1.0000
  H   H1105     1.0  0.99969  0.82385  0.28132  1.0000
  H   H1106     1.0  0.20484  0.94814  0.43498  1.0000
  H   H1107     1.0  0.05442  0.56892  0.26075  1.0000
  H   H1108     1.0  0.18243  0.60417  0.45932  1.0000
  C   C614      1.0  0.03106  0.75111  0.26114  1.0000
  H   H1109     1.0  0.23007  0.62437  0.46486  1.0000
  C   C615      1.0  0.02837  0.83783  0.29376  1.0000
  C   C616      1.0  0.26012  0.55044  0.39734  1.0000
  H   H1110     1.0  0.17985  0.56302  0.46007  1.0000
  H   H1111     1.0  0.02177  0.57476  0.35146  1.0000
  H   H1112     1.0  0.03152  0.95742  0.27816  1.0000
  C   C617      1.0  0.01797  0.56958  0.33206  1.0000
  C   C618      1.0  0.23072  0.51692  0.29807  1.0000
  H   H1113     1.0  0.25913  0.58716  0.39814  1.0000
  C   C619      1.0  0.99791  0.66889  0.25284  1.0000
  C   C620      1.0  0.05422  0.91010  0.32301  1.0000
  H   H1114     1.0  0.99361  0.63559  0.28861  1.0000
  H   H1115     1.0  0.04106  0.81962  0.24274  1.0000
  H   H1116     1.0  0.22238  0.48294  0.41731  1.0000
  H   H1117     1.0  0.17813  0.50765  0.41851  1.0000
  H   H1118     1.0  0.99487  0.60319  0.33255  1.0000
  H   H1119     1.0  0.25946  0.61852  0.22685  1.0000
  H   H1120     1.0  0.25655  0.54615  0.40827  1.0000
  H   H1121     1.0  0.13459  0.54184  0.23074  1.0000
  H   H1122     1.0  0.20701  0.50713  0.37877  1.0000
  H   H1123     1.0  0.24579  0.53788  0.37410  1.0000
  H   H1124     1.0  0.15878  0.93265  0.29978  1.0000
  H   H1125     1.0  0.20329  0.53711  0.38149  1.0000
  N   N35       1.0  0.26788  0.50652  0.39439  1.0000
  C   C621      1.0  0.16873  0.56582  0.45232  1.0000
  C   C622      1.0  0.98725  0.51693  0.36339  1.0000
  C   C623      1.0  0.27675  0.52982  0.39133  1.0000
  H   H1126     1.0  0.02137  0.61551  0.28637  1.0000
  H   H1127     1.0  0.08234  0.65735  0.30421  1.0000
  C   C624      1.0  0.20527  0.53297  0.31794  1.0000
  H   H1128     1.0  0.11391  0.53133  0.25374  1.0000
  H   H1129     1.0  0.10403  0.53986  0.45495  1.0000
  N   N36       1.0  0.12513  0.56336  0.26709  1.0000
  C   C625      1.0  0.09865  0.56678  0.26789  1.0000
  C   C626      1.0  0.13186  0.54459  0.27849  1.0000
  C   C627      1.0  0.13171  0.58661  0.26770  1.0000
  C   C628      1.0  0.13811  0.55552  0.25436  1.0000
  C   C629      1.0  0.08900  0.58006  0.25518  1.0000
  C   C630      1.0  0.15836  0.58632  0.26745  1.0000
  C   C631      1.0  0.12387  0.55147  0.29240  1.0000
  C   C632      1.0  0.12923  0.53038  0.30326  1.0000
  C   C633      1.0  0.06197  0.58549  0.25779  1.0000
  C   C634      1.0  0.16253  0.60878  0.27109  1.0000
  H   H1130     1.0  0.08953  0.57662  0.27602  1.0000
  H   H1131     1.0  0.09212  0.54960  0.27064  1.0000
  H   H1132     1.0  0.12429  0.52853  0.27879  1.0000
  H   H1133     1.0  0.15125  0.53862  0.27704  1.0000
  H   H1134     1.0  0.12119  0.59378  0.27653  1.0000
  H   H1135     1.0  0.12679  0.60022  0.25919  1.0000
  H   H1136     1.0  0.13461  0.56956  0.24577  1.0000
  H   H1137     1.0  0.15755  0.55299  0.25392  1.0000
  H   H1138     1.0  0.09585  0.59681  0.25137  1.0000
  H   H1139     1.0  0.09433  0.56931  0.24721  1.0000
  H   H1140     1.0  0.16835  0.58521  0.25733  1.0000
  H   H1141     1.0  0.16601  0.57128  0.27441  1.0000
  H   H1142     1.0  0.13332  0.56540  0.29339  1.0000
  H   H1143     1.0  0.10459  0.55800  0.29423  1.0000
  C   C635      1.0  0.13608  0.55453  0.44541  1.0000
  H   H1144     1.0  0.20956  0.96223  0.44770  1.0000
  C   C636      1.0  0.99673  0.82561  0.25570  1.0000
  C   C637      1.0  0.99928  0.90104  0.27239  1.0000
  H   H1145     1.0  0.05549  0.59631  0.26572  1.0000
  H   H1146     1.0  0.05556  0.59556  0.24865  1.0000
  H   H1147     1.0  0.15437  0.62463  0.26478  1.0000
  H   H1148     1.0  0.15504  0.60957  0.28161  1.0000
  H   H1149     1.0  0.18180  0.60899  0.26959  1.0000
  N   N37       1.0  0.03845  0.94319  0.33705  1.0000
  C   C638      1.0  0.01566  0.95560  0.34399  1.0000
  C   C639      1.0  0.04929  0.96092  0.32614  1.0000
  C   C640      1.0  0.03309  0.92333  0.33169  1.0000
  C   C641      1.0  0.05586  0.93306  0.34637  1.0000
  C   C642      1.0  0.06091  0.95042  0.35435  1.0000
  C   C643      1.0  0.13714  0.55109  0.46943  1.0000
  C   C644      1.0  0.99307  0.58486  0.33242  1.0000
  H   H1150     1.0  0.23618  0.47987  0.43161  1.0000
  H   H1151     1.0  0.01623  0.55077  0.33554  1.0000
  H   H1152     1.0  0.17614  0.87903  0.22486  1.0000
  H   H1153     1.0  0.12939  0.94809  0.28759  1.0000
  C   C645      1.0  0.11424  0.97530  0.27339  1.0000
  H   H1154     1.0  0.24302  0.55475  0.39370  1.0000
  H   H1155     1.0  0.16273  0.48594  0.33562  1.0000
  C   C646      1.0  0.99574  0.97219  0.27455  1.0000
  H   H1156     1.0  0.06778  0.95363  0.32225  1.0000
  H   H1157     1.0  0.18618  0.61802  0.23434  1.0000
  C   C647      1.0  0.01930  0.50173  0.34730  1.0000
  H   H1158     1.0  0.05022  0.91750  0.35347  1.0000
  H   H1159     1.0  0.07332  0.92606  0.34081  1.0000
  C   C648      1.0  0.17982  0.48340  0.28187  1.0000
  H   H1160     1.0  0.28501  0.49635  0.41157  1.0000
  H   H1161     1.0  0.21795  0.54470  0.31793  1.0000
  C   C649      1.0  0.99502  0.50496  0.35268  1.0000
  H   H1162     1.0  0.18372  0.51661  0.28582  1.0000
  H   H1163     1.0  0.06199  0.88151  0.31192  1.0000
  H   H1164     1.0  0.99031  0.52493  0.30417  1.0000
  H   H1165     1.0  0.24376  0.52803  0.29855  1.0000
  H   H1166     1.0  0.99133  0.97418  0.29532  1.0000
  H   H1167     1.0  0.02939  0.48610  0.39238  1.0000
  H   H1168     1.0  0.10448  0.62283  0.34351  1.0000
  S   S150      1.0  0.31775  0.51757  0.42315  1.0000
  C   C650      1.0  0.21411  0.52395  0.37556  1.0000
  H   H1169     1.0  0.27093  0.51531  0.27936  1.0000
  C   C651      1.0  0.98870  0.63548  0.24568  1.0000
  H   H1170     1.0  0.18129  0.56278  0.44307  1.0000
  H   H1171     1.0  0.25455  0.53378  0.25677  1.0000
  H   H1172     1.0  0.12796  0.70536  0.32323  1.0000
  H   H1173     1.0  0.14052  0.51059  0.23663  1.0000
  H   H1174     1.0  0.08294  0.74212  0.32825  1.0000
  H   H1175     1.0  0.31826  0.86622  0.45834  1.0000
  H   H1176     1.0  0.23792  0.54831  0.27671  1.0000
  C   C652      1.0  0.17342  0.61165  0.23043  1.0000
  C   C653      1.0  0.17653  0.91888  0.28206  1.0000
  H   H1177     1.0  0.06574  0.68329  0.31036  1.0000
  H   H1178     1.0  0.18611  0.47846  0.31394  1.0000
  C   C654      1.0  0.02493  0.77739  0.25571  1.0000
  C   C655      1.0  0.00523  0.64936  0.24645  1.0000
  H   H1179     1.0  0.21614  0.48238  0.29368  1.0000
  H   H1180     1.0  0.11307  0.74687  0.32609  1.0000
  S   S151      1.0  0.14027  0.94847  0.34316  1.0000
  H   H1181     1.0  0.02835  0.57127  0.32190  1.0000
  C   C656      1.0  0.02177  0.97403  0.27324  1.0000
  H   H1182     1.0  0.14270  0.59605  0.45854  1.0000
  C   C657      1.0  0.30269  0.61487  0.46269  1.0000
  H   H1183     1.0  0.06809  0.90086  0.32892  1.0000
  H   H1184     1.0  0.15992  0.92210  0.27797  1.0000
  C   C658      1.0  0.20342  0.96540  0.43806  1.0000
  H   H1185     1.0  0.05173  0.63404  0.31843  1.0000
  H   H1186     1.0  0.11792  0.63065  0.36292  1.0000
  C   C659      1.0  0.01434  0.83063  0.27389  1.0000
  H   H1187     1.0  0.02168  0.60932  0.31066  1.0000
  H   H1188     1.0  0.03774  0.87892  0.32548  1.0000
  H   H1189     1.0  0.14668  0.63381  0.35293  1.0000
  H   H1190     1.0  0.16269  0.49034  0.27841  1.0000
  H   H1191     1.0  0.09549  0.93052  0.35766  1.0000
  H   H1192     1.0  0.04889  0.56390  0.34141  1.0000
  H   H1193     1.0  0.20237  0.48588  0.45477  1.0000
  H   H1194     1.0  0.28825  0.56974  0.39733  1.0000
  H   H1195     1.0  0.19829  0.88825  0.29176  1.0000
  H   H1196     1.0  0.01450  0.93217  0.36351  1.0000
  C   C660      1.0  0.28425  0.49029  0.38575  1.0000
  H   H1197     1.0  0.04280  0.78785  0.26885  1.0000
  H   H1198     1.0  0.03442  0.95583  0.30934  1.0000
  H   H1199     1.0  0.99585  0.92663  0.35321  1.0000
  H   H1200     1.0  0.14499  0.68677  0.28170  1.0000
  H   H1201     1.0  0.01865  0.97165  0.34701  1.0000
  H   H1202     1.0  0.98780  0.96872  0.36765  1.0000
  H   H1203     1.0  0.01279  0.78639  0.27536  1.0000
  C   C661      1.0  0.18612  0.51711  0.46349  1.0000
  C   C662      1.0  0.03786  0.85412  0.24750  1.0000
  H   H1204     1.0  0.13282  0.62664  0.33347  1.0000
  H   H1205     1.0  0.03949  0.86234  0.25580  1.0000
  H   H1206     1.0  0.23037  0.52002  0.39839  1.0000
  H   H1207     1.0  0.27447  0.57853  0.38271  1.0000
  C   C663      1.0  0.05768  0.86008  0.23603  1.0000
  H   H1208     1.0  0.02663  0.90968  0.33996  1.0000
  C   C664      1.0  0.23527  0.53363  0.26000  1.0000
  C   C665      1.0  0.17558  0.60806  0.44987  1.0000
  H   H1209     1.0  0.04225  0.80814  0.28422  1.0000
  H   H1210     1.0  0.20942  0.54274  0.27698  1.0000
  S   S152      1.0  0.26354  0.50397  0.23440  1.0000
  H   H1211     1.0  0.14663  0.65639  0.28980  1.0000
  H   H1212     1.0  0.05644  0.87952  0.23328  1.0000
  C   C666      1.0  0.23998  0.52044  0.37715  1.0000
  C   C667      1.0  0.16568  0.52416  0.45541  1.0000
  C   C668      1.0  0.17472  0.93535  0.29216  1.0000
  H   H1213     1.0  0.15420  0.51047  0.45876  1.0000
  H   H1214     1.0  0.12408  0.70024  0.30228  1.0000
  C   C669      1.0  0.20586  0.52896  0.30394  1.0000
  H   H1215     1.0  0.28503  0.97475  0.47123  1.0000
  C   C670      1.0  0.18078  0.89298  0.28856  1.0000
  Fe  Fe76      1.0  0.24702  0.53829  0.46102  1.0000
  C   C671      1.0  0.02481  0.79262  0.26615  1.0000
  C   C672      1.0  0.03183  0.57619  0.34120  1.0000
  C   C673      1.0  0.27128  0.57278  0.39360  1.0000
  H   H1216     1.0  0.16207  0.67592  0.29479  1.0000
  H   H1217     1.0  0.14142  0.51696  0.25885  1.0000
  N   N38       1.0  0.10295  0.66922  0.32562  1.0000
  C   C674      1.0  0.09290  0.69502  0.32526  1.0000
  C   C675      1.0  0.08357  0.65614  0.32504  1.0000
  C   C676      1.0  0.11084  0.65968  0.33884  1.0000
  C   C677      1.0  0.12397  0.66501  0.31480  1.0000
  C   C678      1.0  0.12385  0.68187  0.30132  1.0000
  C   C679      1.0  0.10944  0.71019  0.32815  1.0000
  C   C680      1.0  0.11949  0.63262  0.34178  1.0000
  C   C681      1.0  0.07081  0.66396  0.31292  1.0000
  C   C682      1.0  0.04803  0.65352  0.31558  1.0000
  C   C683      1.0  0.14576  0.67469  0.29133  1.0000
  C   C684      1.0  0.10140  0.73646  0.32347  1.0000
  C   C685      1.0  0.13076  0.62548  0.35422  1.0000
  H   H1218     1.0  0.07620  0.69718  0.33256  1.0000
  H   H1219     1.0  0.08765  0.70328  0.31556  1.0000
  H   H1220     1.0  0.09056  0.63709  0.32509  1.0000
  H   H1221     1.0  0.06987  0.65705  0.33412  1.0000
  H   H1222     1.0  0.09627  0.66416  0.34706  1.0000
  H   H1223     1.0  0.12569  0.66814  0.33971  1.0000
  H   H1224     1.0  0.14064  0.66600  0.31804  1.0000
  H   H1225     1.0  0.12628  0.64680  0.31283  1.0000
  H   H1226     1.0  0.02553  0.49261  0.33897  1.0000
  H   H1227     1.0  0.05030  0.83551  0.27479  1.0000
  H   H1228     1.0  0.23150  0.51718  0.25792  1.0000
  C   C686      1.0  0.22219  0.55451  0.25153  1.0000
  H   H1229     1.0  0.25035  0.50869  0.37023  1.0000
  H   H1230     1.0  0.29376  0.52774  0.39495  1.0000
  C   C687      1.0  0.19405  0.50334  0.27992  1.0000
  H   H1231     1.0  0.09333  0.53251  0.43487  1.0000
  H   H1232     1.0  0.02230  0.85709  0.29135  1.0000
  H   H1233     1.0  0.06238  0.92219  0.31451  1.0000
  H   H1234     1.0  0.01396  0.82958  0.30059  1.0000
  H   H1235     1.0  0.04894  0.74696  0.26387  1.0000
  H   H1236     1.0  0.00276  0.96222  0.33710  1.0000
  H   H1237     1.0  0.99158  0.84508  0.25346  1.0000
  H   H1238     1.0  0.04462  0.95774  0.36068  1.0000
  C   C688      1.0  0.18541  0.97437  0.23660  1.0000
  H   H1239     1.0  0.06267  0.50226  0.39625  1.0000
  H   H1240     1.0  0.11504  0.62296  0.22825  1.0000
  H   H1241     1.0  0.29537  0.65283  0.45970  1.0000
  C   C689      1.0  0.05679  0.48653  0.40299  1.0000
  H   H1242     1.0  0.11967  0.51602  0.30302  1.0000
  Fe  Fe77      1.0  0.13565  0.49209  0.36152  1.0000
  C   C690      1.0  0.13331  0.61437  0.22714  1.0000
  H   H1243     1.0  0.30785  0.90532  0.44370  1.0000
  H   H1244     1.0  0.03100  0.74060  0.25349  1.0000
  H   H1245     1.0  0.18206  0.48024  0.47022  1.0000
  H   H1246     1.0  0.19226  0.92443  0.22410  1.0000
  C   C691      1.0  0.21876  0.49398  0.28389  1.0000
  C   C692      1.0  0.30574  0.63716  0.46438  1.0000
  C   C693      1.0  0.00271  0.94059  0.35624  1.0000
  C   C694      1.0  0.26753  0.49677  0.40888  1.0000
  C   C695      1.0  0.98783  0.90065  0.25146  1.0000
  H   H1247     1.0  0.99429  0.62094  0.24030  1.0000
  H   H1248     1.0  0.01992  0.64260  0.29211  1.0000
  C   C696      1.0  0.15634  0.97012  0.27745  1.0000
  C   C697      1.0  0.01015  0.62801  0.29264  1.0000
  H   H1249     1.0  0.21090  0.48642  0.47022  1.0000
  H   H1250     1.0  0.02442  0.73882  0.22577  1.0000
  H   H1251     1.0  0.00737  0.78029  0.25275  1.0000
  H   H1252     1.0  0.00519  0.58110  0.30328  1.0000
  H   H1253     1.0  0.99166  0.94598  0.29222  1.0000
  H   H1254     1.0  0.99745  0.53369  0.37733  1.0000
  H   H1255     1.0  0.21270  0.95448  0.28415  1.0000
  C   C698      1.0  0.18610  0.96998  0.30722  1.0000
  H   H1256     1.0  0.28730  0.49959  0.37532  1.0000
  H   H1257     1.0  0.30642  0.48123  0.28075  1.0000
  H   H1258     1.0  0.23712  0.49209  0.39369  1.0000
  C   C699      1.0  0.30891  0.48042  0.38964  1.0000
  C   C700      1.0  0.99171  0.59455  0.30797  1.0000
  H   H1259     1.0  0.11928  0.96408  0.26565  1.0000
  H   H1260     1.0  0.20415  0.97213  0.30191  1.0000
  C   C701      1.0  0.13055  0.96688  0.28365  1.0000
  H   H1261     1.0  0.27131  0.48370  0.29883  1.0000
  H   H1262     1.0  0.21507  0.97603  0.43049  1.0000
  H   H1263     1.0  0.18670  0.95177  0.31293  1.0000
  C   C702      1.0  0.01558  0.75741  0.22347  1.0000
  H   H1264     1.0  0.05069  0.97662  0.33011  1.0000
  H   H1265     1.0  0.25671  0.93646  0.23122  1.0000
  H   H1266     1.0  0.16149  0.96171  0.26854  1.0000
  C   C703      1.0  0.31616  0.59476  0.46884  1.0000
  H   H1267     1.0  0.31400  0.57752  0.46767  1.0000
  H   H1268     1.0  0.20180  0.95622  0.26947  1.0000
  C   C704      1.0  0.16799  0.97487  0.29770  1.0000
  H   H1269     1.0  0.12176  0.56558  0.46851  1.0000
  H   H1270     1.0  0.02619  0.76893  0.22604  1.0000
  C   C705      1.0  0.30215  0.96426  0.47237  1.0000
  H   H1271     1.0  0.06437  0.48043  0.37649  1.0000
  H   H1272     1.0  0.15112  0.97080  0.30407  1.0000
  C   C706      1.0  0.19851  0.96424  0.27852  1.0000
  C   C707      1.0  0.17782  0.97799  0.43925  1.0000
  H   H1273     1.0  0.16490  0.97792  0.46811  1.0000
  H   H1274     1.0  0.02990  0.97709  0.26262  1.0000
  H   H1275     1.0  0.06692  0.97799  0.29950  1.0000
  H   H1276     1.0  0.12354  0.97718  0.29176  1.0000
  H   H1277     1.0  0.20760  0.64619  0.47193  1.0000
  Fe  Fe78      1.0  0.24737  0.53115  0.68795  1.0000
  S   S153      1.0  0.21025  0.54257  0.69790  1.0000
  S   S154      1.0  0.26459  0.55223  0.66900  1.0000
  H   H1278     1.0  0.11785  0.52094  0.47274  1.0000
  Fe  Fe79      1.0  0.20631  0.50463  0.69920  1.0000
  C   C708      1.0  0.01318  0.47954  0.58358  1.0000
  S   S155      1.0  0.24282  0.49375  0.68846  1.0000
  S   S156      1.0  0.26314  0.52228  0.70670  1.0000
  Fe  Fe80      1.0  0.20078  0.90289  0.61061  1.0000
  S   S157      1.0  0.20991  0.88329  0.63002  1.0000
  S   S158      1.0  0.16271  0.91336  0.60795  1.0000
  Fe  Fe81      1.0  0.25208  0.90400  0.59844  1.0000
  S   S159      1.0  0.26532  0.88478  0.61715  1.0000
  S   S160      1.0  0.27217  0.91710  0.57833  1.0000
  Fe  Fe82      1.0  0.23867  0.86123  0.61791  1.0000
  S   S161      1.0  0.24622  0.82103  0.62299  1.0000
  Fe  Fe83      1.0  0.23521  0.90883  0.62762  1.0000
  S   S162      1.0  0.22893  0.92779  0.64549  1.0000
  S   S163      1.0  0.22750  0.87915  0.59867  1.0000
  S   S164      1.0  0.22409  0.92960  0.60870  1.0000
  Fe  Fe84      1.0  0.22202  0.66373  0.61844  1.0000
  S   S165      1.0  0.19392  0.68288  0.60639  1.0000
  S   S166      1.0  0.20848  0.64519  0.63908  1.0000
  Fe  Fe85      1.0  0.26195  0.67794  0.59636  1.0000
  S   S167      1.0  0.23670  0.69688  0.58283  1.0000
  S   S168      1.0  0.29997  0.68335  0.58959  1.0000
  Fe  Fe86      1.0  0.21603  0.71212  0.60053  1.0000
  S   S169      1.0  0.20453  0.75222  0.59728  1.0000
  Fe  Fe87      1.0  0.21744  0.66589  0.58994  1.0000
  S   S170      1.0  0.20924  0.64645  0.57510  1.0000
  S   S171      1.0  0.24200  0.69421  0.61386  1.0000
  S   S172      1.0  0.24465  0.64557  0.60225  1.0000
  Fe  Fe88      1.0  0.11296  0.57898  0.56202  1.0000
  S   S173      1.0  0.14411  0.55643  0.55198  1.0000
  S   S174      1.0  0.11601  0.60679  0.57366  1.0000
  Fe  Fe89      1.0  0.07661  0.55236  0.55554  1.0000
  S   S175      1.0  0.10590  0.52799  0.54506  1.0000
  S   S176      1.0  0.03820  0.54492  0.56099  1.0000
  Fe  Fe90      1.0  0.12488  0.52624  0.56189  1.0000
  C   C709      1.0  0.27156  0.65866  0.70991  1.0000
  Fe  Fe91      1.0  0.12249  0.56037  0.53604  1.0000
  S   S177      1.0  0.13702  0.57148  0.51422  1.0000
  S   S178      1.0  0.09504  0.54840  0.57301  1.0000
  S   S179      1.0  0.09193  0.58516  0.54547  1.0000
  C   C710      1.0  0.18622  0.51725  0.59403  1.0000
  H   H1279     1.0  0.09557  0.54818  0.48823  1.0000
  H   H1280     1.0  0.30651  0.86590  0.48095  1.0000
  H   H1281     1.0  0.25863  0.73326  0.50403  1.0000
  C   C711      1.0  0.17948  0.94851  0.51333  1.0000
  H   H1282     1.0  0.25818  0.59950  0.51788  1.0000
  H   H1283     1.0  0.27971  0.63595  0.51521  1.0000
  H   H1284     1.0  0.11701  0.50481  0.60790  1.0000
  C   C712      1.0  0.27517  0.73099  0.50808  1.0000
  C   C713      1.0  0.27778  0.61658  0.49995  1.0000
  H   H1285     1.0  0.03166  0.56913  0.53403  1.0000
  H   H1286     1.0  0.25095  0.88471  0.67314  1.0000
  C   C714      1.0  0.20476  0.53536  0.49061  1.0000
  C   C715      1.0  0.19494  0.52373  0.50302  1.0000
  C   C716      1.0  0.17439  0.53464  0.51051  1.0000
  C   C717      1.0  0.16342  0.55726  0.50559  1.0000
  C   C718      1.0  0.17337  0.56894  0.49325  1.0000
  C   C719      1.0  0.19398  0.55814  0.48585  1.0000
  H   H1287     1.0  0.20312  0.50610  0.50681  1.0000
  H   H1288     1.0  0.16687  0.52545  0.52001  1.0000
  H   H1289     1.0  0.16506  0.58648  0.48939  1.0000
  C   C720      1.0  0.28358  0.59929  0.68245  1.0000
  C   C721      1.0  0.30821  0.90472  0.55863  1.0000
  H   H1290     1.0  0.16994  0.48327  0.64300  1.0000
  C   C722      1.0  0.18326  0.63499  0.57534  1.0000
  C   C723      1.0  0.18442  0.61820  0.56732  1.0000
  C   C724      1.0  0.16413  0.60916  0.56682  1.0000
  C   C725      1.0  0.14229  0.61710  0.57420  1.0000
  C   C726      1.0  0.14116  0.63376  0.58229  1.0000
  C   C727      1.0  0.16153  0.64253  0.58295  1.0000
  H   H1291     1.0  0.20111  0.61229  0.56137  1.0000
  H   H1292     1.0  0.16531  0.59641  0.56054  1.0000
  H   H1293     1.0  0.12434  0.64013  0.58797  1.0000
  H   H1294     1.0  0.16029  0.65560  0.58905  1.0000
  H   H1295     1.0  0.14245  0.51535  0.48121  1.0000
  H   H1296     1.0  0.28843  0.77607  0.60729  1.0000
  C   C728      1.0  0.13784  0.50009  0.62389  1.0000
  C   C729      1.0  0.27358  0.74149  0.54910  1.0000
  C   C730      1.0  0.99376  0.54049  0.55798  1.0000
  C   C731      1.0  0.11128  0.53514  0.49066  1.0000
  C   C732      1.0  0.26945  0.72819  0.52315  1.0000
  C   C733      1.0  0.27972  0.63916  0.50440  1.0000
  C   C734      1.0  0.16031  0.93111  0.59249  1.0000
  H   H1297     1.0  0.29006  0.74744  0.56489  1.0000
  H   H1298     1.0  0.27576  0.89548  0.66210  1.0000
  C   C735      1.0  0.17849  0.94754  0.57050  1.0000
  C   C736      1.0  0.18052  0.93377  0.58295  1.0000
  H   H1299     1.0  0.27599  0.65443  0.68974  1.0000
  H   H1300     1.0  0.19411  0.94901  0.56304  1.0000
  H   H1301     1.0  0.19771  0.92484  0.58504  1.0000
  C   C737      1.0  0.29904  0.90021  0.57218  1.0000
  H   H1302     1.0  0.00632  0.52716  0.58858  1.0000
  H   H1303     1.0  0.25592  0.66151  0.54734  1.0000
  C   C738      1.0  0.15643  0.95964  0.56776  1.0000
  C   C739      1.0  0.27767  0.69902  0.54969  1.0000
  C   C740      1.0  0.23516  0.80196  0.61553  1.0000
  C   C741      1.0  0.22625  0.80991  0.60374  1.0000
  C   C742      1.0  0.21717  0.79449  0.59817  1.0000
  C   C743      1.0  0.21731  0.77075  0.60422  1.0000
  C   C744      1.0  0.22692  0.76261  0.61581  1.0000
  C   C745      1.0  0.23572  0.77815  0.62144  1.0000
  H   H1304     1.0  0.22673  0.82790  0.59886  1.0000
  H   H1305     1.0  0.21011  0.80091  0.58911  1.0000
  H   H1306     1.0  0.22713  0.74444  0.62060  1.0000
  H   H1307     1.0  0.24282  0.77170  0.63050  1.0000
  C   C746      1.0  0.26209  0.89383  0.69634  1.0000
  C   C747      1.0  0.24863  0.57764  0.66050  1.0000
  C   C748      1.0  0.25943  0.58915  0.64831  1.0000
  C   C749      1.0  0.24730  0.60977  0.64152  1.0000
  C   C750      1.0  0.22439  0.61917  0.64699  1.0000
  C   C751      1.0  0.21369  0.60775  0.65921  1.0000
  C   C752      1.0  0.22563  0.58695  0.66585  1.0000
  H   H1308     1.0  0.27727  0.58212  0.64411  1.0000
  H   H1309     1.0  0.25579  0.61848  0.63213  1.0000
  H   H1310     1.0  0.19599  0.61497  0.66353  1.0000
  H   H1311     1.0  0.21711  0.57828  0.67518  1.0000
  H   H1312     1.0  0.29228  0.61435  0.68236  1.0000
  C   C753      1.0  0.26846  0.94719  0.64592  1.0000
  C   C754      1.0  0.24482  0.94541  0.65119  1.0000
  C   C755      1.0  0.23339  0.95748  0.66165  1.0000
  H   H1313     1.0  0.29949  0.74205  0.52495  1.0000
  H   H1314     1.0  0.27753  0.93801  0.63791  1.0000
  H   H1315     1.0  0.23183  0.89132  0.72013  1.0000
  H   H1316     1.0  0.08981  0.90416  0.59279  1.0000
  C   C756      1.0  0.25908  0.60005  0.69167  1.0000
  H   H1317     1.0  0.27786  0.62043  0.48916  1.0000
  H   H1318     1.0  0.22675  0.95319  0.53427  1.0000
  H   H1319     1.0  0.19210  0.93166  0.51348  1.0000
  H   H1320     1.0  0.27822  0.73663  0.61018  1.0000
  H   H1321     1.0  0.28433  0.81601  0.59991  1.0000
  C   C757      1.0  0.24617  0.63776  0.67741  1.0000
  N   N39       1.0  0.24279  0.62362  0.69125  1.0000
  S   S180      1.0  0.22998  0.52070  0.48117  1.0000
  H   H1322     1.0  0.99102  0.48930  0.64022  1.0000
  H   H1323     1.0  0.18881  0.50433  0.65531  1.0000
  H   H1324     1.0  0.29240  0.56095  0.68728  1.0000
  H   H1325     1.0  0.23284  0.65281  0.70203  1.0000
  H   H1326     1.0  0.20760  0.97626  0.54142  1.0000
  C   C758      1.0  0.28519  0.94190  0.69705  1.0000
  H   H1327     1.0  0.21512  0.95620  0.66582  1.0000
  H   H1328     1.0  0.27640  0.87883  0.69858  1.0000
  C   C759      1.0  0.22422  0.97250  0.53427  1.0000
  C   C760      1.0  0.30632  0.77815  0.58644  1.0000
  H   H1329     1.0  0.22232  0.58432  0.70777  1.0000
  H   H1330     1.0  0.12246  0.94076  0.59706  1.0000
  C   C761      1.0  0.23603  0.67513  0.66112  1.0000
  H   H1331     1.0  0.09535  0.48341  0.63591  1.0000
  C   C762      1.0  0.21642  0.62753  0.47366  1.0000
  C   C763      1.0  0.99624  0.56576  0.53235  1.0000
  H   H1332     1.0  0.30837  0.96165  0.52387  1.0000
  C   C764      1.0  0.23751  0.92985  0.70305  1.0000
  H   H1333     1.0  0.30034  0.82018  0.61937  1.0000
  N   N40       1.0  0.28921  0.72054  0.54386  1.0000
  H   H1334     1.0  0.27846  0.75832  0.54311  1.0000
  H   H1335     1.0  0.26224  0.96861  0.53461  1.0000
  H   H1336     1.0  0.20501  0.63593  0.69558  1.0000
  C   C765      1.0  0.21108  0.60190  0.70777  1.0000
  H   H1337     1.0  0.21669  0.93583  0.72244  1.0000
  H   H1338     1.0  0.27499  0.85061  0.57594  1.0000
  H   H1339     1.0  0.99228  0.53139  0.56806  1.0000
  H   H1340     1.0  0.18023  0.52147  0.47355  1.0000
  H   H1341     1.0  0.26484  0.65334  0.50195  1.0000
  H   H1342     1.0  0.28953  0.66306  0.70870  1.0000
  H   H1343     1.0  0.28462  0.62785  0.70116  1.0000
  H   H1344     1.0  0.07123  0.48507  0.53007  1.0000
  C   C766      1.0  0.18714  0.96488  0.52061  1.0000
  C   C767      1.0  0.30583  0.95059  0.48469  1.0000
  H   H1345     1.0  0.25376  0.76117  0.57942  1.0000
  C   C768      1.0  0.18294  0.53599  0.58174  1.0000
  C   C769      1.0  0.24512  0.97561  0.54042  1.0000
  C   C770      1.0  0.02571  0.49136  0.59155  1.0000
  C   C771      1.0  0.15926  0.97093  0.61489  1.0000
  H   H1346     1.0  0.24285  0.94165  0.69366  1.0000
  H   H1347     1.0  0.27287  0.65291  0.56058  1.0000
  H   H1348     1.0  0.25848  0.92114  0.67846  1.0000
  H   H1349     1.0  0.31215  0.94782  0.70701  1.0000
  H   H1350     1.0  0.31218  0.80538  0.55379  1.0000
  H   H1351     1.0  0.31360  0.96248  0.69005  1.0000
  H   H1352     1.0  0.22251  0.69103  0.65917  1.0000
  H   H1353     1.0  0.17480  0.55344  0.58451  1.0000
  H   H1354     1.0  0.15190  0.50800  0.59689  1.0000
  H   H1355     1.0  0.25496  0.74209  0.54799  1.0000
  N   N41       1.0  0.24860  0.58779  0.50176  1.0000
  C   C772      1.0  0.22939  0.57671  0.51153  1.0000
  C   C773      1.0  0.27009  0.56879  0.50017  1.0000
  C   C774      1.0  0.24112  0.59696  0.48843  1.0000
  C   C775      1.0  0.22772  0.62265  0.48604  1.0000
  C   C776      1.0  0.26666  0.54673  0.49530  1.0000
  C   C777      1.0  0.20571  0.59308  0.51522  1.0000
  C   C778      1.0  0.19017  0.58104  0.52724  1.0000
  H   H1356     1.0  0.30464  0.55302  0.71786  1.0000
  H   H1357     1.0  0.10514  0.51901  0.49682  1.0000
  H   H1358     1.0  0.22431  0.56254  0.50766  1.0000
  H   H1359     1.0  0.23615  0.56800  0.52084  1.0000
  H   H1360     1.0  0.27696  0.56264  0.50967  1.0000
  H   H1361     1.0  0.28467  0.57594  0.49284  1.0000
  C   C779      1.0  0.30052  0.57678  0.68655  1.0000
  H   H1362     1.0  0.23004  0.58516  0.48648  1.0000
  H   H1363     1.0  0.24017  0.63528  0.48458  1.0000
  H   H1364     1.0  0.21354  0.62661  0.49439  1.0000
  H   H1365     1.0  0.25901  0.55192  0.48610  1.0000
  H   H1366     1.0  0.25491  0.53625  0.50291  1.0000
  H   H1367     1.0  0.19575  0.59730  0.50687  1.0000
  H   H1368     1.0  0.19823  0.57843  0.53624  1.0000
  H   H1369     1.0  0.17250  0.59221  0.52893  1.0000
  H   H1370     1.0  0.18766  0.56368  0.52568  1.0000
  C   C780      1.0  0.11912  0.49328  0.61752  1.0000
  H   H1371     1.0  0.14214  0.96582  0.61469  1.0000
  H   H1372     1.0  0.28374  0.94145  0.68680  1.0000
  H   H1373     1.0  0.19833  0.52277  0.59919  1.0000
  H   H1374     1.0  0.15771  0.51388  0.64211  1.0000
  C   C781      1.0  0.27982  0.91902  0.70671  1.0000
  H   H1375     1.0  0.17152  0.53094  0.57592  1.0000
  C   C782      1.0  0.31016  0.94601  0.69698  1.0000
  C   C783      1.0  0.27108  0.64385  0.69962  1.0000
  C   C784      1.0  0.31161  0.88277  0.58055  1.0000
  C   C785      1.0  0.28089  0.81227  0.57599  1.0000
  C   C786      1.0  0.27646  0.83835  0.56896  1.0000
  H   H1376     1.0  0.21064  0.65727  0.67516  1.0000
  C   C787      1.0  0.28769  0.76934  0.59829  1.0000
  H   H1377     1.0  0.26418  0.64229  0.67439  1.0000
  H   H1378     1.0  0.17288  0.96332  0.60721  1.0000
  C   C788      1.0  0.25333  0.84383  0.56353  1.0000
  C   C789      1.0  0.29165  0.74244  0.60160  1.0000
  H   H1379     1.0  0.27197  0.72507  0.57019  1.0000
  Fe  Fe92      1.0  0.25465  0.48605  0.70830  1.0000
  C   C790      1.0  0.05883  0.49242  0.53830  1.0000
  H   H1380     1.0  0.20136  0.56743  0.47645  1.0000
  Fe  Fe93      1.0  0.22568  0.53158  0.71674  1.0000
  H   H1381     1.0  0.30683  0.67035  0.54495  1.0000
  H   H1382     1.0  0.27998  0.80078  0.56901  1.0000
  H   H1383     1.0  0.26530  0.81006  0.58390  1.0000
  H   H1384     1.0  0.24387  0.62587  0.71140  1.0000
  C   C791      1.0  0.24649  0.63676  0.70137  1.0000
  H   H1385     1.0  0.19552  0.96251  0.70550  1.0000
  H   H1386     1.0  0.20816  0.60967  0.51775  1.0000
  H   H1387     1.0  0.26963  0.77506  0.59597  1.0000
  H   H1388     1.0  0.30065  0.83663  0.58922  1.0000
  H   H1389     1.0  0.23573  0.75506  0.56906  1.0000
  H   H1390     1.0  0.25879  0.67536  0.70868  1.0000
  H   H1391     1.0  0.25353  0.77817  0.56299  1.0000
  C   C792      1.0  0.00952  0.51236  0.59684  1.0000
  C   C793      1.0  0.13622  0.95730  0.57738  1.0000
  H   H1392     1.0  0.24995  0.86280  0.55909  1.0000
  H   H1393     1.0  0.25437  0.83317  0.55579  1.0000
  H   H1394     1.0  0.23833  0.83999  0.57159  1.0000
  H   H1395     1.0  0.22253  0.92249  0.70132  1.0000
  H   H1396     1.0  0.21303  0.60880  0.71647  1.0000
  C   C794      1.0  0.29020  0.53040  0.49238  1.0000
  N   N42       1.0  0.17405  0.59212  0.62113  1.0000
  C   C795      1.0  0.16822  0.57775  0.63474  1.0000
  C   C796      1.0  0.16050  0.58650  0.61165  1.0000
  C   C797      1.0  0.20018  0.58515  0.61626  1.0000
  C   C798      1.0  0.16937  0.61823  0.62133  1.0000
  C   C799      1.0  0.14404  0.62876  0.62729  1.0000
  C   C800      1.0  0.18129  0.58109  0.64547  1.0000
  C   C801      1.0  0.20951  0.59621  0.60181  1.0000
  C   C802      1.0  0.13573  0.57954  0.61745  1.0000
  C   C803      1.0  0.12166  0.58041  0.60659  1.0000
  C   C804      1.0  0.14228  0.65486  0.62777  1.0000
  C   C805      1.0  0.17233  0.56704  0.65895  1.0000
  C   C806      1.0  0.23555  0.58634  0.59761  1.0000
  H   H1397     1.0  0.17193  0.55868  0.63410  1.0000
  H   H1398     1.0  0.14913  0.58149  0.63881  1.0000
  H   H1399     1.0  0.15853  0.60148  0.60329  1.0000
  H   H1400     1.0  0.17064  0.57135  0.60691  1.0000
  H   H1401     1.0  0.20485  0.56561  0.61715  1.0000
  H   H1402     1.0  0.21090  0.59038  0.62244  1.0000
  H   H1403     1.0  0.18199  0.62286  0.62658  1.0000
  H   H1404     1.0  0.17285  0.62835  0.61112  1.0000
  H   H1405     1.0  0.13864  0.61973  0.63753  1.0000
  H   H1406     1.0  0.13139  0.62760  0.62102  1.0000
  H   H1407     1.0  0.20058  0.57480  0.64309  1.0000
  H   H1408     1.0  0.17829  0.59989  0.64650  1.0000
  H   H1409     1.0  0.20813  0.61552  0.60092  1.0000
  H   H1410     1.0  0.19959  0.59282  0.59467  1.0000
  H   H1411     1.0  0.13787  0.56126  0.62310  1.0000
  H   H1412     1.0  0.12485  0.59123  0.62421  1.0000
  H   H1413     1.0  0.11571  0.59903  0.60226  1.0000
  H   H1414     1.0  0.13238  0.57116  0.59858  1.0000
  H   H1415     1.0  0.10571  0.57207  0.61078  1.0000
  H   H1416     1.0  0.14632  0.66503  0.61764  1.0000
  H   H1417     1.0  0.12406  0.66199  0.63226  1.0000
  H   H1418     1.0  0.15478  0.65730  0.63384  1.0000
  H   H1419     1.0  0.17512  0.54794  0.65856  1.0000
  H   H1420     1.0  0.18212  0.56937  0.66645  1.0000
  H   H1421     1.0  0.15323  0.57329  0.66221  1.0000
  H   H1422     1.0  0.24187  0.59522  0.58742  1.0000
  H   H1423     1.0  0.24646  0.58967  0.60431  1.0000
  H   H1424     1.0  0.23797  0.56711  0.59767  1.0000
  N   N43       1.0  0.15284  0.84274  0.60337  1.0000
  C   C807      1.0  0.14677  0.82454  0.59694  1.0000
  C   C808      1.0  0.17219  0.85476  0.59430  1.0000
  C   C809      1.0  0.16188  0.82987  0.61588  1.0000
  C   C810      1.0  0.13152  0.86067  0.60724  1.0000
  C   C811      1.0  0.11981  0.87648  0.59583  1.0000
  C   C812      1.0  0.12875  0.80906  0.60550  1.0000
  C   C813      1.0  0.17432  0.84388  0.62267  1.0000
  C   C814      1.0  0.17257  0.85833  0.57915  1.0000
  C   C815      1.0  0.18819  0.87632  0.57154  1.0000
  C   C816      1.0  0.09748  0.89251  0.60117  1.0000
  C   C817      1.0  0.12418  0.79159  0.59775  1.0000
  C   C818      1.0  0.18040  0.82928  0.63576  1.0000
  H   H1425     1.0  0.16323  0.81231  0.59377  1.0000
  H   H1426     1.0  0.13956  0.83276  0.58779  1.0000
  H   H1427     1.0  0.17219  0.87204  0.59703  1.0000
  H   H1428     1.0  0.18976  0.84433  0.59561  1.0000
  H   H1429     1.0  0.17468  0.81367  0.61392  1.0000
  H   H1430     1.0  0.14711  0.82375  0.62350  1.0000
  H   H1431     1.0  0.11782  0.85204  0.61451  1.0000
  H   H1432     1.0  0.13634  0.87308  0.61250  1.0000
  H   H1433     1.0  0.11473  0.86587  0.58962  1.0000
  H   H1434     1.0  0.13204  0.88822  0.58964  1.0000
  H   H1435     1.0  0.13552  0.79845  0.61440  1.0000
  H   H1436     1.0  0.11157  0.82006  0.60862  1.0000
  H   H1437     1.0  0.16301  0.86058  0.62486  1.0000
  H   H1438     1.0  0.19108  0.84818  0.61637  1.0000
  H   H1439     1.0  0.17981  0.84131  0.57564  1.0000
  H   H1440     1.0  0.15484  0.86447  0.57642  1.0000
  H   H1441     1.0  0.17957  0.89421  0.57336  1.0000
  H   H1442     1.0  0.20578  0.87227  0.57461  1.0000
  H   H1443     1.0  0.19064  0.87629  0.56077  1.0000
  C   C819      1.0  0.22860  0.66105  0.67483  1.0000
  H   H1444     1.0  0.08407  0.88189  0.60717  1.0000
  N   N44       1.0  0.30334  0.80446  0.58174  1.0000
  H   H1445     1.0  0.14085  0.77964  0.59474  1.0000
  H   H1446     1.0  0.11131  0.78065  0.60407  1.0000
  H   H1447     1.0  0.11675  0.80103  0.58881  1.0000
  H   H1448     1.0  0.19176  0.81222  0.63415  1.0000
  H   H1449     1.0  0.19023  0.83895  0.64023  1.0000
  H   H1450     1.0  0.16407  0.82582  0.64284  1.0000
  H   H1451     1.0  0.28387  0.74667  0.50379  1.0000
  H   H1452     1.0  0.29900  0.96140  0.64719  1.0000
  H   H1453     1.0  0.25676  0.59623  0.48032  1.0000
  H   H1454     1.0  0.19944  0.52249  0.64006  1.0000
  H   H1455     1.0  0.22767  0.67240  0.68219  1.0000
  H   H1456     1.0  0.13158  0.51855  0.62562  1.0000
  H   H1457     1.0  0.99723  0.57586  0.52244  1.0000
  C   C820      1.0  0.27411  0.65672  0.54967  1.0000
  H   H1458     1.0  0.30583  0.71153  0.52474  1.0000
  H   H1459     1.0  0.17319  0.61526  0.71079  1.0000
  C   C821      1.0  0.31693  0.82380  0.61254  1.0000
  H   H1460     1.0  0.29496  0.64206  0.57989  1.0000
  C   C822      1.0  0.16200  0.51423  0.60301  1.0000
  H   H1461     1.0  0.28714  0.71509  0.50504  1.0000
  H   H1462     1.0  0.27955  0.92266  0.71674  1.0000
  H   H1463     1.0  0.08899  0.51408  0.62822  1.0000
  H   H1464     1.0  0.24066  0.62168  0.50833  1.0000
  H   H1465     1.0  0.31694  0.57566  0.67905  1.0000
  H   H1466     1.0  0.24481  0.62681  0.67021  1.0000
  H   H1467     1.0  0.28292  0.64044  0.54572  1.0000
  H   H1468     1.0  0.28848  0.90762  0.68008  1.0000
  H   H1469     1.0  0.25068  0.58688  0.68879  1.0000
  H   H1470     1.0  0.02436  0.49626  0.55843  1.0000
  C   C823      1.0  0.13813  0.94273  0.58968  1.0000
  H   H1471     1.0  0.17872  0.52506  0.62049  1.0000
  H   H1472     1.0  0.31161  0.71134  0.55872  1.0000
  H   H1473     1.0  0.28712  0.51486  0.48889  1.0000
  H   H1474     1.0  0.28818  0.67985  0.53269  1.0000
  H   H1475     1.0  0.28976  0.73483  0.59311  1.0000
  H   H1476     1.0  0.12078  0.54251  0.49658  1.0000
  S   S181      1.0  0.17285  0.49391  0.69545  1.0000
  H   H1477     1.0  0.08190  0.49136  0.62129  1.0000
  C   C824      1.0  0.17901  0.50568  0.62333  1.0000
  H   H1478     1.0  0.17849  0.95693  0.50292  1.0000
  H   H1479     1.0  0.20960  0.49098  0.64268  1.0000
  H   H1480     1.0  0.27858  0.69379  0.56041  1.0000
  C   C825      1.0  0.24549  0.97093  0.66687  1.0000
  C   C826      1.0  0.21754  0.61916  0.69469  1.0000
  H   H1481     1.0  0.20297  0.61602  0.47489  1.0000
  C   C827      1.0  0.25525  0.60655  0.50752  1.0000
  C   C828      1.0  0.26934  0.88763  0.67249  1.0000
  C   C829      1.0  0.09488  0.49573  0.62635  1.0000
  H   H1482     1.0  0.28085  0.87047  0.67502  1.0000
  H   H1483     1.0  0.29386  0.60362  0.50186  1.0000
  H   H1484     1.0  0.18782  0.95554  0.53089  1.0000
  C   C830      1.0  0.01584  0.56198  0.53890  1.0000
  C   C831      1.0  0.31785  0.66752  0.57763  1.0000
  H   H1485     1.0  0.10173  0.90381  0.60733  1.0000
  H   H1486     1.0  0.20036  0.53768  0.57534  1.0000
  H   H1487     1.0  0.26657  0.85968  0.71863  1.0000
  H   H1488     1.0  0.23763  0.66435  0.65335  1.0000
  H   H1489     1.0  0.24598  0.88596  0.69705  1.0000
  H   H1490     1.0  0.24466  0.94285  0.55477  1.0000
  H   H1491     1.0  0.18140  0.58546  0.71898  1.0000
  H   H1492     1.0  0.28133  0.59970  0.67214  1.0000
  C   C832      1.0  0.27342  0.74238  0.56380  1.0000
  C   C833      1.0  0.31323  0.71618  0.54780  1.0000
  H   H1493     1.0  0.26202  0.59271  0.70195  1.0000
  H   H1494     1.0  0.04191  0.50078  0.53484  1.0000
  H   H1495     1.0  0.06657  0.50619  0.54095  1.0000
  H   H1496     1.0  0.04990  0.49346  0.56523  1.0000
  C   C834      1.0  0.10343  0.48174  0.58751  1.0000
  H   H1497     1.0  0.11909  0.96640  0.57526  1.0000
  H   H1498     1.0  0.26032  0.71272  0.52687  1.0000
  H   H1499     1.0  0.30552  0.76904  0.57831  1.0000
  H   H1500     1.0  0.25696  0.74409  0.52573  1.0000
  C   C835      1.0  0.29227  0.72540  0.52900  1.0000
  C   C836      1.0  0.28831  0.67663  0.54345  1.0000
  C   C837      1.0  0.28060  0.96046  0.65123  1.0000
  C   C838      1.0  0.19415  0.50507  0.64446  1.0000
  H   H1501     1.0  0.30266  0.53963  0.48451  1.0000
  H   H1502     1.0  0.29544  0.90498  0.70507  1.0000
  C   C839      1.0  0.26997  0.90448  0.68166  1.0000
  H   H1503     1.0  0.18211  0.59146  0.70137  1.0000
  H   H1504     1.0  0.29827  0.52413  0.50143  1.0000
  H   H1505     1.0  0.21311  0.61224  0.68658  1.0000
  H   H1506     1.0  0.16170  0.94457  0.51831  1.0000
  S   S182      1.0  0.21772  0.49491  0.71910  1.0000
  H   H1507     1.0  0.01815  0.51853  0.60367  1.0000
  C   C840      1.0  0.21140  0.97188  0.51356  1.0000
  H   H1508     1.0  0.15246  0.53205  0.60459  1.0000
  C   C841      1.0  0.01468  0.54940  0.55183  1.0000
  H   H1509     1.0  0.27264  0.95744  0.70008  1.0000
  C   C842      1.0  0.18536  0.59838  0.70979  1.0000
  C   C843      1.0  0.25287  0.76038  0.56907  1.0000
  H   H1510     1.0  0.29859  0.91824  0.55212  1.0000
  C   C844      1.0  0.24936  0.89634  0.71974  1.0000
  H   H1511     1.0  0.25842  0.70296  0.54925  1.0000
  H   H1512     1.0  0.28890  0.86191  0.50540  1.0000
  H   H1513     1.0  0.29081  0.84230  0.56054  1.0000
  H   H1514     1.0  0.04186  0.49773  0.58562  1.0000
  H   H1515     1.0  0.22850  0.96883  0.56118  1.0000
  H   H1516     1.0  0.25324  0.68086  0.66044  1.0000
  S   S183      1.0  0.14505  0.49301  0.57223  1.0000
  H   H1517     1.0  0.29144  0.95066  0.49301  1.0000
  C   C845      1.0  0.12768  0.52898  0.47807  1.0000
  N   N45       1.0  0.25752  0.91021  0.70627  1.0000
  H   H1518     1.0  0.30805  0.84899  0.51736  1.0000
  H   H1519     1.0  0.14766  0.55667  0.47560  1.0000
  H   H1520     1.0  0.03634  0.49096  0.63534  1.0000
  H   H1521     1.0  0.19493  0.50048  0.59060  1.0000
  H   H1522     1.0  0.16764  0.94003  0.62959  1.0000
  H   H1523     1.0  0.99239  0.50745  0.60222  1.0000
  H   H1524     1.0  0.31024  0.87806  0.50804  1.0000
  H   H1525     1.0  0.30478  0.87946  0.59103  1.0000
  H   H1526     1.0  0.00062  0.49356  0.57859  1.0000
  C   C846      1.0  0.31110  0.64813  0.57455  1.0000
  C   C847      1.0  0.16643  0.95945  0.62827  1.0000
  H   H1527     1.0  0.09479  0.49804  0.58239  1.0000
  C   C848      1.0  0.30135  0.81746  0.59298  1.0000
  N   N46       1.0  0.16274  0.49789  0.61617  1.0000
  H   H1528     1.0  0.30526  0.57691  0.69622  1.0000
  H   H1529     1.0  0.14107  0.97034  0.49022  1.0000
  H   H1530     1.0  0.15312  0.96591  0.63646  1.0000
  C   C849      1.0  0.30699  0.86033  0.50755  1.0000
  C   C850      1.0  0.03894  0.48293  0.56211  1.0000
  C   C851      1.0  0.26928  0.97231  0.66176  1.0000
  H   H1531     1.0  0.30947  0.73546  0.60420  1.0000
  H   H1532     1.0  0.98923  0.60905  0.57020  1.0000
  H   H1533     1.0  0.22404  0.95540  0.51197  1.0000
  H   H1534     1.0  0.26024  0.96352  0.55835  1.0000
  H   H1535     1.0  0.19769  0.49750  0.62021  1.0000
  H   H1536     1.0  0.29656  0.64519  0.49921  1.0000
  H   H1537     1.0  0.99067  0.60886  0.55291  1.0000
  C   C852      1.0  0.17356  0.50129  0.63870  1.0000
  C   C853      1.0  0.21070  0.96748  0.70848  1.0000
  H   H1538     1.0  0.26711  0.64877  0.72010  1.0000
  H   H1539     1.0  0.31366  0.52212  0.71707  1.0000
  C   C854      1.0  0.24445  0.96187  0.55452  1.0000
  H   H1540     1.0  0.18403  0.96317  0.62880  1.0000
  H   H1541     1.0  0.24148  0.95125  0.71713  1.0000
  S   S184      1.0  0.15480  0.97745  0.55223  1.0000
  H   H1542     1.0  0.13707  0.48907  0.63388  1.0000
  H   H1543     1.0  0.12769  0.96181  0.47831  1.0000
  C   C855      1.0  0.22720  0.94557  0.71374  1.0000
  H   H1544     1.0  0.25748  0.97269  0.51222  1.0000
  H   H1545     1.0  0.31699  0.75381  0.54519  1.0000
  C   C856      1.0  0.13203  0.97704  0.48154  1.0000
  H   H1546     1.0  0.99910  0.47829  0.62517  1.0000
  H   H1547     1.0  0.31536  0.84304  0.60874  1.0000
  H   H1548     1.0  0.03092  0.47829  0.60016  1.0000
  H   H1549     1.0  0.25940  0.60463  0.94175  1.0000
  S   S185      1.0  0.22272  0.94846  0.94062  1.0000
  H   H1550     1.0  0.17890  0.83913  0.97124  1.0000
  H   H1551     1.0  0.19170  0.48415  0.93372  1.0000
  H   H1552     1.0  0.20681  0.62403  0.88731  1.0000
  Fe  Fe94      1.0  0.23294  0.55049  0.95794  1.0000
  S   S186      1.0  0.24554  0.52156  0.94591  1.0000
  S   S187      1.0  0.20608  0.58360  0.95341  1.0000
  H   H1553     1.0  0.02107  0.83783  0.91161  1.0000
  Fe  Fe95      1.0  0.28193  0.52441  0.94856  1.0000
  C   C857      1.0  0.26628  0.87356  0.72441  1.0000
  H   H1554     1.0  0.27169  0.60435  0.73033  1.0000
  S   S188      1.0  0.26928  0.55490  0.95962  1.0000
  Fe  Fe96      1.0  0.12659  0.90365  0.90744  1.0000
  S   S189      1.0  0.10047  0.91663  0.89324  1.0000
  S   S190      1.0  0.13527  0.92983  0.91858  1.0000
  Fe  Fe97      1.0  0.12986  0.85211  0.90450  1.0000
  S   S191      1.0  0.10478  0.86146  0.89015  1.0000
  S   S192      1.0  0.14450  0.81400  0.91206  1.0000
  Fe  Fe98      1.0  0.12464  0.89131  0.88098  1.0000
  S   S193      1.0  0.13191  0.89658  0.85865  1.0000
  Fe  Fe99      1.0  0.08252  0.88559  0.90341  1.0000
  S   S194      1.0  0.04374  0.88194  0.91101  1.0000
  S   S195      1.0  0.15181  0.88022  0.89442  1.0000
  S   S196      1.0  0.10657  0.87448  0.91857  1.0000
  Fe  Fe100     1.0  0.07653  0.66764  0.89216  1.0000
  S   S197      1.0  0.09906  0.67373  0.90584  1.0000
  S   S198      1.0  0.03741  0.66607  0.90080  1.0000
  Fe  Fe101     1.0  0.11811  0.66894  0.86865  1.0000
  S   S199      1.0  0.14313  0.67544  0.88043  1.0000
  S   S200      1.0  0.12824  0.67043  0.84652  1.0000
  Fe  Fe102     1.0  0.12790  0.64746  0.89630  1.0000
  S   S201      1.0  0.15172  0.61375  0.90429  1.0000
  Fe  Fe103     1.0  0.11259  0.70106  0.88891  1.0000
  S   S202      1.0  0.11138  0.74074  0.88597  1.0000
  S   S203      1.0  0.10429  0.63962  0.88380  1.0000
  S   S204      1.0  0.08847  0.69619  0.87597  1.0000
  H   H1555     1.0  0.20735  0.83559  0.92627  1.0000
  S   S205      1.0  0.27965  0.90613  0.79955  1.0000
  C   C858      1.0  0.19653  0.76957  0.89213  1.0000
  Fe  Fe104     1.0  0.28750  0.83743  0.80120  1.0000
  S   S206      1.0  0.25319  0.86165  0.79845  1.0000
  N   N47       1.0  0.26900  0.96367  0.90069  1.0000
  Fe  Fe105     1.0  0.27607  0.88609  0.78419  1.0000
  S   S207      1.0  0.27571  0.90062  0.76231  1.0000
  Fe  Fe106     1.0  0.26016  0.87952  0.81407  1.0000
  S   S208      1.0  0.24031  0.88885  0.83369  1.0000
  H   H1556     1.0  0.25519  0.50947  0.77154  1.0000
  S   S209      1.0  0.29309  0.85391  0.81767  1.0000
  Fe  Fe107     1.0  0.25871  0.63874  0.77263  1.0000
  S   S210      1.0  0.27199  0.61277  0.78951  1.0000
  S   S211      1.0  0.25828  0.62755  0.75290  1.0000
  Fe  Fe108     1.0  0.26063  0.68154  0.78565  1.0000
  S   S212      1.0  0.27483  0.65808  0.80299  1.0000
  S   S213      1.0  0.25152  0.72190  0.78318  1.0000
  Fe  Fe109     1.0  0.29777  0.63673  0.78841  1.0000
  H   H1557     1.0  0.11101  0.54010  0.94370  1.0000
  Fe  Fe110     1.0  0.24764  0.63620  0.80277  1.0000
  S   S214      1.0  0.23008  0.62033  0.82304  1.0000
  S   S215      1.0  0.28612  0.66187  0.77084  1.0000
  S   S216      1.0  0.23188  0.66064  0.78609  1.0000
  C   C859      1.0  0.00653  0.73584  0.86921  1.0000
  C   C860      1.0  0.25133  0.97140  0.79272  1.0000
  H   H1558     1.0  0.18015  0.87288  0.92855  1.0000
  C   C861      1.0  0.24725  0.60436  0.74874  1.0000
  C   C862      1.0  0.22849  0.59411  0.75681  1.0000
  C   C863      1.0  0.21940  0.57690  0.75264  1.0000
  C   C864      1.0  0.22896  0.56958  0.74041  1.0000
  H   H1559     1.0  0.21103  0.50510  0.93280  1.0000
  C   C865      1.0  0.25705  0.59674  0.73660  1.0000
  H   H1560     1.0  0.22063  0.59983  0.76612  1.0000
  H   H1561     1.0  0.20459  0.56947  0.75886  1.0000
  H   H1562     1.0  0.07909  0.91831  0.95384  1.0000
  H   H1563     1.0  0.30108  0.74187  0.74942  1.0000
  C   C866      1.0  0.28051  0.77656  0.79872  1.0000
  C   C867      1.0  0.28580  0.75233  0.80382  1.0000
  C   C868      1.0  0.27652  0.73545  0.79949  1.0000
  C   C869      1.0  0.26201  0.74255  0.78987  1.0000
  C   C870      1.0  0.25633  0.76679  0.78495  1.0000
  C   C871      1.0  0.26549  0.78370  0.78934  1.0000
  C   C872      1.0  0.28557  0.60734  0.84761  1.0000
  H   H1564     1.0  0.28083  0.71695  0.80346  1.0000
  H   H1565     1.0  0.24514  0.77252  0.77750  1.0000
  H   H1566     1.0  0.26126  0.80222  0.78530  1.0000
  C   C873      1.0  0.26857  0.51628  0.76325  1.0000
  C   C874      1.0  0.02487  0.89784  0.88787  1.0000
  C   C875      1.0  0.24382  0.94262  0.76054  1.0000
  C   C876      1.0  0.26425  0.92921  0.75467  1.0000
  C   C877      1.0  0.27515  0.93790  0.74185  1.0000
  H   H1567     1.0  0.21411  0.75812  0.89102  1.0000
  H   H1568     1.0  0.23505  0.93595  0.77034  1.0000
  H   H1569     1.0  0.29097  0.92762  0.73726  1.0000
  C   C878      1.0  0.15625  0.65565  0.84019  1.0000
  C   C879      1.0  0.16367  0.65818  0.82645  1.0000
  C   C880      1.0  0.18630  0.64746  0.82109  1.0000
  C   C881      1.0  0.20150  0.63378  0.82945  1.0000
  C   C882      1.0  0.19391  0.63079  0.84320  1.0000
  C   C883      1.0  0.17144  0.64190  0.84857  1.0000
  H   H1570     1.0  0.15191  0.66863  0.81993  1.0000
  H   H1571     1.0  0.19187  0.64956  0.81049  1.0000
  H   H1572     1.0  0.20552  0.62009  0.84972  1.0000
  H   H1573     1.0  0.16580  0.63973  0.85917  1.0000
  H   H1574     1.0  0.10010  0.57459  0.92672  1.0000
  C   C884      1.0  0.01387  0.66643  0.89242  1.0000
  C   C885      1.0  0.01757  0.66530  0.87895  1.0000
  H   H1575     1.0  0.11880  0.86344  0.94601  1.0000
  H   H1576     1.0  0.27756  0.80523  0.83145  1.0000
  H   H1577     1.0  0.03533  0.66412  0.87331  1.0000
  H   H1578     1.0  0.31588  0.94649  0.90818  1.0000
  C   C886      1.0  0.16152  0.89689  0.85096  1.0000
  C   C887      1.0  0.17773  0.90166  0.85768  1.0000
  C   C888      1.0  0.20171  0.89980  0.85197  1.0000
  C   C889      1.0  0.20970  0.89307  0.83955  1.0000
  C   C890      1.0  0.19343  0.88894  0.83260  1.0000
  C   C891      1.0  0.16928  0.89109  0.83827  1.0000
  H   H1579     1.0  0.17181  0.90662  0.86732  1.0000
  H   H1580     1.0  0.21421  0.90330  0.85730  1.0000
  H   H1581     1.0  0.19947  0.88389  0.82298  1.0000
  H   H1582     1.0  0.15671  0.88762  0.83298  1.0000
  C   C892      1.0  0.02078  0.88904  0.90143  1.0000
  C   C893      1.0  0.16245  0.89087  0.96656  1.0000
  H   H1583     1.0  0.26241  0.91281  0.87943  1.0000
  C   C894      1.0  0.16447  0.84626  0.94413  1.0000
  H   H1584     1.0  0.04239  0.90095  0.88298  1.0000
  C   C895      1.0  0.13686  0.79279  0.90466  1.0000
  C   C896      1.0  0.13017  0.79925  0.89224  1.0000
  C   C897      1.0  0.12308  0.78278  0.88660  1.0000
  C   C898      1.0  0.12277  0.75954  0.89325  1.0000
  C   C899      1.0  0.13027  0.75267  0.90551  1.0000
  C   C900      1.0  0.13738  0.76930  0.91119  1.0000
  H   H1585     1.0  0.13057  0.81695  0.88694  1.0000
  H   H1586     1.0  0.11763  0.78814  0.87703  1.0000
  H   H1587     1.0  0.13011  0.73476  0.91072  1.0000
  H   H1588     1.0  0.14280  0.76406  0.92076  1.0000
  C   C901      1.0  0.19148  0.59189  0.93957  1.0000
  C   C902      1.0  0.17597  0.61350  0.93812  1.0000
  C   C903      1.0  0.16369  0.62059  0.92736  1.0000
  C   C904      1.0  0.16663  0.60595  0.91803  1.0000
  C   C905      1.0  0.18197  0.58421  0.91956  1.0000
  C   C906      1.0  0.19456  0.57732  0.93019  1.0000
  H   H1589     1.0  0.17349  0.62488  0.94534  1.0000
  H   H1590     1.0  0.15191  0.63733  0.92630  1.0000
  H   H1591     1.0  0.18433  0.57279  0.91238  1.0000
  H   H1592     1.0  0.20658  0.56075  0.93116  1.0000
  H   H1593     1.0  0.27409  0.96602  0.72499  1.0000
  H   H1594     1.0  0.13481  0.84043  0.86547  1.0000
  H   H1595     1.0  0.13249  0.82191  0.85426  1.0000
  H   H1596     1.0  0.25220  0.79217  0.83176  1.0000
  C   C907      1.0  0.16061  0.93608  0.92333  1.0000
  H   H1597     1.0  0.27324  0.57659  0.88020  1.0000
  C   C908      1.0  0.15766  0.95465  0.93041  1.0000
  C   C909      1.0  0.19892  0.94527  0.93328  1.0000
  C   C910      1.0  0.20206  0.92701  0.92593  1.0000
  C   C911      1.0  0.18316  0.92270  0.92079  1.0000
  H   H1598     1.0  0.26671  0.57946  0.81578  1.0000
  H   H1599     1.0  0.25602  0.57343  0.72331  1.0000
  H   H1600     1.0  0.21919  0.91602  0.92429  1.0000
  H   H1601     1.0  0.18593  0.90885  0.91503  1.0000
  C   C912      1.0  0.16733  0.52174  0.94660  1.0000
  H   H1602     1.0  0.14569  0.84809  0.84805  1.0000
  H   H1603     1.0  0.29860  0.95920  0.79094  1.0000
  S   S217      1.0  0.31255  0.53114  0.93163  1.0000
  H   H1604     1.0  0.29436  0.59060  0.82475  1.0000
  H   H1605     1.0  0.31364  0.91454  0.96644  1.0000
  H   H1606     1.0  0.15454  0.57685  0.96647  1.0000
  N   N48       1.0  0.15096  0.86349  0.95301  1.0000
  H   H1607     1.0  0.24047  0.57106  0.80225  1.0000
  Fe  Fe111     1.0  0.31211  0.87972  0.80252  1.0000
  C   C913      1.0  0.17671  0.95945  0.93518  1.0000
  C   C914      1.0  0.24550  0.91816  0.88596  1.0000
  C   C915      1.0  0.03157  0.72705  0.87215  1.0000
  H   H1608     1.0  0.00264  0.72338  0.86362  1.0000
  H   H1609     1.0  0.24655  0.50473  0.89855  1.0000
  H   H1610     1.0  0.18386  0.82255  0.92331  1.0000
  H   H1611     1.0  0.15381  0.83245  0.94425  1.0000
  C   C916      1.0  0.24813  0.57933  0.73253  1.0000
  C   C917      1.0  0.26238  0.55320  0.90708  1.0000
  H   H1612     1.0  0.31674  0.51495  0.84313  1.0000
  H   H1613     1.0  0.29492  0.96742  0.75402  1.0000
  H   H1614     1.0  0.25794  0.87641  0.74532  1.0000
  H   H1615     1.0  0.23551  0.48490  0.76742  1.0000
  C   C918      1.0  0.27761  0.95839  0.91377  1.0000
  H   H1616     1.0  0.22752  0.94673  0.89587  1.0000
  H   H1617     1.0  0.28143  0.97455  0.91620  1.0000
  H   H1618     1.0  0.09509  0.58288  0.94279  1.0000
  H   H1619     1.0  0.27308  0.50494  0.90457  1.0000
  H   H1620     1.0  0.26003  0.92847  0.90720  1.0000
  H   H1621     1.0  0.15692  0.86163  0.92420  1.0000
  H   H1622     1.0  0.25815  0.53078  0.75708  1.0000
  H   H1623     1.0  0.17719  0.53509  0.93981  1.0000
  H   H1624     1.0  0.28089  0.52065  0.86866  1.0000
  C   C919      1.0  0.23486  0.55744  0.81076  1.0000
  H   H1625     1.0  0.03261  0.70974  0.87887  1.0000
  H   H1626     1.0  0.04408  0.72487  0.86281  1.0000
  H   H1627     1.0  0.03723  0.73986  0.87678  1.0000
  C   C920      1.0  0.16442  0.53880  0.96643  1.0000
  S   S218      1.0  0.31005  0.86082  0.78630  1.0000
  C   C921      1.0  0.29425  0.97032  0.78150  1.0000
  H   H1628     1.0  0.98705  0.88358  0.85439  1.0000
  H   H1629     1.0  0.27917  0.54282  0.91000  1.0000
  Fe  Fe112     1.0  0.24387  0.49705  0.96571  1.0000
  N   N49       1.0  0.04540  0.81282  0.90090  1.0000
  C   C922      1.0  0.02167  0.82018  0.90912  1.0000
  C   C923      1.0  0.06519  0.81440  0.90782  1.0000
  C   C924      1.0  0.04717  0.83011  0.88803  1.0000
  C   C925      1.0  0.04801  0.78844  0.89774  1.0000
  C   C926      1.0  0.04543  0.76810  0.90967  1.0000
  C   C927      1.0  0.24496  0.97297  0.74062  1.0000
  C   C928      1.0  0.07079  0.82652  0.87820  1.0000
  C   C929      1.0  0.06043  0.80957  0.92317  1.0000
  C   C930      1.0  0.08295  0.80799  0.92870  1.0000
  C   C931      1.0  0.04503  0.74509  0.90516  1.0000
  H   H1630     1.0  0.15761  0.51523  0.94041  1.0000
  C   C932      1.0  0.07201  0.84739  0.86677  1.0000
  C   C933      1.0  0.28184  0.57982  0.88802  1.0000
  S   S219      1.0  0.28163  0.49747  0.96738  1.0000
  H   H1631     1.0  0.08161  0.80242  0.90443  1.0000
  H   H1632     1.0  0.06986  0.83244  0.90513  1.0000
  H   H1633     1.0  0.04409  0.84843  0.89010  1.0000
  H   H1634     1.0  0.03324  0.82945  0.88242  1.0000
  H   H1635     1.0  0.03556  0.78810  0.89114  1.0000
  H   H1636     1.0  0.06591  0.78345  0.89197  1.0000
  H   H1637     1.0  0.02890  0.77174  0.91676  1.0000
  H   H1638     1.0  0.06083  0.76505  0.91480  1.0000
  H   H1639     1.0  0.31223  0.57139  0.83537  1.0000
  H   H1640     1.0  0.30949  0.92756  0.81525  1.0000
  H   H1641     1.0  0.07241  0.81044  0.87389  1.0000
  H   H1642     1.0  0.08625  0.82467  0.88306  1.0000
  H   H1643     1.0  0.04745  0.82430  0.92691  1.0000
  H   H1644     1.0  0.05334  0.79299  0.92727  1.0000
  H   H1645     1.0  0.09099  0.82414  0.92467  1.0000
  H   H1646     1.0  0.07874  0.80617  0.93963  1.0000
  H   H1647     1.0  0.09592  0.79238  0.92614  1.0000
  H   H1648     1.0  0.04455  0.73048  0.91379  1.0000
  H   H1649     1.0  0.02915  0.74660  0.90065  1.0000
  H   H1650     1.0  0.06113  0.74048  0.89788  1.0000
  C   C934      1.0  0.26500  0.94069  0.89780  1.0000
  S   S220      1.0  0.21630  0.54834  0.73546  1.0000
  C   C935      1.0  0.28184  0.53614  0.84139  1.0000
  H   H1651     1.0  0.07107  0.86396  0.87050  1.0000
  H   H1652     1.0  0.08899  0.84445  0.85985  1.0000
  H   H1653     1.0  0.05726  0.84946  0.86125  1.0000
  C   C936      1.0  0.23418  0.96437  0.75351  1.0000
  C   C937      1.0  0.98826  0.73659  0.88211  1.0000
  H   H1654     1.0  0.25902  0.59124  0.84339  1.0000
  H   H1655     1.0  0.28180  0.60484  0.90578  1.0000
  H   H1656     1.0  0.29182  0.57576  0.91325  1.0000
  H   H1657     1.0  0.13599  0.54730  0.93121  1.0000
  H   H1658     1.0  0.30653  0.48261  0.76837  1.0000
  H   H1659     1.0  0.99842  0.83744  0.89472  1.0000
  H   H1660     1.0  0.26963  0.94776  0.77960  1.0000
  H   H1661     1.0  0.31047  0.53996  0.85133  1.0000
  C   C938      1.0  0.31061  0.53549  0.72359  1.0000
  C   C939      1.0  0.30263  0.52596  0.84908  1.0000
  H   H1662     1.0  0.08039  0.89015  0.94923  1.0000
  H   H1663     1.0  0.12055  0.59006  0.93063  1.0000
  H   H1664     1.0  0.99731  0.88702  0.83682  1.0000
  C   C940      1.0  0.25446  0.51367  0.90448  1.0000
  H   H1665     1.0  0.18572  0.87219  0.95214  1.0000
  C   C941      1.0  0.29383  0.57571  0.83326  1.0000
  H   H1666     1.0  0.14038  0.96528  0.93234  1.0000
  H   H1667     1.0  0.30418  0.52704  0.81845  1.0000
  H   H1668     1.0  0.30078  0.49014  0.92397  1.0000
  H   H1669     1.0  0.27150  0.47902  0.74164  1.0000
  H   H1670     1.0  0.12335  0.56438  0.95800  1.0000
  H   H1671     1.0  0.25507  0.54521  0.78207  1.0000
  H   H1672     1.0  0.26588  0.54257  0.84832  1.0000
  H   H1673     1.0  0.10728  0.88818  0.96510  1.0000
  H   H1674     1.0  0.01920  0.61795  0.90863  1.0000
  C   C942      1.0  0.30684  0.54458  0.81977  1.0000
  H   H1675     1.0  0.99066  0.78274  0.88303  1.0000
  C   C943      1.0  0.31868  0.93886  0.77046  1.0000
  H   H1676     1.0  0.24673  0.90744  0.72750  1.0000
  C   C944      1.0  0.02136  0.59845  0.91138  1.0000
  H   H1677     1.0  0.31951  0.97688  0.96478  1.0000
  C   C945      1.0  0.09052  0.90457  0.94850  1.0000
  H   H1678     1.0  0.29087  0.92700  0.93592  1.0000
  C   C946      1.0  0.28472  0.52702  0.76959  1.0000
  H   H1679     1.0  0.29771  0.94146  0.95857  1.0000
  H   H1680     1.0  0.21807  0.97442  0.75800  1.0000
  H   H1681     1.0  0.99450  0.87842  0.91810  1.0000
  H   H1682     1.0  0.31212  0.96137  0.82532  1.0000
  H   H1683     1.0  0.31472  0.69197  0.78732  1.0000
  C   C947      1.0  0.31445  0.49704  0.91641  1.0000
  C   C948      1.0  0.99958  0.82189  0.90278  1.0000
  H   H1684     1.0  0.27047  0.84726  0.74204  1.0000
  H   H1685     1.0  0.28614  0.62115  0.83860  1.0000
  H   H1686     1.0  0.23385  0.96790  0.79181  1.0000
  H   H1687     1.0  0.03321  0.59278  0.91885  1.0000
  H   H1688     1.0  0.02990  0.59053  0.90248  1.0000
  H   H1689     1.0  0.30755  0.68092  0.81272  1.0000
  C   C949      1.0  0.29956  0.50597  0.74425  1.0000
  H   H1690     1.0  0.27521  0.52981  0.73198  1.0000
  N   N50       1.0  0.26532  0.57832  0.90116  1.0000
  H   H1691     1.0  0.18920  0.76841  0.90284  1.0000
  H   H1692     1.0  0.18433  0.76307  0.88742  1.0000
  H   H1693     1.0  0.29733  0.74662  0.81110  1.0000
  H   H1694     1.0  0.28278  0.55551  0.78023  1.0000
  H   H1695     1.0  0.25202  0.82327  0.82538  1.0000
  C   C950      1.0  0.27564  0.58790  0.91059  1.0000
  H   H1696     1.0  0.14888  0.56822  0.94600  1.0000
  H   H1697     1.0  0.12583  0.50958  0.95773  1.0000
  H   H1698     1.0  0.24012  0.85904  0.74042  1.0000
  C   C951      1.0  0.25812  0.86351  0.73892  1.0000
  N   N51       1.0  0.19449  0.71776  0.82347  1.0000
  C   C952      1.0  0.16863  0.72241  0.82950  1.0000
  C   C953      1.0  0.19657  0.71093  0.81013  1.0000
  C   C954      1.0  0.20613  0.69682  0.83229  1.0000
  C   C955      1.0  0.20715  0.73835  0.82229  1.0000
  C   C956      1.0  0.19238  0.76346  0.82008  1.0000
  C   C957      1.0  0.16335  0.72451  0.84435  1.0000
  C   C958      1.0  0.23185  0.68636  0.82677  1.0000
  C   C959      1.0  0.18546  0.72974  0.79948  1.0000
  C   C960      1.0  0.18528  0.71922  0.78736  1.0000
  C   C961      1.0  0.20814  0.78234  0.81725  1.0000
  C   C962      1.0  0.13755  0.73507  0.84862  1.0000
  C   C963      1.0  0.24403  0.66991  0.83760  1.0000
  H   H1699     1.0  0.15963  0.70793  0.82863  1.0000
  H   H1700     1.0  0.15918  0.73849  0.82402  1.0000
  H   H1701     1.0  0.21541  0.70640  0.80558  1.0000
  H   H1702     1.0  0.18877  0.69471  0.81132  1.0000
  H   H1703     1.0  0.19561  0.68225  0.83464  1.0000
  H   H1704     1.0  0.20643  0.70150  0.84198  1.0000
  H   H1705     1.0  0.21477  0.73715  0.83134  1.0000
  H   H1706     1.0  0.22273  0.73762  0.81414  1.0000
  H   H1707     1.0  0.17915  0.76649  0.82904  1.0000
  H   H1708     1.0  0.18273  0.76630  0.81173  1.0000
  H   H1709     1.0  0.16653  0.70671  0.85050  1.0000
  H   H1710     1.0  0.17483  0.73553  0.84657  1.0000
  H   H1711     1.0  0.24262  0.70040  0.82218  1.0000
  H   H1712     1.0  0.23157  0.67577  0.81922  1.0000
  H   H1713     1.0  0.16694  0.73718  0.80314  1.0000
  H   H1714     1.0  0.19616  0.74415  0.79610  1.0000
  H   H1715     1.0  0.17449  0.70486  0.79009  1.0000
  H   H1716     1.0  0.17757  0.73311  0.77979  1.0000
  H   H1717     1.0  0.20354  0.71210  0.78293  1.0000
  H   H1718     1.0  0.19716  0.80013  0.81603  1.0000
  H   H1719     1.0  0.21785  0.78057  0.82553  1.0000
  H   H1720     1.0  0.22110  0.78082  0.80800  1.0000
  H   H1721     1.0  0.13425  0.73555  0.85935  1.0000
  H   H1722     1.0  0.13344  0.75333  0.84321  1.0000
  H   H1723     1.0  0.12557  0.72407  0.84681  1.0000
  H   H1724     1.0  0.24550  0.67974  0.84527  1.0000
  H   H1725     1.0  0.23401  0.65529  0.84227  1.0000
  H   H1726     1.0  0.26209  0.66219  0.83321  1.0000
  N   N52       1.0  0.20877  0.82188  0.86325  1.0000
  C   C964      1.0  0.18334  0.83314  0.86279  1.0000
  C   C965      1.0  0.22138  0.83740  0.86827  1.0000
  C   C966      1.0  0.22077  0.81987  0.84920  1.0000
  C   C967      1.0  0.21067  0.79737  0.87133  1.0000
  C   C968      1.0  0.19863  0.79518  0.88599  1.0000
  C   C969      1.0  0.16800  0.81869  0.85826  1.0000
  C   C970      1.0  0.24822  0.81392  0.84685  1.0000
  C   C971      1.0  0.20728  0.85087  0.87942  1.0000
  C   C972      1.0  0.22331  0.86310  0.88458  1.0000
  C   C973      1.0  0.14379  0.83319  0.85643  1.0000
  C   C974      1.0  0.25793  0.80832  0.83301  1.0000
  H   H1727     1.0  0.18282  0.85057  0.85618  1.0000
  H   H1728     1.0  0.17374  0.83711  0.87255  1.0000
  H   H1729     1.0  0.23788  0.82701  0.87157  1.0000
  H   H1730     1.0  0.22713  0.85161  0.86007  1.0000
  H   H1731     1.0  0.21617  0.83674  0.84236  1.0000
  H   H1732     1.0  0.21443  0.80615  0.84562  1.0000
  H   H1733     1.0  0.20366  0.78556  0.86660  1.0000
  H   H1734     1.0  0.22946  0.78932  0.87148  1.0000
  H   H1735     1.0  0.18061  0.80556  0.88723  1.0000
  H   H1736     1.0  0.20951  0.80120  0.89172  1.0000
  H   H1737     1.0  0.17629  0.81309  0.84870  1.0000
  H   H1738     1.0  0.16510  0.80277  0.86581  1.0000
  H   H1739     1.0  0.25476  0.79852  0.85398  1.0000
  H   H1740     1.0  0.25600  0.82916  0.84771  1.0000
  H   H1741     1.0  0.19352  0.86477  0.87547  1.0000
  H   H1742     1.0  0.19831  0.83945  0.88788  1.0000
  H   H1743     1.0  0.23269  0.87482  0.87633  1.0000
  H   H1744     1.0  0.21248  0.87405  0.89180  1.0000
  H   H1745     1.0  0.23650  0.84985  0.88956  1.0000
  H   H1746     1.0  0.26958  0.53708  0.81062  1.0000
  H   H1747     1.0  0.19729  0.50533  0.95712  1.0000
  H   H1748     1.0  0.26346  0.95238  0.92186  1.0000
  C   C975      1.0  0.99829  0.66551  0.87278  1.0000
  C   C976      1.0  0.26570  0.95974  0.73491  1.0000
  H   H1749     1.0  0.26270  0.97783  0.77177  1.0000
  C   C977      1.0  0.30902  0.75171  0.75487  1.0000
  H   H1750     1.0  0.27757  0.57251  0.85438  1.0000
  H   H1751     1.0  0.24453  0.51158  0.91476  1.0000
  N   N53       1.0  0.28678  0.55497  0.82951  1.0000
  H   H1752     1.0  0.18090  0.83678  0.94784  1.0000
  C   C978      1.0  0.27748  0.58575  0.84517  1.0000
  H   H1753     1.0  0.25677  0.95987  0.80177  1.0000
  H   H1754     1.0  0.24933  0.53151  0.82587  1.0000
  H   H1755     1.0  0.18179  0.54316  0.96082  1.0000
  H   H1756     1.0  0.28171  0.93133  0.89266  1.0000
  H   H1757     1.0  0.29619  0.56271  0.80072  1.0000
  C   C979      1.0  0.12333  0.55295  0.93985  1.0000
  H   H1758     1.0  0.27299  0.61475  0.85577  1.0000
  H   H1759     1.0  0.00069  0.57129  0.92036  1.0000
  H   H1760     1.0  0.24791  0.62743  0.90061  1.0000
  H   H1761     1.0  0.17395  0.97356  0.94079  1.0000
  H   H1762     1.0  0.21519  0.65074  0.88936  1.0000
  C   C980      1.0  0.24511  0.94195  0.88977  1.0000
  H   H1763     1.0  0.25100  0.62255  0.88392  1.0000
  H   H1764     1.0  0.00007  0.80579  0.89878  1.0000
  H   H1765     1.0  0.19508  0.90596  0.96096  1.0000
  C   C981      1.0  0.16675  0.88055  0.95363  1.0000
  C   C982      1.0  0.00614  0.90291  0.88062  1.0000
  H   H1766     1.0  0.28759  0.49529  0.86042  1.0000
  H   H1767     1.0  0.31568  0.56644  0.89511  1.0000
  H   H1768     1.0  0.27732  0.52077  0.83838  1.0000
  C   C983      1.0  0.99740  0.59068  0.91711  1.0000
  H   H1769     1.0  0.23077  0.91954  0.88051  1.0000
  H   H1770     1.0  0.24320  0.90440  0.89493  1.0000
  H   H1771     1.0  0.30604  0.49290  0.73748  1.0000
  H   H1772     1.0  0.09498  0.91265  0.93794  1.0000
  H   H1773     1.0  0.24964  0.56996  0.83116  1.0000
  C   C984      1.0  0.19062  0.83931  0.92227  1.0000
  H   H1774     1.0  0.98996  0.59867  0.92603  1.0000
  C   C985      1.0  0.99065  0.66794  0.89957  1.0000
  H   H1775     1.0  0.29105  0.51411  0.77798  1.0000
  C   C986      1.0  0.12951  0.87636  0.94712  1.0000
  H   H1776     1.0  0.16703  0.81552  0.96795  1.0000
  C   C987      1.0  0.13444  0.51548  0.96468  1.0000
  H   H1777     1.0  0.16851  0.92650  0.95790  1.0000
  C   C988      1.0  0.20204  0.49101  0.93940  1.0000
  H   H1778     1.0  0.01911  0.80829  0.91879  1.0000
  H   H1779     1.0  0.00942  0.91005  0.87018  1.0000
  H   H1780     1.0  0.30298  0.93279  0.76877  1.0000
  H   H1781     1.0  0.20466  0.63044  0.90368  1.0000
  H   H1782     1.0  0.30837  0.95042  0.93187  1.0000
  C   C989      1.0  0.13661  0.55542  0.95070  1.0000
  H   H1783     1.0  0.23264  0.97233  0.90998  1.0000
  S   S221      1.0  0.29379  0.79681  0.80411  1.0000
  C   C990      1.0  0.10889  0.57658  0.93474  1.0000
  C   C991      1.0  0.17601  0.91124  0.96483  1.0000
  C   C992      1.0  0.30568  0.93426  0.92887  1.0000
  C   C993      1.0  0.99786  0.88513  0.90761  1.0000
  C   C994      1.0  0.28787  0.97398  0.89029  1.0000
  C   C995      1.0  0.31144  0.55998  0.80589  1.0000
  H   H1784     1.0  0.22823  0.54414  0.80700  1.0000
  H   H1785     1.0  0.25207  0.50530  0.74435  1.0000
  H   H1786     1.0  0.99122  0.91226  0.84515  1.0000
  C   C996      1.0  0.24068  0.61921  0.89406  1.0000
  C   C997      1.0  0.21529  0.63178  0.89356  1.0000
  H   H1787     1.0  0.26647  0.56326  0.76681  1.0000
  H   H1788     1.0  0.24944  0.55258  0.91647  1.0000
  H   H1789     1.0  0.25457  0.57478  0.92975  1.0000
  H   H1790     1.0  0.28454  0.87706  0.72338  1.0000
  H   H1791     1.0  0.99533  0.74416  0.88905  1.0000
  H   H1792     1.0  0.24264  0.60402  0.92236  1.0000
  H   H1793     1.0  0.23466  0.58580  0.89155  1.0000
  C   C998      1.0  0.26456  0.56368  0.82361  1.0000
  C   C999      1.0  0.14281  0.84928  0.96632  1.0000
  H   H1794     1.0  0.23480  0.54712  0.89741  1.0000
  C   C1000     1.0  0.30602  0.56318  0.88782  1.0000
  C   C1001     1.0  0.11294  0.89524  0.95453  1.0000
  H   H1795     1.0  0.00665  0.75338  0.86286  1.0000
  C   C1002     1.0  0.24148  0.59235  0.89900  1.0000
  C   C1003     1.0  0.25923  0.59171  0.92389  1.0000
  C   C1004     1.0  0.29164  0.52991  0.73560  1.0000
  H   H1796     1.0  0.21573  0.48713  0.74852  1.0000
  H   H1797     1.0  0.29871  0.92301  0.91211  1.0000
  C   C1005     1.0  0.25347  0.53971  0.89835  1.0000
  C   C1006     1.0  0.30038  0.93979  0.91479  1.0000
  N   N54       1.0  0.28094  0.49716  0.75540  1.0000
  H   H1798     1.0  0.22016  0.56596  0.81764  1.0000
  C   C1007     1.0  0.26281  0.48962  0.74951  1.0000
  C   C1008     1.0  0.25563  0.54552  0.81784  1.0000
  H   H1799     1.0  0.30109  0.72944  0.77346  1.0000
  H   H1800     1.0  0.22821  0.58969  0.90817  1.0000
  H   H1801     1.0  0.12200  0.91051  0.95365  1.0000
  C   C1009     1.0  0.29465  0.51034  0.86217  1.0000
  H   H1802     1.0  0.19438  0.84677  0.91159  1.0000
  H   H1803     1.0  0.28789  0.59022  0.93455  1.0000
  H   H1804     1.0  0.14509  0.49918  0.96930  1.0000
  N   N55       1.0  0.15027  0.53302  0.95732  1.0000
  C   C1010     1.0  0.17229  0.85692  0.92943  1.0000
  H   H1805     1.0  0.24661  0.95519  0.88060  1.0000
  H   H1806     1.0  0.28586  0.59804  0.88460  1.0000
  C   C1011     1.0  0.27143  0.60221  0.93228  1.0000
  C   C1012     1.0  0.26934  0.96624  0.78046  1.0000
  H   H1807     1.0  0.00141  0.66447  0.86237  1.0000
  H   H1808     1.0  0.30417  0.96063  0.88898  1.0000
  H   H1809     1.0  0.17741  0.48559  0.95734  1.0000
  H   H1810     1.0  0.27580  0.61966  0.92707  1.0000
  H   H1811     1.0  0.13491  0.88604  0.93701  1.0000
  C   C1013     1.0  0.27134  0.54905  0.77502  1.0000
  H   H1812     1.0  0.31297  0.56375  0.86654  1.0000
  H   H1813     1.0  0.30369  0.54441  0.89012  1.0000
  H   H1814     1.0  0.12937  0.83888  0.96551  1.0000
  H   H1815     1.0  0.26425  0.54065  0.88833  1.0000
  H   H1816     1.0  0.16551  0.89564  0.94526  1.0000
  C   C1014     1.0  0.18593  0.50039  0.95125  1.0000
  H   H1817     1.0  0.30997  0.50317  0.86735  1.0000
  H   H1818     1.0  0.30336  0.60239  0.85045  1.0000
  H   H1819     1.0  0.31467  0.57748  0.80666  1.0000
  H   H1820     1.0  0.28834  0.54448  0.74131  1.0000
  C   C1015     1.0  0.31100  0.93406  0.96513  1.0000
  N   N56       1.0  0.31383  0.96517  0.77008  1.0000
  H   H1821     1.0  0.30035  0.53210  0.76242  1.0000
  H   H1822     1.0  0.14356  0.89755  0.96984  1.0000
  H   H1823     1.0  0.29540  0.76658  0.75793  1.0000
  H   H1824     1.0  0.27976  0.96826  0.87187  1.0000
  H   H1825     1.0  0.31554  0.50742  0.74802  1.0000
  C   C1016     1.0  0.31697  0.73564  0.76714  1.0000
  H   H1826     1.0  0.98757  0.66897  0.90997  1.0000
  H   H1827     1.0  0.98886  0.58616  0.89902  1.0000
  H   H1828     1.0  0.98809  0.71785  0.88683  1.0000
  Fe  Fe113     1.0  0.55869  0.06272  0.05057  1.0000
  S   S222      1.0  0.57920  0.03695  0.03767  1.0000
  S   S223      1.0  0.51825  0.07335  0.05390  1.0000
  Fe  Fe114     1.0  0.60358  0.06568  0.06168  1.0000
  S   S224      1.0  0.62669  0.03916  0.04983  1.0000
  S   S225      1.0  0.61848  0.07726  0.07744  1.0000
  Fe  Fe115     1.0  0.60788  0.05923  0.03325  1.0000
  S   S226      1.0  0.62706  0.07262  0.01280  1.0000
  Fe  Fe116     1.0  0.59606  0.01930  0.05539  1.0000
  C   C1017     1.0  0.34902  0.27780  0.11385  1.0000
  S   S227      1.0  0.58609  0.08699  0.04481  1.0000
  S   S228      1.0  0.57433  0.04392  0.06852  1.0000
  Fe  Fe117     1.0  0.36076  0.03575  0.02047  1.0000
  S   S229      1.0  0.33458  0.04210  0.03871  1.0000
  S   S230      1.0  0.34817  0.03697  0.00093  1.0000
  Fe  Fe118     1.0  0.40304  0.04005  0.03357  1.0000
  S   S231      1.0  0.37911  0.04736  0.05251  1.0000
  S   S232      1.0  0.44363  0.03602  0.02976  1.0000
  Fe  Fe119     1.0  0.36146  0.01833  0.05006  1.0000
  H   H1829     1.0  0.50670  0.98622  0.05393  1.0000
  Fe  Fe120     1.0  0.35435  0.07044  0.03950  1.0000
  H   H1830     1.0  0.32336  0.42844  0.02965  1.0000
  H   H1831     1.0  0.36438  0.99635  0.13046  1.0000
  S   S233      1.0  0.37954  0.06563  0.02065  1.0000
  H   H1832     1.0  0.42522  0.99451  0.07207  1.0000
  C   C1018     1.0  0.34606  0.46349  0.02936  1.0000
  C   C1019     1.0  0.51974  0.06827  0.10323  1.0000
  H   H1833     1.0  0.44482  0.03822  0.09703  1.0000
  H   H1834     1.0  0.35104  0.45493  0.05032  1.0000
  H   H1835     1.0  0.62901  0.33235  0.08775  1.0000
  H   H1836     1.0  0.62057  0.00449  0.16089  1.0000
  H   H1837     1.0  0.35568  0.99108  0.18041  1.0000
  H   H1838     1.0  0.32057  0.04877  0.98019  1.0000
  H   H1839     1.0  0.51787  0.08037  0.11035  1.0000
  H   H1840     1.0  0.42150  0.03633  0.08852  1.0000
  H   H1841     1.0  0.50336  0.98723  0.08349  1.0000
  C   C1020     1.0  0.63541  0.10015  0.07549  1.0000
  S   S234      1.0  0.38653  0.00950  0.03174  1.0000
  C   C1021     1.0  0.56168  0.99436  0.11593  1.0000
  H   H1842     1.0  0.47458  0.02810  0.07735  1.0000
  H   H1843     1.0  0.35479  0.34754  0.10412  1.0000
  H   H1844     1.0  0.59014  0.99889  0.13132  1.0000
  C   C1022     1.0  0.49804  0.98036  0.07561  1.0000
  C   C1023     1.0  0.43985  0.03980  0.08720  1.0000
  C   C1024     1.0  0.61210  0.00630  0.10581  1.0000
  C   C1025     1.0  0.63421  0.13380  0.02323  1.0000
  C   C1026     1.0  0.58857  0.02397  0.10613  1.0000
  C   C1027     1.0  0.55665  0.01091  0.14250  1.0000
  C   C1028     1.0  0.32114  0.45472  0.07866  1.0000
  H   H1845     1.0  0.32972  0.07164  0.16825  1.0000
  N   N57       1.0  0.32199  0.34248  0.09929  1.0000
  H   H1846     1.0  0.47137  0.14954  0.04665  1.0000
  H   H1847     1.0  0.35656  0.34474  0.08751  1.0000
  C   C1029     1.0  0.32858  0.10151  0.06780  1.0000
  H   H1848     1.0  0.58390  0.03007  0.13042  1.0000
  H   H1849     1.0  0.63038  0.99456  0.19551  1.0000
  C   C1030     1.0  0.49790  0.06231  0.04722  1.0000
  C   C1031     1.0  0.47358  0.06707  0.05231  1.0000
  C   C1032     1.0  0.45685  0.05871  0.04730  1.0000
  C   C1033     1.0  0.46411  0.04594  0.03692  1.0000
  C   C1034     1.0  0.48842  0.04112  0.03186  1.0000
  C   C1035     1.0  0.50523  0.04916  0.03699  1.0000
  H   H1850     1.0  0.46769  0.07709  0.06027  1.0000
  H   H1851     1.0  0.43836  0.06187  0.05152  1.0000
  H   H1852     1.0  0.49432  0.03122  0.02384  1.0000
  H   H1853     1.0  0.52382  0.04541  0.03291  1.0000
  H   H1854     1.0  0.58391  0.02643  0.09617  1.0000
  H   H1855     1.0  0.57302  0.02540  0.15522  1.0000
  C   C1036     1.0  0.37652  0.99814  0.08340  1.0000
  H   H1856     1.0  0.33744  0.00115  0.15171  1.0000
  H   H1857     1.0  0.57726  0.04931  0.00348  1.0000
  C   C1037     1.0  0.62854  0.01886  0.15387  1.0000
  H   H1858     1.0  0.54163  0.02576  0.14240  1.0000
  N   N58       1.0  0.40095  0.13109  0.03847  1.0000
  C   C1038     1.0  0.41397  0.11060  0.03182  1.0000
  C   C1039     1.0  0.38935  0.12234  0.05243  1.0000
  C   C1040     1.0  0.38165  0.14380  0.03071  1.0000
  C   C1041     1.0  0.41680  0.14846  0.03836  1.0000
  C   C1042     1.0  0.43928  0.13860  0.04463  1.0000
  C   C1043     1.0  0.42568  0.11702  0.01715  1.0000
  C   C1044     1.0  0.36316  0.16299  0.03707  1.0000
  C   C1045     1.0  0.40272  0.10027  0.06037  1.0000
  C   C1046     1.0  0.39188  0.09701  0.07504  1.0000
  H   H1859     1.0  0.60631  0.06552  0.98553  1.0000
  C   C1047     1.0  0.44033  0.09533  0.01186  1.0000
  C   C1048     1.0  0.34440  0.17392  0.02840  1.0000
  H   H1860     1.0  0.40166  0.09815  0.03225  1.0000
  H   H1861     1.0  0.42805  0.09999  0.03715  1.0000
  H   H1862     1.0  0.38504  0.13677  0.05837  1.0000
  H   H1863     1.0  0.37209  0.11723  0.05234  1.0000
  H   H1864     1.0  0.37177  0.13087  0.02881  1.0000
  H   H1865     1.0  0.38933  0.15273  0.02078  1.0000
  H   H1866     1.0  0.42225  0.15760  0.02810  1.0000
  H   H1867     1.0  0.40689  0.16279  0.04376  1.0000
  H   H1868     1.0  0.44968  0.12278  0.04079  1.0000
  H   H1869     1.0  0.43431  0.13429  0.05553  1.0000
  H   H1870     1.0  0.41206  0.12448  0.01080  1.0000
  H   H1871     1.0  0.43774  0.12989  0.01598  1.0000
  H   H1872     1.0  0.37170  0.17738  0.03832  1.0000
  H   H1873     1.0  0.35373  0.15555  0.04687  1.0000
  H   H1874     1.0  0.40133  0.08441  0.05661  1.0000
  H   H1875     1.0  0.42169  0.10085  0.05951  1.0000
  H   H1876     1.0  0.39402  0.11186  0.07948  1.0000
  H   H1877     1.0  0.37281  0.09601  0.07643  1.0000
  H   H1878     1.0  0.40079  0.08035  0.08033  1.0000
  C   C1049     1.0  0.64919  0.29540  0.07518  1.0000
  C   C1050     1.0  0.38379  0.46212  0.03807  1.0000
  H   H1879     1.0  0.46514  0.99445  0.05926  1.0000
  H   H1880     1.0  0.42910  0.08182  0.01263  1.0000
  H   H1881     1.0  0.44805  0.10034  0.00130  1.0000
  H   H1882     1.0  0.45504  0.08762  0.01744  1.0000
  H   H1883     1.0  0.36384  0.40730  0.08646  1.0000
  H   H1884     1.0  0.63208  0.29266  0.08167  1.0000
  H   H1885     1.0  0.33265  0.42580  0.05185  1.0000
  C   C1051     1.0  0.54711  0.03712  0.11632  1.0000
  H   H1886     1.0  0.63413  0.01335  0.14404  1.0000
  H   H1887     1.0  0.49515  0.01288  0.06040  1.0000
  H   H1888     1.0  0.33352  0.03234  0.13016  1.0000
  H   H1889     1.0  0.35259  0.18268  0.01858  1.0000
  H   H1890     1.0  0.64085  0.41131  0.14721  1.0000
  H   H1891     1.0  0.37563  0.01579  0.07780  1.0000
  H   H1892     1.0  0.39778  0.00403  0.09648  1.0000
  C   C1052     1.0  0.64591  0.33580  0.08120  1.0000
  C   C1053     1.0  0.64338  0.45724  0.08177  1.0000
  C   C1054     1.0  0.61455  0.37779  0.09149  1.0000
  H   H1893     1.0  0.59246  0.04136  0.10696  1.0000
  H   H1894     1.0  0.33318  0.27463  0.12145  1.0000
  H   H1895     1.0  0.54404  0.98298  0.06275  1.0000
  C   C1055     1.0  0.34885  0.30422  0.10913  1.0000
  C   C1056     1.0  0.60023  0.40252  0.08875  1.0000
  C   C1057     1.0  0.45826  0.99707  0.08672  1.0000
  H   H1896     1.0  0.58146  0.99380  0.15587  1.0000
  H   H1897     1.0  0.32722  0.11486  0.22184  1.0000
  H   H1898     1.0  0.54820  0.05032  0.12232  1.0000
  C   C1058     1.0  0.45568  0.15691  0.04179  1.0000
  H   H1899     1.0  0.62575  0.01837  0.08501  1.0000
  H   H1900     1.0  0.54967  0.99442  0.14329  1.0000
  H   H1901     1.0  0.37416  0.38289  0.09853  1.0000
  C   C1059     1.0  0.34224  0.37973  0.09183  1.0000
  H   H1902     1.0  0.63774  0.42993  0.09876  1.0000
  H   H1903     1.0  0.44647  0.17312  0.04570  1.0000
  H   H1904     1.0  0.60529  0.36575  0.08838  1.0000
  H   H1905     1.0  0.61420  0.37301  0.10232  1.0000
  H   H1906     1.0  0.61907  0.00335  0.11516  1.0000
  H   H1907     1.0  0.53778  0.00989  0.05133  1.0000
  C   C1060     1.0  0.32745  0.47684  0.07794  1.0000
  H   H1908     1.0  0.35521  0.44647  0.02630  1.0000
  H   H1909     1.0  0.64172  0.09766  0.03228  1.0000
  H   H1910     1.0  0.63472  0.09068  0.18634  1.0000
  H   H1911     1.0  0.53047  0.03006  0.12092  1.0000
  H   H1912     1.0  0.50521  0.05767  0.10623  1.0000
  H   H1913     1.0  0.61990  0.01424  0.98080  1.0000
  S   S235      1.0  0.59478  0.98075  0.06300  1.0000
  H   H1914     1.0  0.60762  0.41534  0.09244  1.0000
  H   H1915     1.0  0.60018  0.40842  0.07799  1.0000
  H   H1916     1.0  0.58166  0.40254  0.09389  1.0000
  C   C1061     1.0  0.64034  0.37689  0.08392  1.0000
  C   C1062     1.0  0.53173  0.99995  0.06126  1.0000
  C   C1063     1.0  0.65074  0.43822  0.09138  1.0000
  H   H1917     1.0  0.34925  0.26894  0.10543  1.0000
  H   H1918     1.0  0.39045  0.44385  0.03619  1.0000
  H   H1919     1.0  0.58641  0.02032  0.99917  1.0000
  H   H1920     1.0  0.34208  0.45557  0.00590  1.0000
  H   H1921     1.0  0.32290  0.34580  0.07826  1.0000
  H   H1922     1.0  0.43188  0.99255  0.04820  1.0000
  H   H1923     1.0  0.33346  0.44143  0.07391  1.0000
  C   C1064     1.0  0.63115  0.01579  0.09483  1.0000
  H   H1924     1.0  0.55265  0.00581  0.16386  1.0000
  H   H1925     1.0  0.56918  0.99527  0.09438  1.0000
  H   H1926     1.0  0.62801  0.14042  0.03273  1.0000
  C   C1065     1.0  0.36622  0.38781  0.08940  1.0000
  H   H1927     1.0  0.62056  0.47411  0.11801  1.0000
  H   H1928     1.0  0.34934  0.31206  0.11775  1.0000
  H   H1929     1.0  0.53861  0.00584  0.10098  1.0000
  H   H1930     1.0  0.33497  0.38590  0.08253  1.0000
  H   H1931     1.0  0.62625  0.11843  0.05681  1.0000
  H   H1932     1.0  0.60965  0.98913  0.10395  1.0000
  H   H1933     1.0  0.45082  0.02462  0.06965  1.0000
  H   H1934     1.0  0.32903  0.99357  0.01359  1.0000
  C   C1066     1.0  0.64534  0.98495  0.18982  1.0000
  H   H1935     1.0  0.46197  0.16148  0.03098  1.0000
  N   N59       1.0  0.56823  0.01744  0.11682  1.0000
  S   S236      1.0  0.33349  0.10690  0.04071  1.0000
  H   H1936     1.0  0.64336  0.02760  0.16888  1.0000
  H   H1937     1.0  0.46607  0.99669  0.09556  1.0000
  H   H1938     1.0  0.64755  0.02239  0.01626  1.0000
  H   H1939     1.0  0.55759  0.06359  0.09902  1.0000
  H   H1940     1.0  0.63854  0.06865  0.16848  1.0000
  H   H1941     1.0  0.61856  0.13087  0.01972  1.0000
  H   H1942     1.0  0.34014  0.08473  0.06744  1.0000
  H   H1943     1.0  0.36544  0.30642  0.10197  1.0000
  H   H1944     1.0  0.33505  0.16016  0.02702  1.0000
  H   H1945     1.0  0.51817  0.07903  0.09331  1.0000
  H   H1946     1.0  0.64082  0.34026  0.10601  1.0000
  H   H1947     1.0  0.64746  0.39088  0.08675  1.0000
  H   H1948     1.0  0.37849  0.37986  0.08131  1.0000
  H   H1949     1.0  0.53241  0.01053  0.06875  1.0000
  H   H1950     1.0  0.32086  0.45679  0.13006  1.0000
  C   C1067     1.0  0.57604  0.01452  0.13001  1.0000
  H   H1951     1.0  0.61491  0.03499  0.15317  1.0000
  C   C1068     1.0  0.54375  0.05217  0.10256  1.0000
  C   C1069     1.0  0.45696  0.02267  0.07916  1.0000
  C   C1070     1.0  0.32254  0.45996  0.00704  1.0000
  H   H1952     1.0  0.64798  0.00315  0.09481  1.0000
  H   H1953     1.0  0.64382  0.35498  0.12651  1.0000
  H   H1954     1.0  0.54642  0.99025  0.12377  1.0000
  H   H1955     1.0  0.64149  0.34317  0.07115  1.0000
  H   H1956     1.0  0.44050  0.05811  0.08185  1.0000
  H   H1957     1.0  0.54504  0.04127  0.09499  1.0000
  C   C1071     1.0  0.38907  0.99144  0.09399  1.0000
  H   H1958     1.0  0.63439  0.03287  0.09642  1.0000
  H   H1959     1.0  0.64840  0.06067  0.19127  1.0000
  C   C1072     1.0  0.56667  0.00890  0.15509  1.0000
  H   H1960     1.0  0.58748  0.05136  0.97916  1.0000
  C   C1073     1.0  0.63632  0.11810  0.06441  1.0000
  C   C1074     1.0  0.65084  0.07744  0.18436  1.0000
  H   H1961     1.0  0.36504  0.26982  0.11830  1.0000
  C   C1075     1.0  0.50660  0.99556  0.06214  1.0000
  H   H1962     1.0  0.33116  0.18725  0.03324  1.0000
  H   H1963     1.0  0.60633  0.03351  0.00537  1.0000
  C   C1076     1.0  0.62413  0.03230  0.97885  1.0000
  C   C1077     1.0  0.32715  0.31580  0.10234  1.0000
  C   C1078     1.0  0.32680  0.02261  0.99737  1.0000
  C   C1079     1.0  0.64973  0.02328  0.15882  1.0000
  H   H1964     1.0  0.33196  0.35282  0.12269  1.0000
  H   H1965     1.0  0.63807  0.03126  0.98482  1.0000
  C   C1080     1.0  0.59246  0.03707  0.99909  1.0000
  H   H1966     1.0  0.36603  0.98414  0.99056  1.0000
  C   C1081     1.0  0.32106  0.00131  0.00492  1.0000
  C   C1082     1.0  0.34473  0.35253  0.09583  1.0000
  C   C1083     1.0  0.36510  0.98199  0.08014  1.0000
  H   H1967     1.0  0.33054  0.05090  0.14884  1.0000
  H   H1968     1.0  0.43998  0.99349  0.09076  1.0000
  S   S237      1.0  0.34977  0.98972  0.06667  1.0000
  H   H1969     1.0  0.64610  0.30332  0.06499  1.0000
  C   C1084     1.0  0.32977  0.99905  0.14331  1.0000
  H   H1970     1.0  0.39036  0.47485  0.02932  1.0000
  C   C1085     1.0  0.55449  0.99273  0.10283  1.0000
  C   C1086     1.0  0.60191  0.04828  0.98498  1.0000
  C   C1087     1.0  0.35679  0.46678  0.04107  1.0000
  H   H1971     1.0  0.39095  0.46441  0.04664  1.0000
  H   H1972     1.0  0.63956  0.38281  0.07319  1.0000
  H   H1973     1.0  0.33569  0.47032  0.16673  1.0000
  S   S238      1.0  0.61308  0.46711  0.08143  1.0000
  H   H1974     1.0  0.64074  0.45153  0.13257  1.0000
  H   H1975     1.0  0.33071  0.30834  0.09305  1.0000
  H   H1976     1.0  0.63991  0.98622  0.06816  1.0000
  H   H1977     1.0  0.64756  0.05928  0.14794  1.0000
  H   H1978     1.0  0.64274  0.14728  0.01575  1.0000
  C   C1088     1.0  0.65140  0.11059  0.02510  1.0000
  H   H1979     1.0  0.65086  0.14946  0.05456  1.0000
  C   C1089     1.0  0.65168  0.05612  0.00411  1.0000
  C   C1090     1.0  0.65031  0.13565  0.06316  1.0000
  H   H1980     1.0  0.33066  0.38869  0.09972  1.0000
  C   C1091     1.0  0.32043  0.98455  0.18910  1.0000
  N   N60       1.0  0.47204  0.97820  0.07907  1.0000
  C   C1092     1.0  0.46224  0.97851  0.06677  1.0000
  C   C1093     1.0  0.64829  0.10031  0.08541  1.0000
  H   H1981     1.0  0.64757  0.08664  0.09407  1.0000
  C   C1094     1.0  0.43534  0.97812  0.06874  1.0000
  C   C1095     1.0  0.32029  0.10954  0.07990  1.0000
  H   H1982     1.0  0.32550  0.09889  0.08888  1.0000
  C   C1096     1.0  0.34962  0.98612  0.13415  1.0000
  H   H1983     1.0  0.34299  0.98302  0.12558  1.0000
  C   C1097     1.0  0.32231  0.11549  0.05615  1.0000
  H   H1984     1.0  0.32180  0.46099  0.98632  1.0000
  C   C1098     1.0  0.34276  0.97982  0.18123  1.0000
  H   H1985     1.0  0.35216  0.47740  0.02105  1.0000
  H   H1986     1.0  0.57633  0.97951  0.11797  1.0000
  H   H1987     1.0  0.37571  0.10448  0.34882  1.0000
  Fe  Fe121     1.0  0.62806  0.41462  0.41506  1.0000
  S   S239      1.0  0.60281  0.43560  0.40172  1.0000
  C   C1099     1.0  0.42054  0.43646  0.41547  1.0000
  Fe  Fe122     1.0  0.63616  0.37200  0.40096  1.0000
  S   S240      1.0  0.61254  0.38999  0.38628  1.0000
  N   N61       1.0  0.42703  0.46089  0.41272  1.0000
  Fe  Fe123     1.0  0.62978  0.42134  0.38540  1.0000
  H   H1988     1.0  0.58534  0.29888  0.37639  1.0000
  Fe  Fe124     1.0  0.58747  0.40242  0.40379  1.0000
  S   S241      1.0  0.54886  0.39678  0.41038  1.0000
  C   C1100     1.0  0.38720  0.09931  0.35649  1.0000
  S   S242      1.0  0.61060  0.38243  0.41860  1.0000
  Fe  Fe125     1.0  0.60809  0.21981  0.40805  1.0000
  S   S243      1.0  0.58822  0.22831  0.39116  1.0000
  S   S244      1.0  0.60302  0.24837  0.42037  1.0000
  Fe  Fe126     1.0  0.62722  0.16899  0.40351  1.0000
  S   S245      1.0  0.60788  0.17395  0.38630  1.0000
  H   H1989     1.0  0.32542  0.27577  0.36871  1.0000
  Fe  Fe127     1.0  0.62073  0.20872  0.38025  1.0000
  Fe  Fe128     1.0  0.57687  0.19296  0.39880  1.0000
  S   S246      1.0  0.53706  0.19289  0.40337  1.0000
  C   C1101     1.0  0.65161  0.12141  0.35633  1.0000
  S   S247      1.0  0.59515  0.18532  0.41652  1.0000
  Fe  Fe129     1.0  0.37596  0.20658  0.38324  1.0000
  S   S248      1.0  0.40138  0.20000  0.36487  1.0000
  S   S249      1.0  0.35882  0.24465  0.38336  1.0000
  Fe  Fe130     1.0  0.37889  0.15435  0.39449  1.0000
  S   S250      1.0  0.40506  0.14424  0.37676  1.0000
  S   S251      1.0  0.36901  0.12351  0.41050  1.0000
  Fe  Fe131     1.0  0.42313  0.17373  0.37829  1.0000
  S   S252      1.0  0.46331  0.17115  0.37236  1.0000
  Fe  Fe132     1.0  0.38133  0.17137  0.36487  1.0000
  S   S253      1.0  0.37412  0.16781  0.34499  1.0000
  S   S254      1.0  0.39877  0.18209  0.39694  1.0000
  S   S255      1.0  0.35404  0.17965  0.38239  1.0000
  Fe  Fe133     1.0  0.37964  0.39807  0.39960  1.0000
  S   S256      1.0  0.39357  0.42233  0.38150  1.0000
  S   S257      1.0  0.35332  0.41022  0.41702  1.0000
  Fe  Fe134     1.0  0.40728  0.35419  0.38884  1.0000
  S   S258      1.0  0.42296  0.37557  0.36992  1.0000
  S   S259      1.0  0.42081  0.31485  0.39243  1.0000
  Fe  Fe135     1.0  0.42900  0.39905  0.38289  1.0000
  S   S260      1.0  0.46360  0.41390  0.37826  1.0000
  Fe  Fe136     1.0  0.38629  0.39658  0.37030  1.0000
  S   S261      1.0  0.36973  0.41142  0.35186  1.0000
  S   S262      1.0  0.41549  0.37645  0.40181  1.0000
  S   S263      1.0  0.37010  0.37355  0.38836  1.0000
  C   C1102     1.0  0.37577  0.26392  0.38637  1.0000
  C   C1103     1.0  0.39785  0.25546  0.39015  1.0000
  C   C1104     1.0  0.41119  0.27120  0.39231  1.0000
  C   C1105     1.0  0.40281  0.29553  0.39047  1.0000
  C   C1106     1.0  0.38056  0.30398  0.38687  1.0000
  C   C1107     1.0  0.36703  0.28820  0.38489  1.0000
  H   H1990     1.0  0.40450  0.23673  0.39157  1.0000
  H   H1991     1.0  0.42786  0.26441  0.39561  1.0000
  H   H1992     1.0  0.37379  0.32265  0.38561  1.0000
  H   H1993     1.0  0.34977  0.29481  0.38220  1.0000
  C   C1108     1.0  0.51723  0.18475  0.39509  1.0000
  C   C1109     1.0  0.49292  0.18842  0.40030  1.0000
  C   C1110     1.0  0.47620  0.18392  0.39362  1.0000
  C   C1111     1.0  0.48365  0.17572  0.38161  1.0000
  C   C1112     1.0  0.50802  0.17164  0.37651  1.0000
  C   C1113     1.0  0.52477  0.17590  0.38327  1.0000
  H   H1994     1.0  0.48693  0.19502  0.40950  1.0000
  H   H1995     1.0  0.45754  0.18703  0.39769  1.0000
  H   H1996     1.0  0.51394  0.16514  0.36727  1.0000
  H   H1997     1.0  0.54342  0.17276  0.37923  1.0000
  H   H1998     1.0  0.50145  0.44609  0.40529  1.0000
  N   N62       1.0  0.64129  0.03750  0.47015  1.0000
  C   C1114     1.0  0.63724  0.27173  0.40368  1.0000
  C   C1115     1.0  0.61738  0.27290  0.41368  1.0000
  C   C1116     1.0  0.60909  0.29383  0.41879  1.0000
  C   C1117     1.0  0.62028  0.31363  0.41380  1.0000
  H   H1999     1.0  0.34137  0.16549  0.26064  1.0000
  H   H2000     1.0  0.60429  0.03551  0.47198  1.0000
  H   H2001     1.0  0.59410  0.29468  0.42671  1.0000
  H   H2002     1.0  0.46062  0.45053  0.40042  1.0000
  C   C1118     1.0  0.52598  0.40038  0.40099  1.0000
  C   C1119     1.0  0.52835  0.41108  0.38769  1.0000
  C   C1120     1.0  0.50915  0.41482  0.38088  1.0000
  C   C1121     1.0  0.48749  0.40764  0.38719  1.0000
  C   C1122     1.0  0.48520  0.39672  0.40047  1.0000
  C   C1123     1.0  0.50432  0.39318  0.40731  1.0000
  H   H2003     1.0  0.54480  0.41690  0.38271  1.0000
  H   H2004     1.0  0.51108  0.42346  0.37065  1.0000
  H   H2005     1.0  0.46860  0.39138  0.40552  1.0000
  H   H2006     1.0  0.50223  0.38511  0.41763  1.0000
  C   C1124     1.0  0.32336  0.02642  0.46772  1.0000
  C   C1125     1.0  0.34973  0.39787  0.34667  1.0000
  C   C1126     1.0  0.64074  0.31214  0.40423  1.0000
  H   H2007     1.0  0.63906  0.32616  0.43394  1.0000
  H   H2008     1.0  0.32921  0.14883  0.27609  1.0000
  C   C1127     1.0  0.35274  0.45824  0.40944  1.0000
  H   H2009     1.0  0.56492  0.29851  0.36577  1.0000
  H   H2010     1.0  0.32179  0.15107  0.40855  1.0000
  C   C1128     1.0  0.34431  0.15691  0.33107  1.0000
  C   C1129     1.0  0.34752  0.15979  0.34350  1.0000
  H   H2011     1.0  0.36627  0.45403  0.40120  1.0000
  H   H2012     1.0  0.42431  0.46383  0.43331  1.0000
  H   H2013     1.0  0.59895  0.34642  0.44255  1.0000
  H   H2014     1.0  0.60748  0.12027  0.35060  1.0000
  N   N63       1.0  0.37222  0.30772  0.33696  1.0000
  C   C1130     1.0  0.40642  0.24366  0.33517  1.0000
  H   H2015     1.0  0.53133  0.30198  0.38427  1.0000
  H   H2016     1.0  0.61744  0.19461  0.34936  1.0000
  C   C1131     1.0  0.32732  0.39634  0.32969  1.0000
  H   H2017     1.0  0.55727  0.35456  0.43063  1.0000
  H   H2018     1.0  0.63403  0.04015  0.44349  1.0000
  H   H2019     1.0  0.43467  0.42325  0.43424  1.0000
  H   H2020     1.0  0.54953  0.22536  0.42833  1.0000
  H   H2021     1.0  0.32110  0.30780  0.34200  1.0000
  H   H2022     1.0  0.63198  0.41174  0.35517  1.0000
  C   C1132     1.0  0.64919  0.29114  0.39917  1.0000
  H   H2023     1.0  0.45775  0.47800  0.40572  1.0000
  H   H2024     1.0  0.55320  0.27628  0.38784  1.0000
  H   H2025     1.0  0.61351  0.32976  0.41769  1.0000
  H   H2026     1.0  0.65084  0.33542  0.29236  1.0000
  H   H2027     1.0  0.35835  0.15916  0.32265  1.0000
  C   C1133     1.0  0.35251  0.09317  0.37512  1.0000
  H   H2028     1.0  0.62721  0.32656  0.37459  1.0000
  C   C1134     1.0  0.64363  0.18376  0.33303  1.0000
  H   H2029     1.0  0.34651  0.31453  0.32380  1.0000
  H   H2030     1.0  0.64605  0.35906  0.36005  1.0000
  C   C1135     1.0  0.34321  0.44013  0.41850  1.0000
  S   S264      1.0  0.64163  0.20297  0.39661  1.0000
  H   H2031     1.0  0.34548  0.04489  0.37608  1.0000
  H   H2032     1.0  0.46365  0.33330  0.41033  1.0000
  H   H2033     1.0  0.32244  0.10171  0.39756  1.0000
  H   H2034     1.0  0.33929  0.20773  0.31385  1.0000
  H   H2035     1.0  0.32411  0.05219  0.41121  1.0000
  H   H2036     1.0  0.39685  0.47597  0.40305  1.0000
  C   C1136     1.0  0.41901  0.42307  0.42996  1.0000
  H   H2037     1.0  0.38738  0.47186  0.44907  1.0000
  C   C1137     1.0  0.32870  0.20056  0.29702  1.0000
  C   C1138     1.0  0.41789  0.47389  0.42422  1.0000
  C   C1139     1.0  0.62761  0.05647  0.44776  1.0000
  H   H2038     1.0  0.32687  0.18198  0.30135  1.0000
  C   C1140     1.0  0.64868  0.41614  0.34961  1.0000
  C   C1141     1.0  0.47672  0.33658  0.40113  1.0000
  C   C1142     1.0  0.46857  0.44676  0.41964  1.0000
  C   C1143     1.0  0.63544  0.19467  0.34421  1.0000
  H   H2039     1.0  0.62385  0.10743  0.37169  1.0000
  H   H2040     1.0  0.64384  0.25559  0.39974  1.0000
  C   C1144     1.0  0.63053  0.32794  0.36366  1.0000
  C   C1145     1.0  0.49426  0.45064  0.41526  1.0000
  N   N64       1.0  0.33771  0.07651  0.38469  1.0000
  H   H2041     1.0  0.60818  0.23117  0.31851  1.0000
  H   H2042     1.0  0.63333  0.36543  0.44283  1.0000
  H   H2043     1.0  0.35812  0.07507  0.39991  1.0000
  H   H2044     1.0  0.44376  0.47001  0.38364  1.0000
  C   C1146     1.0  0.63458  0.32773  0.44452  1.0000
  H   H2045     1.0  0.34809  0.01908  0.42322  1.0000
  H   H2046     1.0  0.40042  0.39628  0.42733  1.0000
  H   H2047     1.0  0.65186  0.29029  0.29458  1.0000
  H   H2048     1.0  0.60217  0.33130  0.45911  1.0000
  C   C1147     1.0  0.60769  0.33034  0.44843  1.0000
  C   C1148     1.0  0.33100  0.06023  0.37717  1.0000
  H   H2049     1.0  0.32914  0.22212  0.33209  1.0000
  H   H2050     1.0  0.40298  0.43705  0.41277  1.0000
  C   C1149     1.0  0.34002  0.11711  0.41638  1.0000
  H   H2051     1.0  0.43317  0.42510  0.40896  1.0000
  H   H2052     1.0  0.55788  0.26358  0.41392  1.0000
  C   C1150     1.0  0.55190  0.30443  0.39911  1.0000
  H   H2053     1.0  0.34563  0.34171  0.30202  1.0000
  H   H2054     1.0  0.53138  0.34188  0.43875  1.0000
  H   H2055     1.0  0.34671  0.20080  0.29109  1.0000
  H   H2056     1.0  0.52417  0.30661  0.43106  1.0000
  H   H2057     1.0  0.55061  0.32388  0.39652  1.0000
  C   C1151     1.0  0.56687  0.30510  0.37460  1.0000
  H   H2058     1.0  0.53678  0.34437  0.41455  1.0000
  H   H2059     1.0  0.41882  0.23130  0.34110  1.0000
  H   H2060     1.0  0.36260  0.29121  0.35745  1.0000
  H   H2061     1.0  0.55425  0.29350  0.42741  1.0000
  H   H2062     1.0  0.56645  0.32908  0.41418  1.0000
  H   H2063     1.0  0.34995  0.42194  0.32812  1.0000
  H   H2064     1.0  0.50167  0.34285  0.41170  1.0000
  H   H2065     1.0  0.39563  0.28858  0.32260  1.0000
  C   C1152     1.0  0.41981  0.32502  0.35300  1.0000
  H   H2066     1.0  0.36174  0.04487  0.42048  1.0000
  H   H2067     1.0  0.38903  0.11543  0.35988  1.0000
  H   H2068     1.0  0.42373  0.32167  0.36319  1.0000
  H   H2069     1.0  0.40325  0.43121  0.43634  1.0000
  H   H2070     1.0  0.64879  0.07659  0.43145  1.0000
  C   C1153     1.0  0.50183  0.33200  0.40423  1.0000
  H   H2071     1.0  0.50445  0.29536  0.40329  1.0000
  H   H2072     1.0  0.63194  0.17510  0.32966  1.0000
  H   H2073     1.0  0.34823  0.32049  0.35344  1.0000
  H   H2074     1.0  0.65136  0.13675  0.34807  1.0000
  C   C1154     1.0  0.63005  0.07724  0.43638  1.0000
  C   C1155     1.0  0.39773  0.31492  0.35307  1.0000
  H   H2075     1.0  0.36945  0.27688  0.32950  1.0000
  H   H2076     1.0  0.58977  0.13426  0.36396  1.0000
  H   H2077     1.0  0.37534  0.06606  0.36431  1.0000
  H   H2078     1.0  0.64618  0.23655  0.32184  1.0000
  C   C1156     1.0  0.35244  0.06272  0.39487  1.0000
  H   H2079     1.0  0.37370  0.02223  0.41050  1.0000
  C   C1157     1.0  0.53986  0.30612  0.42300  1.0000
  C   C1158     1.0  0.64177  0.05755  0.45853  1.0000
  H   H2080     1.0  0.35261  0.08217  0.42599  1.0000
  S   S265      1.0  0.63485  0.43043  0.43190  1.0000
  H   H2081     1.0  0.64140  0.46224  0.44775  1.0000
  C   C1159     1.0  0.53028  0.23247  0.42959  1.0000
  H   H2082     1.0  0.64906  0.37768  0.46417  1.0000
  H   H2083     1.0  0.63163  0.26386  0.31362  1.0000
  H   H2084     1.0  0.56061  0.32443  0.43900  1.0000
  C   C1160     1.0  0.41629  0.47540  0.40107  1.0000
  C   C1161     1.0  0.62260  0.23259  0.30981  1.0000
  H   H2085     1.0  0.51362  0.33806  0.39497  1.0000
  H   H2086     1.0  0.38961  0.07662  0.37511  1.0000
  H   H2087     1.0  0.33746  0.03002  0.40103  1.0000
  C   C1162     1.0  0.50924  0.30562  0.40978  1.0000
  H   H2088     1.0  0.52180  0.22460  0.43955  1.0000
  C   C1163     1.0  0.33719  0.09456  0.42355  1.0000
  N   N65       1.0  0.53472  0.29733  0.41148  1.0000
  H   H2089     1.0  0.50671  0.26544  0.42952  1.0000
  C   C1164     1.0  0.32933  0.15680  0.35433  1.0000
  H   H2090     1.0  0.52254  0.22707  0.42210  1.0000
  H   H2091     1.0  0.53289  0.26356  0.43636  1.0000
  C   C1165     1.0  0.60710  0.13290  0.35721  1.0000
  H   H2092     1.0  0.62591  0.13747  0.37174  1.0000
  C   C1166     1.0  0.54942  0.33819  0.43295  1.0000
  C   C1167     1.0  0.37683  0.08183  0.36813  1.0000
  C   C1168     1.0  0.54834  0.33036  0.42012  1.0000
  H   H2093     1.0  0.40498  0.09116  0.35195  1.0000
  C   C1169     1.0  0.45350  0.45981  0.40900  1.0000
  H   H2094     1.0  0.63433  0.30995  0.36117  1.0000
  H   H2095     1.0  0.61424  0.33762  0.35992  1.0000
  H   H2096     1.0  0.32748  0.23344  0.30301  1.0000
  H   H2097     1.0  0.56956  0.22946  0.36402  1.0000
  H   H2098     1.0  0.60852  0.05723  0.45191  1.0000
  H   H2099     1.0  0.41509  0.38845  0.44146  1.0000
  C   C1170     1.0  0.35935  0.35026  0.30416  1.0000
  H   H2100     1.0  0.49562  0.46930  0.41498  1.0000
  H   H2101     1.0  0.41696  0.34438  0.34948  1.0000
  H   H2102     1.0  0.43236  0.38795  0.42517  1.0000
  H   H2103     1.0  0.36896  0.05268  0.39007  1.0000
  H   H2104     1.0  0.35589  0.10673  0.38024  1.0000
  H   H2105     1.0  0.38313  0.32348  0.35998  1.0000
  C   C1171     1.0  0.39755  0.26607  0.34117  1.0000
  H   H2106     1.0  0.35052  0.36579  0.30884  1.0000
  H   H2107     1.0  0.34275  0.10310  0.36709  1.0000
  C   C1172     1.0  0.38314  0.28501  0.33201  1.0000
  C   C1173     1.0  0.34086  0.04411  0.40561  1.0000
  C   C1174     1.0  0.34285  0.40692  0.33429  1.0000
  C   C1175     1.0  0.39098  0.32025  0.33908  1.0000
  C   C1176     1.0  0.32463  0.36819  0.35008  1.0000
  H   H2108     1.0  0.43526  0.31656  0.34655  1.0000
  H   H2109     1.0  0.49719  0.30190  0.41936  1.0000
  C   C1177     1.0  0.35443  0.30370  0.34953  1.0000
  C   C1178     1.0  0.64822  0.01390  0.46569  1.0000
  C   C1179     1.0  0.54940  0.29578  0.38657  1.0000
  H   H2110     1.0  0.50532  0.43922  0.42231  1.0000
  H   H2111     1.0  0.46863  0.42753  0.42104  1.0000
  H   H2112     1.0  0.40095  0.29585  0.35713  1.0000
  H   H2113     1.0  0.42515  0.44770  0.38883  1.0000
  H   H2114     1.0  0.63914  0.34785  0.45813  1.0000
  H   H2115     1.0  0.53285  0.26332  0.40700  1.0000
  C   C1180     1.0  0.35930  0.32358  0.32650  1.0000
  C   C1181     1.0  0.52606  0.25931  0.42818  1.0000
  H   H2116     1.0  0.41339  0.27258  0.34228  1.0000
  H   H2117     1.0  0.62368  0.09425  0.44000  1.0000
  H   H2118     1.0  0.63428  0.01048  0.46090  1.0000
  H   H2119     1.0  0.47510  0.32515  0.39428  1.0000
  H   H2120     1.0  0.57292  0.22425  0.34738  1.0000
  H   H2121     1.0  0.38179  0.46544  0.42728  1.0000
  C   C1182     1.0  0.32569  0.46847  0.37885  1.0000
  H   H2122     1.0  0.64202  0.31111  0.45054  1.0000
  H   H2123     1.0  0.46211  0.45283  0.42923  1.0000
  H   H2124     1.0  0.57040  0.29778  0.40092  1.0000
  H   H2125     1.0  0.61937  0.07646  0.42893  1.0000
  H   H2126     1.0  0.37052  0.35653  0.29466  1.0000
  H   H2127     1.0  0.40741  0.31693  0.33173  1.0000
  C   C1183     1.0  0.53867  0.27066  0.41451  1.0000
  H   H2128     1.0  0.34881  0.33923  0.33051  1.0000
  H   H2129     1.0  0.38694  0.26110  0.35106  1.0000
  H   H2130     1.0  0.38506  0.33975  0.33729  1.0000
  H   H2131     1.0  0.61482  0.24209  0.30100  1.0000
  H   H2132     1.0  0.56350  0.32468  0.37251  1.0000
  H   H2133     1.0  0.47220  0.35516  0.39627  1.0000
  H   H2134     1.0  0.41608  0.24768  0.32491  1.0000
  H   H2135     1.0  0.60165  0.31483  0.44651  1.0000
  H   H2136     1.0  0.39139  0.23477  0.33516  1.0000
  H   H2137     1.0  0.38833  0.34218  0.31474  1.0000
  H   H2138     1.0  0.38364  0.31821  0.30788  1.0000
  C   C1184     1.0  0.41660  0.39737  0.43097  1.0000
  C   C1185     1.0  0.37470  0.33285  0.31322  1.0000
  H   H2139     1.0  0.60873  0.15058  0.35116  1.0000
  C   C1186     1.0  0.35717  0.03191  0.41552  1.0000
  N   N66       1.0  0.49643  0.25553  0.36854  1.0000
  C   C1187     1.0  0.48183  0.25039  0.38210  1.0000
  C   C1188     1.0  0.48477  0.24932  0.35842  1.0000
  C   C1189     1.0  0.52004  0.23945  0.36874  1.0000
  C   C1190     1.0  0.50100  0.28068  0.36484  1.0000
  C   C1191     1.0  0.47971  0.30047  0.36753  1.0000
  C   C1192     1.0  0.49279  0.25347  0.39373  1.0000
  C   C1193     1.0  0.53734  0.23995  0.35536  1.0000
  C   C1194     1.0  0.45751  0.25731  0.35922  1.0000
  C   C1195     1.0  0.44361  0.23696  0.36474  1.0000
  C   C1196     1.0  0.48758  0.32455  0.36469  1.0000
  C   C1197     1.0  0.47432  0.25478  0.40628  1.0000
  C   C1198     1.0  0.56084  0.22373  0.35706  1.0000
  H   H2140     1.0  0.47840  0.23194  0.38412  1.0000
  H   H2141     1.0  0.46415  0.26137  0.38272  1.0000
  H   H2142     1.0  0.49304  0.25670  0.34827  1.0000
  H   H2143     1.0  0.48848  0.22984  0.35867  1.0000
  H   H2144     1.0  0.51723  0.22093  0.37237  1.0000
  H   H2145     1.0  0.52975  0.24352  0.37584  1.0000
  H   H2146     1.0  0.51500  0.28300  0.36995  1.0000
  H   H2147     1.0  0.50835  0.28473  0.35412  1.0000
  H   H2148     1.0  0.47066  0.29775  0.37796  1.0000
  H   H2149     1.0  0.46698  0.30162  0.36091  1.0000
  H   H2150     1.0  0.50683  0.23825  0.39598  1.0000
  H   H2151     1.0  0.50071  0.26967  0.39126  1.0000
  H   H2152     1.0  0.54128  0.25797  0.35125  1.0000
  H   H2153     1.0  0.52985  0.23381  0.34804  1.0000
  H   H2154     1.0  0.44978  0.27158  0.36493  1.0000
  H   H2155     1.0  0.45386  0.26448  0.34904  1.0000
  H   H2156     1.0  0.44612  0.22899  0.37501  1.0000
  H   H2157     1.0  0.42446  0.24357  0.36486  1.0000
  H   H2158     1.0  0.44921  0.22306  0.35849  1.0000
  H   H2159     1.0  0.47194  0.33834  0.36671  1.0000
  H   H2160     1.0  0.50026  0.32495  0.37113  1.0000
  H   H2161     1.0  0.49593  0.32886  0.35417  1.0000
  H   H2162     1.0  0.46521  0.23918  0.40879  1.0000
  H   H2163     1.0  0.48305  0.25505  0.41466  1.0000
  H   H2164     1.0  0.46103  0.27110  0.40496  1.0000
  H   H2165     1.0  0.55799  0.20525  0.36088  1.0000
  S   S266      1.0  0.64631  0.44494  0.36756  1.0000
  H   H2166     1.0  0.63104  0.21449  0.30820  1.0000
  H   H2167     1.0  0.32266  0.40307  0.31999  1.0000
  C   C1199     1.0  0.65011  0.20694  0.34818  1.0000
  C   C1200     1.0  0.32314  0.15088  0.32950  1.0000
  H   H2168     1.0  0.39160  0.47679  0.38062  1.0000
  C   C1201     1.0  0.32499  0.16369  0.26802  1.0000
  C   C1202     1.0  0.31991  0.13348  0.41380  1.0000
  C   C1203     1.0  0.32269  0.22032  0.35888  1.0000
  H   H2169     1.0  0.33681  0.27786  0.34446  1.0000
  H   H2170     1.0  0.64065  0.14356  0.43405  1.0000
  C   C1204     1.0  0.65113  0.34123  0.35740  1.0000
  C   C1205     1.0  0.32539  0.44585  0.42909  1.0000
  C   C1206     1.0  0.64390  0.34875  0.44726  1.0000
  C   C1207     1.0  0.32508  0.21525  0.30790  1.0000
  C   C1208     1.0  0.62703  0.12449  0.36531  1.0000
  S   S267      1.0  0.63888  0.22486  0.36026  1.0000
  H   H2171     1.0  0.32319  0.14683  0.23464  1.0000
  H   H2172     1.0  0.32099  0.14821  0.31996  1.0000
  H   H2173     1.0  0.33770  0.02761  0.45896  1.0000
  H   H2174     1.0  0.65035  0.39485  0.33492  1.0000
  H   H2175     1.0  0.34547  0.37148  0.36418  1.0000
  H   H2176     1.0  0.34153  0.21861  0.35398  1.0000
  C   C1209     1.0  0.34044  0.37850  0.35459  1.0000
  C   C1210     1.0  0.64069  0.24581  0.31237  1.0000
  C   C1211     1.0  0.33199  0.29453  0.34843  1.0000
  H   H2177     1.0  0.32950  0.06911  0.36684  1.0000
  H   H2178     1.0  0.33159  0.15910  0.36392  1.0000
  C   C1212     1.0  0.42540  0.46678  0.38766  1.0000
  H   H2179     1.0  0.41717  0.47317  0.36789  1.0000
  H   H2180     1.0  0.63458  0.07468  0.46194  1.0000
  H   H2181     1.0  0.34266  0.46030  0.38228  1.0000
  H   H2182     1.0  0.31999  0.01413  0.38050  1.0000
  H   H2183     1.0  0.32040  0.23034  0.36706  1.0000
  N   N67       1.0  0.36121  0.99058  0.49432  1.0000
  H   H2184     1.0  0.41343  0.19528  0.71227  1.0000
  C   C1213     1.0  0.38442  0.20794  0.70109  1.0000
  H   H2185     1.0  0.35929  0.02559  0.49837  1.0000
  H   H2186     1.0  0.60391  0.11436  0.71557  1.0000
  H   H2187     1.0  0.62564  0.11329  0.69212  1.0000
  H   H2188     1.0  0.38804  0.04078  0.50840  1.0000
  H   H2189     1.0  0.46855  0.40502  0.70819  1.0000
  H   H2190     1.0  0.62456  0.02354  0.49800  1.0000
  C   C1214     1.0  0.56382  0.15783  0.71035  1.0000
  C   C1215     1.0  0.40718  0.21085  0.70508  1.0000
  H   H2191     1.0  0.64936  0.99942  0.47436  1.0000
  H   H2192     1.0  0.36668  0.00230  0.47301  1.0000
  C   C1216     1.0  0.61649  0.03893  0.47794  1.0000
  H   H2193     1.0  0.61362  0.21856  0.70785  1.0000
  H   H2194     1.0  0.49941  0.43140  0.70007  1.0000
  H   H2195     1.0  0.42123  0.21263  0.69622  1.0000
  H   H2196     1.0  0.61417  0.09867  0.68201  1.0000
  C   C1217     1.0  0.58970  0.10634  0.69977  1.0000
  C   C1218     1.0  0.63664  0.00522  0.65934  1.0000
  H   H2197     1.0  0.32985  0.24340  0.66854  1.0000
  H   H2198     1.0  0.41464  0.37853  0.71451  1.0000
  C   C1219     1.0  0.34022  0.98621  0.50516  1.0000
  H   H2199     1.0  0.58113  0.15553  0.70366  1.0000
  H   H2200     1.0  0.35079  0.46478  0.72098  1.0000
  H   H2201     1.0  0.64648  0.12763  0.70498  1.0000
  N   N68       1.0  0.34161  0.19980  0.71101  1.0000
  C   C1220     1.0  0.33030  0.14784  0.69649  1.0000
  H   H2202     1.0  0.54540  0.11924  0.70756  1.0000
  C   C1221     1.0  0.35245  0.07066  0.71673  1.0000
  H   H2203     1.0  0.58221  0.12403  0.69491  1.0000
  H   H2204     1.0  0.62912  0.99430  0.66863  1.0000
  C   C1222     1.0  0.34640  0.17703  0.70569  1.0000
  H   H2205     1.0  0.61775  0.00282  0.48953  1.0000
  H   H2206     1.0  0.37466  0.00230  0.51758  1.0000
  C   C1223     1.0  0.55850  0.18332  0.71267  1.0000
  C   C1224     1.0  0.58770  0.02493  0.49838  1.0000
  C   C1225     1.0  0.65217  0.11727  0.71388  1.0000
  H   H2207     1.0  0.54974  0.15551  0.70537  1.0000
  C   C1226     1.0  0.37280  0.00988  0.49646  1.0000
  C   C1227     1.0  0.36456  0.20494  0.71327  1.0000
  H   H2208     1.0  0.64818  0.01592  0.66185  1.0000
  C   C1228     1.0  0.32949  0.22037  0.70218  1.0000
  C   C1229     1.0  0.35207  0.99870  0.48138  1.0000
  H   H2209     1.0  0.34433  0.98448  0.47914  1.0000
  C   C1230     1.0  0.43315  0.40373  0.71877  1.0000
  C   C1231     1.0  0.40040  0.02389  0.50771  1.0000
  C   C1232     1.0  0.65128  0.98959  0.64963  1.0000
  H   H2210     1.0  0.57909  0.09350  0.69856  1.0000
  C   C1233     1.0  0.45247  0.45053  0.70984  1.0000
  C   C1234     1.0  0.54569  0.11031  0.71792  1.0000
  H   H2211     1.0  0.35728  0.17874  0.69568  1.0000
  H   H2212     1.0  0.40428  0.22691  0.70959  1.0000
  H   H2213     1.0  0.62210  0.01737  0.65491  1.0000
  H   H2214     1.0  0.63512  0.06164  0.49220  1.0000
  H   H2215     1.0  0.45911  0.32076  0.71884  1.0000
  H   H2216     1.0  0.33112  0.00295  0.50857  1.0000
  H   H2217     1.0  0.53558  0.41961  0.71910  1.0000
  H   H2218     1.0  0.60947  0.05711  0.47996  1.0000
  C   C1235     1.0  0.61477  0.09975  0.69237  1.0000
  H   H2219     1.0  0.52874  0.44763  0.70849  1.0000
  C   C1236     1.0  0.64336  0.20563  0.71824  1.0000
  H   H2220     1.0  0.36155  0.22158  0.71728  1.0000
  C   C1237     1.0  0.32413  0.16700  0.70508  1.0000
  H   H2221     1.0  0.38874  0.19250  0.69601  1.0000
  C   C1238     1.0  0.61329  0.02133  0.49121  1.0000
  H   H2222     1.0  0.58242  0.04297  0.50081  1.0000
  H   H2223     1.0  0.40015  0.98773  0.50756  1.0000
  H   H2224     1.0  0.35463  0.21630  0.68341  1.0000
  C   C1239     1.0  0.43314  0.38144  0.71346  1.0000
  H   H2225     1.0  0.35731  0.16305  0.71188  1.0000
  H   H2226     1.0  0.57140  0.18667  0.71818  1.0000
  H   H2227     1.0  0.50216  0.12677  0.70906  1.0000
  N   N69       1.0  0.46107  0.43155  0.72072  1.0000
  H   H2228     1.0  0.34151  0.03700  0.48063  1.0000
  H   H2229     1.0  0.58589  0.01198  0.50774  1.0000
  H   H2230     1.0  0.33315  0.23724  0.70393  1.0000
  C   C1240     1.0  0.38691  0.00403  0.50800  1.0000
  H   H2231     1.0  0.62156  0.98648  0.64109  1.0000
  H   H2232     1.0  0.57559  0.02212  0.49220  1.0000
  H   H2233     1.0  0.37916  0.22417  0.69410  1.0000
  H   H2234     1.0  0.59533  0.08625  0.71851  1.0000
  H   H2235     1.0  0.44123  0.38321  0.70283  1.0000
  H   H2236     1.0  0.43288  0.45562  0.71216  1.0000
  H   H2237     1.0  0.45476  0.29090  0.71983  1.0000
  C   C1241     1.0  0.46351  0.47341  0.70649  1.0000
  H   H2238     1.0  0.44307  0.36587  0.71914  1.0000
  H   H2239     1.0  0.50694  0.40337  0.71033  1.0000
  H   H2240     1.0  0.63447  0.19489  0.70141  1.0000
  C   C1242     1.0  0.32991  0.07073  0.71395  1.0000
  S   S268      1.0  0.32621  0.04916  0.70517  1.0000
  H   H2241     1.0  0.54228  0.42170  0.70140  1.0000
  H   H2242     1.0  0.65182  0.07797  0.47822  1.0000
  H   H2243     1.0  0.45573  0.44369  0.70038  1.0000
  C   C1243     1.0  0.50498  0.42276  0.70964  1.0000
  H   H2244     1.0  0.42290  0.41879  0.71295  1.0000
  C   C1244     1.0  0.45872  0.40783  0.71815  1.0000
  C   C1245     1.0  0.48668  0.43069  0.72149  1.0000
  H   H2245     1.0  0.48211  0.46991  0.70140  1.0000
  H   H2246     1.0  0.32675  0.97987  0.50125  1.0000
  H   H2247     1.0  0.36704  0.05739  0.71361  1.0000
  H   H2248     1.0  0.62347  0.08238  0.69712  1.0000
  H   H2249     1.0  0.55946  0.19555  0.70305  1.0000
  C   C1246     1.0  0.52935  0.42831  0.70969  1.0000
  H   H2250     1.0  0.33673  0.15530  0.68605  1.0000
  C   C1247     1.0  0.32597  0.24415  0.67928  1.0000
  C   C1248     1.0  0.33338  0.02156  0.48054  1.0000
  C   C1249     1.0  0.62535  0.20164  0.71060  1.0000
  H   H2251     1.0  0.40994  0.01955  0.51624  1.0000
  C   C1250     1.0  0.58952  0.10529  0.71470  1.0000
  C   C1251     1.0  0.33544  0.22032  0.68705  1.0000
  H   H2252     1.0  0.34412  0.13352  0.70018  1.0000
  C   C1252     1.0  0.50129  0.11523  0.71891  1.0000
  H   H2253     1.0  0.32719  0.20683  0.68451  1.0000
  H   H2254     1.0  0.33458  0.25823  0.68093  1.0000
  H   H2255     1.0  0.54746  0.09116  0.71768  1.0000
  H   H2256     1.0  0.61423  0.18881  0.71673  1.0000
  H   H2257     1.0  0.41362  0.02610  0.49848  1.0000
  H   H2258     1.0  0.50276  0.09662  0.71774  1.0000
  H   H2259     1.0  0.54040  0.18714  0.71841  1.0000
  H   H2260     1.0  0.63797  0.99796  0.62084  1.0000
  H   H2261     1.0  0.37179  0.19083  0.72096  1.0000
  H   H2262     1.0  0.38475  0.01627  0.48726  1.0000
  H   H2263     1.0  0.64762  0.00099  0.59663  1.0000
  H   H2264     1.0  0.40911  0.98410  0.48189  1.0000
  C   C1253     1.0  0.65244  0.06132  0.48551  1.0000
  C   C1254     1.0  0.32134  0.21615  0.73252  1.0000
  H   H2265     1.0  0.33268  0.39777  0.74117  1.0000
  Fe  Fe137     1.0  0.39012  0.03422  0.84490  1.0000
  H   H2266     1.0  0.49946  0.29548  0.75088  1.0000
  S   S269      1.0  0.38798  0.07358  0.84097  1.0000
  H   H2267     1.0  0.46950  0.09603  0.77928  1.0000
  H   H2268     1.0  0.35132  0.01490  0.80643  1.0000
  S   S270      1.0  0.35910  0.01560  0.85320  1.0000
  S   S271      1.0  0.40979  0.01586  0.86130  1.0000
  Fe  Fe138     1.0  0.61378  0.02657  0.87950  1.0000
  S   S272      1.0  0.59409  0.99692  0.88018  1.0000
  H   H2269     1.0  0.61589  0.44933  0.78242  1.0000
  Fe  Fe139     1.0  0.61878  0.03908  0.84933  1.0000
  S   S273      1.0  0.60068  0.00998  0.84755  1.0000
  S   S274      1.0  0.63474  0.06297  0.83133  1.0000
  Fe  Fe140     1.0  0.57426  0.02095  0.86491  1.0000
  S   S275      1.0  0.53425  0.02917  0.86524  1.0000
  H   H2270     1.0  0.56479  0.11212  0.89032  1.0000
  S   S276      1.0  0.59137  0.05166  0.86578  1.0000
  H   H2271     1.0  0.42948  0.25509  0.76963  1.0000
  H   H2272     1.0  0.51808  0.13659  0.72706  1.0000
  H   H2273     1.0  0.42924  0.08810  0.86782  1.0000
  S   S277      1.0  0.63347  0.44123  0.84311  1.0000
  C   C1255     1.0  0.45630  0.02082  0.90499  1.0000
  C   C1256     1.0  0.39466  0.02287  0.79236  1.0000
  H   H2274     1.0  0.37847  0.03973  0.80890  1.0000
  C   C1257     1.0  0.61781  0.43933  0.83082  1.0000
  Fe  Fe141     1.0  0.59737  0.36238  0.77503  1.0000
  S   S278      1.0  0.60559  0.37916  0.75361  1.0000
  H   H2275     1.0  0.37400  0.17766  0.80218  1.0000
  S   S279      1.0  0.59545  0.43019  0.76399  1.0000
  H   H2276     1.0  0.58884  0.11856  0.74465  1.0000
  Fe  Fe142     1.0  0.57413  0.40675  0.75887  1.0000
  S   S280      1.0  0.54297  0.42272  0.74858  1.0000
  S   S281      1.0  0.56479  0.38892  0.77972  1.0000
  Fe  Fe143     1.0  0.60963  0.14962  0.75841  1.0000
  S   S282      1.0  0.61531  0.16905  0.77353  1.0000
  Fe  Fe144     1.0  0.55958  0.17684  0.75763  1.0000
  S   S283      1.0  0.56118  0.19805  0.77279  1.0000
  C   C1258     1.0  0.48563  0.99127  0.85052  1.0000
  Fe  Fe145     1.0  0.59763  0.20185  0.76165  1.0000
  S   S284      1.0  0.61228  0.23619  0.75411  1.0000
  Fe  Fe146     1.0  0.57856  0.16360  0.78337  1.0000
  S   S285      1.0  0.56718  0.15043  0.80509  1.0000
  H   H2277     1.0  0.32944  0.07068  0.84121  1.0000
  S   S286      1.0  0.57383  0.14210  0.76910  1.0000
  Fe  Fe147     1.0  0.37011  0.13692  0.74438  1.0000
  S   S287      1.0  0.35369  0.16655  0.75565  1.0000
  H   H2278     1.0  0.58758  0.15041  0.85027  1.0000
  Fe  Fe148     1.0  0.41735  0.13400  0.75336  1.0000
  S   S288      1.0  0.40386  0.16266  0.76547  1.0000
  S   S289      1.0  0.45519  0.11625  0.75383  1.0000
  Fe  Fe149     1.0  0.37189  0.14482  0.77198  1.0000
  S   S290      1.0  0.35003  0.14211  0.79237  1.0000
  Fe  Fe150     1.0  0.38695  0.18189  0.74813  1.0000
  S   S291      1.0  0.38831  0.22046  0.73900  1.0000
  S   S292      1.0  0.38655  0.11438  0.76137  1.0000
  S   S293      1.0  0.40239  0.15408  0.73538  1.0000
  Fe  Fe151     1.0  0.38951  0.33988  0.76580  1.0000
  S   S294      1.0  0.40690  0.35735  0.74606  1.0000
  S   S295      1.0  0.38087  0.30249  0.77189  1.0000
  Fe  Fe152     1.0  0.39458  0.37948  0.77985  1.0000
  S   S296      1.0  0.41275  0.39937  0.76127  1.0000
  S   S297      1.0  0.38864  0.38827  0.80049  1.0000
  Fe  Fe153     1.0  0.38505  0.39139  0.75151  1.0000
  H   H2279     1.0  0.39238  0.26949  0.73088  1.0000
  Fe  Fe154     1.0  0.43285  0.36429  0.75723  1.0000
  S   S298      1.0  0.47183  0.35422  0.74987  1.0000
  S   S299      1.0  0.36537  0.37347  0.77056  1.0000
  S   S300      1.0  0.41703  0.34486  0.77655  1.0000
  H   H2280     1.0  0.62805  0.13911  0.72678  1.0000
  C   C1259     1.0  0.38651  0.24302  0.74827  1.0000
  C   C1260     1.0  0.38915  0.26595  0.74157  1.0000
  C   C1261     1.0  0.38741  0.28442  0.74860  1.0000
  C   C1262     1.0  0.38310  0.28009  0.76243  1.0000
  C   C1263     1.0  0.38050  0.25715  0.76911  1.0000
  C   C1264     1.0  0.38228  0.23870  0.76209  1.0000
  C   C1265     1.0  0.45155  0.30570  0.72539  1.0000
  H   H2281     1.0  0.38929  0.30200  0.74333  1.0000
  H   H2282     1.0  0.37700  0.25364  0.77980  1.0000
  H   H2283     1.0  0.38005  0.22120  0.76738  1.0000
  H   H2284     1.0  0.42701  0.26508  0.79135  1.0000
  C   C1266     1.0  0.59239  0.43525  0.81160  1.0000
  C   C1267     1.0  0.51252  0.14315  0.75612  1.0000
  C   C1268     1.0  0.49641  0.12773  0.75730  1.0000
  C   C1269     1.0  0.47494  0.13585  0.75260  1.0000
  C   C1270     1.0  0.46975  0.15938  0.74662  1.0000
  H   H2285     1.0  0.41551  0.46125  0.88338  1.0000
  H   H2286     1.0  0.52897  0.13682  0.75980  1.0000
  H   H2287     1.0  0.50065  0.10946  0.76181  1.0000
  C   C1271     1.0  0.35038  0.03257  0.80003  1.0000
  Fe  Fe155     1.0  0.62180  0.98823  0.86281  1.0000
  H   H2288     1.0  0.53416  0.46815  0.78485  1.0000
  C   C1272     1.0  0.60521  0.26096  0.76230  1.0000
  C   C1273     1.0  0.61260  0.28230  0.75565  1.0000
  C   C1274     1.0  0.60824  0.30208  0.76197  1.0000
  C   C1275     1.0  0.32819  0.41482  0.73518  1.0000
  H   H2289     1.0  0.61421  0.31831  0.75677  1.0000
  C   C1276     1.0  0.52351  0.40291  0.74990  1.0000
  C   C1277     1.0  0.53124  0.38242  0.74440  1.0000
  C   C1278     1.0  0.51516  0.36768  0.74444  1.0000
  C   C1279     1.0  0.49141  0.37300  0.75025  1.0000
  C   C1280     1.0  0.48376  0.39320  0.75604  1.0000
  C   C1281     1.0  0.49971  0.40836  0.75566  1.0000
  H   H2290     1.0  0.49167  0.44802  0.80255  1.0000
  C   C1282     1.0  0.56581  0.10110  0.73695  1.0000
  H   H2291     1.0  0.46552  0.39726  0.76068  1.0000
  H   H2292     1.0  0.49364  0.42437  0.75976  1.0000
  H   H2293     1.0  0.42243  0.46901  0.91030  1.0000
  C   C1283     1.0  0.40754  0.45245  0.79772  1.0000
  C   C1284     1.0  0.40333  0.43189  0.79434  1.0000
  C   C1285     1.0  0.39347  0.41484  0.80413  1.0000
  C   C1286     1.0  0.38757  0.41873  0.81727  1.0000
  C   C1287     1.0  0.39154  0.43941  0.82063  1.0000
  H   H2294     1.0  0.51065  0.46788  0.84337  1.0000
  H   H2295     1.0  0.40783  0.42917  0.78419  1.0000
  H   H2296     1.0  0.37983  0.40567  0.82489  1.0000
  H   H2297     1.0  0.38688  0.44220  0.83077  1.0000
  N   N70       1.0  0.46149  0.26905  0.76013  1.0000
  C   C1288     1.0  0.60119  0.45824  0.82623  1.0000
  C   C1289     1.0  0.58846  0.45617  0.81671  1.0000
  H   H2298     1.0  0.43404  0.29571  0.76787  1.0000
  H   H2299     1.0  0.33154  0.00106  0.74743  1.0000
  H   H2300     1.0  0.62520  0.08569  0.78652  1.0000
  H   H2301     1.0  0.32807  0.00141  0.72465  1.0000
  H   H2302     1.0  0.43906  0.27619  0.80281  1.0000
  H   H2303     1.0  0.32923  0.02725  0.95793  1.0000
  C   C1290     1.0  0.33172  0.99093  0.91145  1.0000
  H   H2304     1.0  0.43452  0.47182  0.75745  1.0000
  C   C1291     1.0  0.59314  0.25967  0.77533  1.0000
  C   C1292     1.0  0.45944  0.08847  0.83376  1.0000
  H   H2305     1.0  0.43212  0.06490  0.79326  1.0000
  C   C1293     1.0  0.61559  0.08705  0.82417  1.0000
  C   C1294     1.0  0.59166  0.09179  0.82968  1.0000
  C   C1295     1.0  0.57692  0.11136  0.82380  1.0000
  C   C1296     1.0  0.58588  0.12585  0.81220  1.0000
  C   C1297     1.0  0.60979  0.12096  0.80666  1.0000
  C   C1298     1.0  0.62466  0.10186  0.81277  1.0000
  H   H2306     1.0  0.58448  0.08043  0.83846  1.0000
  H   H2307     1.0  0.55845  0.11509  0.82814  1.0000
  H   H2308     1.0  0.61690  0.13219  0.79783  1.0000
  S   S301      1.0  0.36702  0.98445  0.89039  1.0000
  C   C1299     1.0  0.37607  0.09031  0.82727  1.0000
  C   C1300     1.0  0.35882  0.11004  0.82918  1.0000
  C   C1301     1.0  0.35050  0.12523  0.81838  1.0000
  C   C1302     1.0  0.35997  0.12135  0.80552  1.0000
  C   C1303     1.0  0.37723  0.10156  0.80350  1.0000
  C   C1304     1.0  0.38511  0.08583  0.81442  1.0000
  H   H2309     1.0  0.35201  0.11373  0.83906  1.0000
  H   H2310     1.0  0.37496  0.99640  0.96209  1.0000
  H   H2311     1.0  0.39489  0.00469  0.79810  1.0000
  H   H2312     1.0  0.39883  0.07084  0.81293  1.0000
  S   S302      1.0  0.35090  0.97922  0.83027  1.0000
  H   H2313     1.0  0.34635  0.05930  0.81926  1.0000
  H   H2314     1.0  0.33085  0.99373  0.77132  1.0000
  C   C1305     1.0  0.51712  0.01452  0.85839  1.0000
  C   C1306     1.0  0.49539  0.02679  0.85506  1.0000
  C   C1307     1.0  0.47965  0.01527  0.85125  1.0000
  H   H2315     1.0  0.49053  0.04530  0.85567  1.0000
  H   H2316     1.0  0.46285  0.02492  0.84891  1.0000
  N   N71       1.0  0.62638  0.11515  0.86071  1.0000
  H   H2317     1.0  0.45333  0.16575  0.74287  1.0000
  C   C1308     1.0  0.39338  0.17764  0.79969  1.0000
  H   H2318     1.0  0.46840  0.03181  0.87821  1.0000
  H   H2319     1.0  0.32436  0.41985  0.76346  1.0000
  H   H2320     1.0  0.50977  0.03092  0.91096  1.0000
  H   H2321     1.0  0.51170  0.47276  0.86813  1.0000
  C   C1309     1.0  0.53546  0.43738  0.83792  1.0000
  H   H2322     1.0  0.39248  0.02304  0.78208  1.0000
  C   C1310     1.0  0.64194  0.12399  0.72620  1.0000
  C   C1311     1.0  0.33775  0.10524  0.72727  1.0000
  H   H2323     1.0  0.60425  0.09314  0.73768  1.0000
  C   C1312     1.0  0.32308  0.04470  0.93879  1.0000
  H   H2324     1.0  0.54996  0.14628  0.73106  1.0000
  C   C1313     1.0  0.33831  0.45259  0.72381  1.0000
  H   H2325     1.0  0.61087  0.16381  0.85308  1.0000
  N   N72       1.0  0.49491  0.35509  0.79715  1.0000
  C   C1314     1.0  0.51392  0.35642  0.80457  1.0000
  C   C1315     1.0  0.48713  0.37938  0.78976  1.0000
  C   C1316     1.0  0.47465  0.34602  0.80694  1.0000
  C   C1317     1.0  0.50390  0.33862  0.78726  1.0000
  C   C1318     1.0  0.52733  0.34278  0.77776  1.0000
  C   C1319     1.0  0.52652  0.33249  0.81132  1.0000
  C   C1320     1.0  0.45211  0.34635  0.80127  1.0000
  C   C1321     1.0  0.47457  0.39827  0.79838  1.0000
  C   C1322     1.0  0.46707  0.42180  0.78972  1.0000
  C   C1323     1.0  0.53541  0.32416  0.76885  1.0000
  C   C1324     1.0  0.54701  0.33605  0.81724  1.0000
  C   C1325     1.0  0.43286  0.33678  0.81205  1.0000
  H   H2326     1.0  0.50648  0.36699  0.81256  1.0000
  H   H2327     1.0  0.52759  0.36612  0.79798  1.0000
  H   H2328     1.0  0.50260  0.38644  0.78325  1.0000
  H   H2329     1.0  0.47518  0.37857  0.78296  1.0000
  H   H2330     1.0  0.46944  0.35595  0.81532  1.0000
  H   H2331     1.0  0.48028  0.32744  0.81154  1.0000
  H   H2332     1.0  0.50616  0.31992  0.79235  1.0000
  H   H2333     1.0  0.49062  0.34001  0.78080  1.0000
  H   H2334     1.0  0.54187  0.34191  0.78318  1.0000
  H   H2335     1.0  0.52505  0.36032  0.77139  1.0000
  H   H2336     1.0  0.51400  0.32392  0.81944  1.0000
  H   H2337     1.0  0.53400  0.32016  0.80427  1.0000
  H   H2338     1.0  0.45610  0.33522  0.79351  1.0000
  H   H2339     1.0  0.44455  0.36446  0.79692  1.0000
  H   H2340     1.0  0.45838  0.39306  0.80496  1.0000
  H   H2341     1.0  0.48654  0.40133  0.80455  1.0000
  H   H2342     1.0  0.36858  0.03796  0.91663  1.0000
  H   H2343     1.0  0.45779  0.43493  0.79607  1.0000
  H   H2344     1.0  0.53970  0.30641  0.77483  1.0000
  H   H2345     1.0  0.52149  0.32401  0.76314  1.0000
  H   H2346     1.0  0.55162  0.32817  0.76179  1.0000
  H   H2347     1.0  0.54061  0.34779  0.82472  1.0000
  H   H2348     1.0  0.55566  0.31877  0.82210  1.0000
  H   H2349     1.0  0.56048  0.34384  0.80935  1.0000
  H   H2350     1.0  0.42733  0.34810  0.81977  1.0000
  H   H2351     1.0  0.41710  0.33689  0.80768  1.0000
  H   H2352     1.0  0.43914  0.31840  0.81663  1.0000
  Fe  Fe156     1.0  0.38037  0.99481  0.86840  1.0000
  H   H2353     1.0  0.44072  0.08920  0.83880  1.0000
  C   C1326     1.0  0.45356  0.27687  0.74687  1.0000
  H   H2354     1.0  0.51071  0.45925  0.77933  1.0000
  S   S303      1.0  0.52753  0.18628  0.74760  1.0000
  H   H2355     1.0  0.49245  0.24605  0.76668  1.0000
  C   C1327     1.0  0.52352  0.99071  0.85721  1.0000
  H   H2356     1.0  0.33320  0.17957  0.73064  1.0000
  H   H2357     1.0  0.37339  0.03232  0.90001  1.0000
  H   H2358     1.0  0.45668  0.05855  0.78029  1.0000
  H   H2359     1.0  0.49417  0.25252  0.74940  1.0000
  H   H2360     1.0  0.59265  0.10383  0.86308  1.0000
  Fe  Fe157     1.0  0.58847  0.41014  0.78461  1.0000
  S   S304      1.0  0.57494  0.43299  0.80030  1.0000
  C   C1328     1.0  0.43493  0.27987  0.79265  1.0000
  C   C1329     1.0  0.58908  0.27935  0.78172  1.0000
  C   C1330     1.0  0.48554  0.14525  0.79940  1.0000
  H   H2361     1.0  0.58508  0.06689  0.75673  1.0000
  H   H2362     1.0  0.55002  0.10852  0.74364  1.0000
  H   H2363     1.0  0.32746  0.44037  0.77326  1.0000
  C   C1331     1.0  0.45688  0.08986  0.78814  1.0000
  H   H2364     1.0  0.60016  0.05328  0.95772  1.0000
  C   C1332     1.0  0.50741  0.16662  0.74996  1.0000
  C   C1333     1.0  0.52046  0.46194  0.83407  1.0000
  C   C1334     1.0  0.43385  0.45563  0.75375  1.0000
  C   C1335     1.0  0.36054  0.98562  0.96485  1.0000
  S   S305      1.0  0.40775  0.00941  0.83090  1.0000
  H   H2365     1.0  0.54096  0.28259  0.75404  1.0000
  H   H2366     1.0  0.43783  0.06248  0.85999  1.0000
  H   H2367     1.0  0.39745  0.18679  0.78933  1.0000
  C   C1336     1.0  0.57595  0.09474  0.88927  1.0000
  H   H2368     1.0  0.45481  0.41981  0.78340  1.0000
  H   H2369     1.0  0.65065  0.45721  0.76617  1.0000
  C   C1337     1.0  0.48792  0.26061  0.75848  1.0000
  S   S306      1.0  0.59506  0.18265  0.74564  1.0000
  H   H2370     1.0  0.44969  0.98561  0.87402  1.0000
  H   H2371     1.0  0.54020  0.98100  0.85972  1.0000
  H   H2372     1.0  0.37610  0.00799  0.91361  1.0000
  Fe  Fe158     1.0  0.62628  0.40135  0.76077  1.0000
  C   C1338     1.0  0.34053  0.99973  0.89826  1.0000
  S   S307      1.0  0.34171  0.12837  0.73482  1.0000
  H   H2373     1.0  0.60278  0.15676  0.82613  1.0000
  H   H2374     1.0  0.44704  0.03852  0.90685  1.0000
  C   C1339     1.0  0.42103  0.01031  0.89939  1.0000
  H   H2375     1.0  0.58091  0.14311  0.72694  1.0000
  H   H2376     1.0  0.34156  0.08274  0.79895  1.0000
  H   H2377     1.0  0.48377  0.12046  0.72493  1.0000
  H   H2378     1.0  0.36366  0.01421  0.94169  1.0000
  H   H2379     1.0  0.53351  0.26461  0.74406  1.0000
  H   H2380     1.0  0.63367  0.45034  0.73995  1.0000
  H   H2381     1.0  0.43079  0.43378  0.83208  1.0000
  H   H2382     1.0  0.49400  0.00448  0.90110  1.0000
  C   C1340     1.0  0.44083  0.07063  0.86802  1.0000
  H   H2383     1.0  0.46444  0.29787  0.78462  1.0000
  H   H2384     1.0  0.59513  0.18380  0.83265  1.0000
  H   H2385     1.0  0.41540  0.46544  0.79011  1.0000
  H   H2386     1.0  0.46750  0.07974  0.79562  1.0000
  H   H2387     1.0  0.62385  0.04599  0.94511  1.0000
  H   H2388     1.0  0.56245  0.42104  0.84992  1.0000
  S   S308      1.0  0.62069  0.03359  0.89898  1.0000
  H   H2389     1.0  0.52179  0.12918  0.79239  1.0000
  C   C1341     1.0  0.46316  0.29834  0.73772  1.0000
  H   H2390     1.0  0.38462  0.09855  0.79355  1.0000
  H   H2391     1.0  0.43218  0.31134  0.72818  1.0000
  H   H2392     1.0  0.45882  0.26244  0.74096  1.0000
  C   C1342     1.0  0.61630  0.04008  0.95562  1.0000
  H   H2393     1.0  0.33814  0.05435  0.93729  1.0000
  H   H2394     1.0  0.45945  0.31388  0.74265  1.0000
  C   C1343     1.0  0.64956  0.03864  0.91553  1.0000
  C   C1344     1.0  0.46071  0.09362  0.81879  1.0000
  C   C1345     1.0  0.45320  0.28886  0.76799  1.0000
  C   C1346     1.0  0.37930  0.02634  0.90974  1.0000
  C   C1347     1.0  0.44944  0.42906  0.83355  1.0000
  C   C1348     1.0  0.47372  0.12954  0.79342  1.0000
  C   C1349     1.0  0.60866  0.01627  0.95595  1.0000
  C   C1350     1.0  0.60908  0.41635  0.81609  1.0000
  H   H2395     1.0  0.34892  0.06728  0.77787  1.0000
  H   H2396     1.0  0.32096  0.45990  0.75059  1.0000
  C   C1351     1.0  0.48608  0.17462  0.74515  1.0000
  C   C1352     1.0  0.52995  0.26923  0.75410  1.0000
  H   H2397     1.0  0.46131  0.45529  0.81738  1.0000
  C   C1353     1.0  0.50396  0.46087  0.80031  1.0000
  H   H2398     1.0  0.63908  0.11211  0.95051  1.0000
  Fe  Fe159     1.0  0.42601  0.98974  0.84795  1.0000
  N   N73       1.0  0.44855  0.12696  0.79969  1.0000
  H   H2399     1.0  0.41193  0.02821  0.79204  1.0000
  C   C1354     1.0  0.43942  0.11134  0.79280  1.0000
  C   C1355     1.0  0.43364  0.15121  0.79770  1.0000
  H   H2400     1.0  0.42157  0.29617  0.79170  1.0000
  C   C1356     1.0  0.45751  0.28299  0.78255  1.0000
  H   H2401     1.0  0.41573  0.05400  0.88273  1.0000
  C   C1357     1.0  0.40641  0.15222  0.80130  1.0000
  H   H2402     1.0  0.61587  0.11817  0.84172  1.0000
  C   C1358     1.0  0.44374  0.07289  0.78441  1.0000
  H   H2403     1.0  0.46919  0.07053  0.83675  1.0000
  H   H2404     1.0  0.59654  0.06597  0.80412  1.0000
  N   N74       1.0  0.63372  0.03995  0.96441  1.0000
  C   C1359     1.0  0.40549  0.02766  0.90831  1.0000
  H   H2405     1.0  0.42373  0.10476  0.79922  1.0000
  H   H2406     1.0  0.43317  0.12171  0.78362  1.0000
  H   H2407     1.0  0.43749  0.15994  0.78717  1.0000
  H   H2408     1.0  0.43805  0.16272  0.80370  1.0000
  H   H2409     1.0  0.47570  0.16351  0.79873  1.0000
  H   H2410     1.0  0.42735  0.11580  0.81863  1.0000
  H   H2411     1.0  0.59577  0.02703  0.93713  1.0000
  H   H2412     1.0  0.48275  0.42855  0.78335  1.0000
  H   H2413     1.0  0.41034  0.02304  0.91831  1.0000
  H   H2414     1.0  0.40086  0.14385  0.81166  1.0000
  H   H2415     1.0  0.40022  0.14318  0.79472  1.0000
  H   H2416     1.0  0.58457  0.00204  0.94775  1.0000
  H   H2417     1.0  0.45321  0.07950  0.81633  1.0000
  C   C1360     1.0  0.60219  0.11211  0.86860  1.0000
  H   H2418     1.0  0.43283  0.08224  0.77681  1.0000
  H   H2419     1.0  0.48246  0.29378  0.73434  1.0000
  H   H2420     1.0  0.58018  0.27802  0.79189  1.0000
  H   H2421     1.0  0.62389  0.00399  0.95166  1.0000
  H   H2422     1.0  0.37384  0.08754  0.72529  1.0000
  S   S309      1.0  0.41088  0.47325  0.85405  1.0000
  H   H2423     1.0  0.57533  0.47076  0.81339  1.0000
  H   H2424     1.0  0.39246  0.46614  0.89740  1.0000
  C   C1361     1.0  0.48737  0.44517  0.83116  1.0000
  H   H2425     1.0  0.62795  0.06307  0.77687  1.0000
  H   H2426     1.0  0.64322  0.09853  0.80861  1.0000
  H   H2427     1.0  0.32142  0.04084  0.92915  1.0000
  C   C1362     1.0  0.34444  0.43046  0.73160  1.0000
  H   H2428     1.0  0.51890  0.15779  0.79669  1.0000
  H   H2429     1.0  0.33501  0.03279  0.82530  1.0000
  H   H2430     1.0  0.46575  0.45822  0.73984  1.0000
  C   C1363     1.0  0.44598  0.11785  0.81437  1.0000
  H   H2431     1.0  0.42385  0.40134  0.72917  1.0000
  Fe  Fe160     1.0  0.37801  0.98871  0.84037  1.0000
  H   H2432     1.0  0.49581  0.42752  0.82872  1.0000
  H   H2433     1.0  0.48475  0.44297  0.84217  1.0000
  H   H2434     1.0  0.39826  0.18746  0.80640  1.0000
  H   H2435     1.0  0.48688  0.01793  0.92274  1.0000
  H   H2436     1.0  0.39582  0.99235  0.93456  1.0000
  H   H2437     1.0  0.52654  0.43890  0.81314  1.0000
  N   N75       1.0  0.56648  0.11465  0.72300  1.0000
  C   C1364     1.0  0.33105  0.05070  0.81936  1.0000
  S   S310      1.0  0.63874  0.11933  0.75337  1.0000
  C   C1365     1.0  0.58742  0.10061  0.74352  1.0000
  H   H2438     1.0  0.44952  0.42352  0.84433  1.0000
  H   H2439     1.0  0.47120  0.26721  0.78432  1.0000
  N   N76       1.0  0.32916  0.04915  0.80545  1.0000
  C   C1366     1.0  0.46084  0.98936  0.89224  1.0000
  C   C1367     1.0  0.62293  0.12885  0.84717  1.0000
  C   C1368     1.0  0.65193  0.07510  0.94904  1.0000
  C   C1369     1.0  0.40185  0.45624  0.81088  1.0000
  C   C1370     1.0  0.49050  0.03030  0.91329  1.0000
  N   N77       1.0  0.44667  0.01310  0.89459  1.0000
  S   S311      1.0  0.62047  0.38231  0.78191  1.0000
  H   H2440     1.0  0.45053  0.41888  0.74145  1.0000
  H   H2441     1.0  0.58739  0.24338  0.78059  1.0000
  H   H2442     1.0  0.62577  0.17091  0.82872  1.0000
  H   H2443     1.0  0.37554  0.05786  0.79304  1.0000
  H   H2444     1.0  0.41501  0.45445  0.75419  1.0000
  H   H2445     1.0  0.52119  0.35206  0.73995  1.0000
  H   H2446     1.0  0.61808  0.47148  0.79147  1.0000
  H   H2447     1.0  0.43392  0.28095  0.74836  1.0000
  H   H2448     1.0  0.44989  0.13094  0.81956  1.0000
  H   H2449     1.0  0.45459  0.24182  0.77715  1.0000
  H   H2450     1.0  0.48666  0.13781  0.80992  1.0000
  H   H2451     1.0  0.41975  0.99253  0.90547  1.0000
  H   H2452     1.0  0.46179  0.30438  0.76323  1.0000
  C   C1371     1.0  0.32862  0.02071  0.89192  1.0000
  C   C1372     1.0  0.45250  0.22743  0.76029  1.0000
  C   C1373     1.0  0.44342  0.20635  0.76969  1.0000
  H   H2453     1.0  0.47145  0.22191  0.75634  1.0000
  H   H2454     1.0  0.44235  0.23188  0.75200  1.0000
  H   H2455     1.0  0.45414  0.19984  0.77769  1.0000
  H   H2456     1.0  0.42458  0.21133  0.77408  1.0000
  H   H2457     1.0  0.44472  0.19186  0.76417  1.0000
  H   H2458     1.0  0.47960  0.09260  0.81419  1.0000
  H   H2459     1.0  0.60037  0.08617  0.76190  1.0000
  H   H2460     1.0  0.34560  0.99653  0.97038  1.0000
  H   H2461     1.0  0.62191  0.28351  0.74556  1.0000
  H   H2462     1.0  0.59124  0.12950  0.86988  1.0000
  H   H2463     1.0  0.56805  0.08572  0.88338  1.0000
  C   C1374     1.0  0.51069  0.14692  0.79202  1.0000
  C   C1375     1.0  0.54988  0.43784  0.84843  1.0000
  C   C1376     1.0  0.62183  0.41842  0.82566  1.0000
  H   H2464     1.0  0.62132  0.07734  0.96432  1.0000
  H   H2465     1.0  0.61192  0.07994  0.88282  1.0000
  H   H2466     1.0  0.59868  0.04341  0.79431  1.0000
  H   H2467     1.0  0.52433  0.42351  0.84198  1.0000
  H   H2468     1.0  0.33802  0.11096  0.77714  1.0000
  C   C1377     1.0  0.43481  0.05500  0.88139  1.0000
  H   H2469     1.0  0.53535  0.25326  0.76129  1.0000
  H   H2470     1.0  0.41221  0.01108  0.89081  1.0000
  H   H2471     1.0  0.64408  0.08033  0.86828  1.0000
  C   C1378     1.0  0.60626  0.15299  0.84680  1.0000
  H   H2472     1.0  0.53803  0.43996  0.85797  1.0000
  H   H2473     1.0  0.57604  0.08376  0.89925  1.0000
  H   H2474     1.0  0.54803  0.43210  0.82919  1.0000
  H   H2475     1.0  0.53008  0.43764  0.78873  1.0000
  H   H2476     1.0  0.40766  0.04621  0.90452  1.0000
  H   H2477     1.0  0.57331  0.03115  0.95155  1.0000
  H   H2478     1.0  0.64588  0.10041  0.88445  1.0000
  H   H2479     1.0  0.46754  0.10139  0.83697  1.0000
  H   H2480     1.0  0.48795  0.03461  0.89290  1.0000
  C   C1379     1.0  0.58512  0.08552  0.75731  1.0000
  H   H2481     1.0  0.48214  0.19268  0.74025  1.0000
  H   H2482     1.0  0.61169  0.39997  0.81244  1.0000
  H   H2483     1.0  0.51049  0.15546  0.78155  1.0000
  H   H2484     1.0  0.48552  0.11223  0.79384  1.0000
  H   H2485     1.0  0.50152  0.28416  0.76783  1.0000
  H   H2486     1.0  0.63338  0.21402  0.72672  1.0000
  C   C1380     1.0  0.60033  0.06204  0.79390  1.0000
  H   H2487     1.0  0.34866  0.02957  0.79018  1.0000
  H   H2488     1.0  0.56404  0.08245  0.73725  1.0000
  H   H2489     1.0  0.46395  0.47301  0.91034  1.0000
  H   H2490     1.0  0.45810  0.41415  0.82834  1.0000
  H   H2491     1.0  0.43806  0.06373  0.88909  1.0000
  S   S312      1.0  0.59216  0.32445  0.78386  1.0000
  C   C1381     1.0  0.32666  0.02202  0.94887  1.0000
  C   C1382     1.0  0.60767  0.16690  0.83270  1.0000
  C   C1383     1.0  0.44891  0.24883  0.76742  1.0000
  H   H2492     1.0  0.41460  0.44002  0.89848  1.0000
  H   H2493     1.0  0.56863  0.09231  0.76371  1.0000
  H   H2494     1.0  0.54955  0.37823  0.73986  1.0000
  H   H2495     1.0  0.64132  0.42709  0.79418  1.0000
  H   H2496     1.0  0.47903  0.99134  0.88684  1.0000
  H   H2497     1.0  0.53228  0.46807  0.80850  1.0000
  H   H2498     1.0  0.50096  0.47183  0.89374  1.0000
  H   H2499     1.0  0.32892  0.10109  0.76414  1.0000
  H   H2500     1.0  0.47450  0.13684  0.78268  1.0000
  H   H2501     1.0  0.63452  0.40364  0.82926  1.0000
  C   C1384     1.0  0.65148  0.45410  0.73831  1.0000
  C   C1385     1.0  0.51762  0.45759  0.81186  1.0000
  C   C1386     1.0  0.50378  0.27915  0.75797  1.0000
  C   C1387     1.0  0.62506  0.06663  0.78707  1.0000
  H   H2502     1.0  0.45952  0.07333  0.86622  1.0000
  C   C1388     1.0  0.59672  0.30061  0.77512  1.0000
  H   H2503     1.0  0.51846  0.10657  0.73573  1.0000
  S   S313      1.0  0.37249  0.42330  0.73660  1.0000
  C   C1389     1.0  0.46188  0.45041  0.82806  1.0000
  H   H2504     1.0  0.48090  0.04826  0.91445  1.0000
  H   H2505     1.0  0.53345  0.47406  0.82970  1.0000
  H   H2506     1.0  0.62548  0.14178  0.87236  1.0000
  C   C1390     1.0  0.41144  0.45913  0.89433  1.0000
  H   H2507     1.0  0.34603  0.00173  0.93394  1.0000
  C   C1391     1.0  0.34851  0.00454  0.94370  1.0000
  C   C1392     1.0  0.60129  0.09776  0.88278  1.0000
  C   C1393     1.0  0.58940  0.01943  0.94758  1.0000
  C   C1394     1.0  0.44959  0.03004  0.88168  1.0000
  H   H2508     1.0  0.33539  0.02780  0.88179  1.0000
  C   C1395     1.0  0.37475  0.03998  0.79893  1.0000
  H   H2509     1.0  0.33720  0.14053  0.81998  1.0000
  C   C1396     1.0  0.32579  0.19601  0.72436  1.0000
  H   H2510     1.0  0.44483  0.02293  0.87382  1.0000
  H   H2511     1.0  0.58694  0.07369  0.78834  1.0000
  H   H2512     1.0  0.65081  0.02966  0.77198  1.0000
  S   S314      1.0  0.64248  0.01629  0.86300  1.0000
  C   C1397     1.0  0.63825  0.06492  0.96269  1.0000
  H   H2513     1.0  0.65131  0.38336  0.80392  1.0000
  C   C1398     1.0  0.44735  0.45667  0.73958  1.0000
  H   H2514     1.0  0.59754  0.47422  0.83033  1.0000
  H   H2515     1.0  0.60767  0.10720  0.88910  1.0000
  N   N78       1.0  0.35362  0.98106  0.95265  1.0000
  C   C1399     1.0  0.62159  0.46653  0.78153  1.0000
  C   C1400     1.0  0.32468  0.98603  0.74549  1.0000
  H   H2516     1.0  0.64018  0.13242  0.84108  1.0000
  H   H2517     1.0  0.64729  0.16952  0.72844  1.0000
  H   H2518     1.0  0.62979  0.08116  0.85510  1.0000
  H   H2519     1.0  0.64856  0.45727  0.80379  1.0000
  C   C1401     1.0  0.32798  0.07355  0.79721  1.0000
  H   H2520     1.0  0.45281  0.00860  0.91457  1.0000
  H   H2521     1.0  0.42695  0.43579  0.73364  1.0000
  C   C1402     1.0  0.48319  0.02203  0.90208  1.0000
  C   C1403     1.0  0.52084  0.11790  0.72586  1.0000
  N   N79       1.0  0.50337  0.46321  0.82485  1.0000
  C   C1404     1.0  0.64044  0.09129  0.85878  1.0000
  C   C1405     1.0  0.56512  0.14037  0.72351  1.0000
  H   H2522     1.0  0.33737  0.21617  0.73661  1.0000
  C   C1406     1.0  0.52080  0.45620  0.78756  1.0000
  H   H2523     1.0  0.49132  0.41819  0.73042  1.0000
  H   H2524     1.0  0.56020  0.45255  0.84537  1.0000
  H   H2525     1.0  0.43889  0.47279  0.73361  1.0000
  H   H2526     1.0  0.63639  0.03168  0.92339  1.0000
  H   H2527     1.0  0.36506  0.99182  0.78306  1.0000
  H   H2528     1.0  0.45143  0.46531  0.83281  1.0000
  H   H2529     1.0  0.44194  0.44020  0.76039  1.0000
  C   C1407     1.0  0.63871  0.12870  0.86725  1.0000
  H   H2530     1.0  0.64190  0.07622  0.94100  1.0000
  C   C1408     1.0  0.64686  0.04058  0.90232  1.0000
  C   C1409     1.0  0.64426  0.05142  0.79491  1.0000
  H   H2531     1.0  0.65082  0.98250  0.83793  1.0000
  H   H2532     1.0  0.64101  0.03285  0.79717  1.0000
  H   H2533     1.0  0.64833  0.06625  0.97031  1.0000
  H   H2534     1.0  0.64432  0.98992  0.96784  1.0000
  C   C1410     1.0  0.35636  0.08773  0.72338  1.0000
  C   C1411     1.0  0.64987  0.11115  0.73769  1.0000
  C   C1412     1.0  0.32595  0.10048  0.77500  1.0000
  C   C1413     1.0  0.44602  0.43469  0.73398  1.0000
  H   H2535     1.0  0.60152  0.00817  0.96613  1.0000
  C   C1414     1.0  0.64812  0.46491  0.77530  1.0000
  H   H2536     1.0  0.44570  0.46361  0.89638  1.0000
  H   H2537     1.0  0.46694  0.39333  0.72535  1.0000
  H   H2538     1.0  0.63986  0.05729  0.80465  1.0000
  C   C1415     1.0  0.33070  0.07495  0.78204  1.0000
  H   H2539     1.0  0.50686  0.46781  0.91031  1.0000
  C   C1416     1.0  0.42712  0.47191  0.89938  1.0000
  H   H2540     1.0  0.65092  0.20088  0.76939  1.0000
  H   H2541     1.0  0.65004  0.18039  0.74840  1.0000
  C   C1417     1.0  0.50789  0.97921  0.85323  1.0000
  Fe  Fe161     1.0  0.62807  0.47640  0.84988  1.0000
  H   H2542     1.0  0.64613  0.13857  0.89117  1.0000
  H   H2543     1.0  0.65042  0.13947  0.85970  1.0000
  H   H2544     1.0  0.49002  0.44787  0.72281  1.0000
  Fe  Fe162     1.0  0.62212  0.54436  0.05001  1.0000
  S   S315      1.0  0.59967  0.51766  0.04990  1.0000
  C   C1418     1.0  0.34116  0.53404  0.00044  1.0000
  Fe  Fe163     1.0  0.59679  0.55412  0.07772  1.0000
  S   S316      1.0  0.57233  0.52830  0.07935  1.0000
  S   S317      1.0  0.59165  0.56924  0.09658  1.0000
  Fe  Fe164     1.0  0.60490  0.50488  0.07106  1.0000
  S   S318      1.0  0.34018  0.56280  0.05267  1.0000
  Fe  Fe165     1.0  0.56905  0.54358  0.05824  1.0000
  S   S319      1.0  0.53549  0.55814  0.04937  1.0000
  S   S320      1.0  0.62950  0.52977  0.07063  1.0000
  S   S321      1.0  0.59134  0.57124  0.05714  1.0000
  Fe  Fe166     1.0  0.36835  0.57963  0.05701  1.0000
  S   S322      1.0  0.37560  0.55258  0.07468  1.0000
  H   H2545     1.0  0.56378  0.52391  0.12904  1.0000
  Fe  Fe167     1.0  0.36932  0.54274  0.03988  1.0000
  S   S323      1.0  0.37780  0.51277  0.05638  1.0000
  C   C1419     1.0  0.47699  0.75675  0.14597  1.0000
  H   H2546     1.0  0.52264  0.75738  0.13095  1.0000
  Fe  Fe168     1.0  0.40307  0.53411  0.06014  1.0000
  S   S324      1.0  0.43839  0.51735  0.06667  1.0000
  S   S325      1.0  0.39712  0.56232  0.04257  1.0000
  Fe  Fe169     1.0  0.40290  0.92708  0.12840  1.0000
  S   S326      1.0  0.40329  0.93086  0.14920  1.0000
  S   S327      1.0  0.40871  0.95999  0.11344  1.0000
  Fe  Fe170     1.0  0.39785  0.87450  0.13627  1.0000
  S   S328      1.0  0.39775  0.87484  0.15766  1.0000
  S   S329      1.0  0.40135  0.84182  0.12683  1.0000
  Fe  Fe171     1.0  0.37359  0.91000  0.15463  1.0000
  S   S330      1.0  0.33968  0.91927  0.16897  1.0000
  Fe  Fe172     1.0  0.42743  0.89595  0.15023  1.0000
  S   S331      1.0  0.46054  0.88542  0.15954  1.0000
  S   S332      1.0  0.37154  0.90831  0.13364  1.0000
  S   S333      1.0  0.42917  0.89357  0.12909  1.0000
  Fe  Fe173     1.0  0.62962  0.91979  0.12851  1.0000
  S   S334      1.0  0.61230  0.94783  0.14046  1.0000
  H   H2547     1.0  0.50923  0.96267  0.07526  1.0000
  Fe  Fe174     1.0  0.61473  0.87988  0.15056  1.0000
  S   S335      1.0  0.59710  0.90529  0.16451  1.0000
  S   S336      1.0  0.61657  0.84022  0.15761  1.0000
  Fe  Fe175     1.0  0.58241  0.92671  0.14659  1.0000
  S   S337      1.0  0.54496  0.94477  0.14432  1.0000
  Fe  Fe176     1.0  0.62881  0.92429  0.15715  1.0000
  S   S338      1.0  0.59872  0.90053  0.13313  1.0000
  Fe  Fe177     1.0  0.61162  0.67607  0.12304  1.0000
  S   S339      1.0  0.59816  0.65443  0.14232  1.0000
  S   S340      1.0  0.62453  0.66162  0.10391  1.0000
  Fe  Fe178     1.0  0.60309  0.72140  0.13476  1.0000
  S   S341      1.0  0.58875  0.70299  0.15497  1.0000
  S   S342      1.0  0.60331  0.76094  0.12769  1.0000
  Fe  Fe179     1.0  0.61895  0.67327  0.15124  1.0000
  C   C1420     1.0  0.61426  0.93855  0.09591  1.0000
  Fe  Fe180     1.0  0.56925  0.68537  0.14451  1.0000
  S   S343      1.0  0.53212  0.67892  0.15361  1.0000
  S   S344      1.0  0.63490  0.69293  0.13168  1.0000
  S   S345      1.0  0.58109  0.70586  0.12453  1.0000
  Fe  Fe181     1.0  0.37355  0.67997  0.11741  1.0000
  S   S346      1.0  0.39950  0.64915  0.12477  1.0000
  S   S347      1.0  0.35472  0.68151  0.10040  1.0000
  Fe  Fe182     1.0  0.37765  0.70897  0.13791  1.0000
  S   S348      1.0  0.40347  0.67946  0.14709  1.0000
  C   C1421     1.0  0.41748  0.94429  0.18151  1.0000
  Fe  Fe183     1.0  0.42049  0.67640  0.12619  1.0000
  S   S349      1.0  0.45938  0.67477  0.11743  1.0000
  Fe  Fe184     1.0  0.37982  0.65498  0.14497  1.0000
  S   S350      1.0  0.39599  0.70710  0.11708  1.0000
  C   C1422     1.0  0.59978  0.55075  0.97753  1.0000
  H   H2548     1.0  0.60317  0.62310  0.04359  1.0000
  C   C1423     1.0  0.51229  0.67760  0.14338  1.0000
  C   C1424     1.0  0.51861  0.68135  0.12961  1.0000
  C   C1425     1.0  0.50203  0.68094  0.12174  1.0000
  C   C1426     1.0  0.47915  0.67671  0.12758  1.0000
  C   C1427     1.0  0.47285  0.67301  0.14134  1.0000
  C   C1428     1.0  0.48941  0.67338  0.14921  1.0000
  H   H2549     1.0  0.53619  0.68470  0.12503  1.0000
  H   H2550     1.0  0.50697  0.68391  0.11109  1.0000
  H   H2551     1.0  0.45534  0.66955  0.14595  1.0000
  H   H2552     1.0  0.48446  0.67045  0.15986  1.0000
  H   H2553     1.0  0.41568  0.81872  0.15453  1.0000
  C   C1429     1.0  0.38320  0.91324  0.19587  1.0000
  H   H2554     1.0  0.41613  0.95056  0.19094  1.0000
  C   C1430     1.0  0.61224  0.81850  0.14925  1.0000
  C   C1431     1.0  0.61423  0.79484  0.15566  1.0000
  C   C1432     1.0  0.61143  0.77695  0.14928  1.0000
  C   C1433     1.0  0.60693  0.78254  0.13633  1.0000
  C   C1434     1.0  0.60496  0.80620  0.12993  1.0000
  C   C1435     1.0  0.60708  0.82414  0.13645  1.0000
  H   H2555     1.0  0.41767  0.81327  0.17182  1.0000
  H   H2556     1.0  0.61293  0.75884  0.15434  1.0000
  H   H2557     1.0  0.60162  0.81066  0.11990  1.0000
  H   H2558     1.0  0.60458  0.84229  0.13162  1.0000
  H   H2559     1.0  0.63411  0.61383  0.13421  1.0000
  C   C1436     1.0  0.48344  0.90259  0.15541  1.0000
  C   C1437     1.0  0.48185  0.92394  0.14653  1.0000
  C   C1438     1.0  0.50072  0.93681  0.14329  1.0000
  C   C1439     1.0  0.52158  0.92813  0.14861  1.0000
  C   C1440     1.0  0.52324  0.90664  0.15736  1.0000
  C   C1441     1.0  0.50408  0.89417  0.16092  1.0000
  H   H2560     1.0  0.46605  0.93058  0.14219  1.0000
  H   H2561     1.0  0.49926  0.95344  0.13654  1.0000
  H   H2562     1.0  0.53912  0.89986  0.16160  1.0000
  H   H2563     1.0  0.50536  0.87779  0.16790  1.0000
  C   C1442     1.0  0.38982  0.81496  0.13236  1.0000
  C   C1443     1.0  0.39674  0.79730  0.12447  1.0000
  C   C1444     1.0  0.38921  0.77519  0.12873  1.0000
  C   C1445     1.0  0.37467  0.77042  0.14099  1.0000
  C   C1446     1.0  0.36725  0.78829  0.14875  1.0000
  C   C1447     1.0  0.37468  0.81046  0.14445  1.0000
  H   H2564     1.0  0.40807  0.80072  0.11498  1.0000
  H   H2565     1.0  0.39463  0.76183  0.12254  1.0000
  H   H2566     1.0  0.36892  0.82395  0.15055  1.0000
  C   C1448     1.0  0.36225  0.63469  0.06935  1.0000
  C   C1449     1.0  0.35517  0.65908  0.06666  1.0000
  C   C1450     1.0  0.35367  0.67292  0.07622  1.0000
  C   C1451     1.0  0.36005  0.66283  0.08852  1.0000
  C   C1452     1.0  0.36776  0.63835  0.09126  1.0000
  C   C1453     1.0  0.36833  0.62417  0.08175  1.0000
  C   C1454     1.0  0.48082  0.62506  0.05746  1.0000
  H   H2567     1.0  0.47968  0.76162  0.15517  1.0000
  H   H2568     1.0  0.37264  0.63037  0.10077  1.0000
  H   H2569     1.0  0.37347  0.60526  0.08394  1.0000
  H   H2570     1.0  0.43838  0.84258  0.18053  1.0000
  C   C1455     1.0  0.60141  0.59483  0.09821  1.0000
  C   C1456     1.0  0.61418  0.60830  0.08761  1.0000
  C   C1457     1.0  0.62119  0.62878  0.08946  1.0000
  C   C1458     1.0  0.61513  0.63610  0.10182  1.0000
  C   C1459     1.0  0.60239  0.62257  0.11238  1.0000
  C   C1460     1.0  0.59590  0.60187  0.11062  1.0000
  H   H2571     1.0  0.61863  0.60297  0.07802  1.0000
  C   C1461     1.0  0.46777  0.60921  0.06919  1.0000
  H   H2572     1.0  0.59767  0.62794  0.12193  1.0000
  H   H2573     1.0  0.58656  0.59129  0.11892  1.0000
  C   C1462     1.0  0.50855  0.54672  0.05443  1.0000
  C   C1463     1.0  0.48918  0.55748  0.04808  1.0000
  C   C1464     1.0  0.46759  0.54874  0.05170  1.0000
  C   C1465     1.0  0.46513  0.52915  0.06174  1.0000
  C   C1466     1.0  0.48444  0.51854  0.06815  1.0000
  C   C1467     1.0  0.50602  0.52727  0.06454  1.0000
  H   H2574     1.0  0.49096  0.57248  0.04022  1.0000
  H   H2575     1.0  0.45297  0.55690  0.04659  1.0000
  H   H2576     1.0  0.48273  0.50338  0.07592  1.0000
  H   H2577     1.0  0.52074  0.51880  0.06951  1.0000
  H   H2578     1.0  0.58776  0.56738  0.97929  1.0000
  H   H2579     1.0  0.36395  0.60295  0.13708  1.0000
  H   H2580     1.0  0.45226  0.87398  0.18780  1.0000
  C   C1468     1.0  0.32497  0.62589  0.15913  1.0000
  N   N80       1.0  0.40933  0.90409  0.19565  1.0000
  H   H2581     1.0  0.33976  0.60464  0.10668  1.0000
  H   H2582     1.0  0.59021  0.53577  0.98216  1.0000
  C   C1469     1.0  0.61094  0.96701  0.07565  1.0000
  H   H2583     1.0  0.45407  0.94981  0.17457  1.0000
  C   C1470     1.0  0.54601  0.53368  0.13245  1.0000
  H   H2584     1.0  0.45591  0.56367  0.08029  1.0000
  C   C1471     1.0  0.62019  0.61763  0.03719  1.0000
  H   H2585     1.0  0.44089  0.61027  0.03215  1.0000
  H   H2586     1.0  0.42157  0.63775  0.02802  1.0000
  C   C1472     1.0  0.37861  0.95251  0.09826  1.0000
  H   H2587     1.0  0.55740  0.67190  0.00784  1.0000
  H   H2588     1.0  0.37962  0.93477  0.10383  1.0000
  H   H2589     1.0  0.63108  0.52674  0.02094  1.0000
  H   H2590     1.0  0.35677  0.94681  0.08537  1.0000
  C   C1473     1.0  0.63615  0.94437  0.09609  1.0000
  H   H2591     1.0  0.34288  0.53663  0.10329  1.0000
  H   H2592     1.0  0.45967  0.83078  0.19135  1.0000
  H   H2593     1.0  0.34897  0.57971  0.13599  1.0000
  C   C1474     1.0  0.34854  0.96052  0.17448  1.0000
  H   H2594     1.0  0.44382  0.59464  0.05548  1.0000
  N   N81       1.0  0.52731  0.84472  0.13411  1.0000
  C   C1475     1.0  0.50272  0.83889  0.13897  1.0000
  C   C1476     1.0  0.53993  0.84042  0.14579  1.0000
  C   C1477     1.0  0.52482  0.87079  0.12849  1.0000
  C   C1478     1.0  0.54134  0.83128  0.12341  1.0000
  C   C1479     1.0  0.53712  0.80575  0.12419  1.0000
  C   C1480     1.0  0.48583  0.84650  0.12869  1.0000
  C   C1481     1.0  0.54801  0.88137  0.12487  1.0000
  C   C1482     1.0  0.54421  0.81483  0.15340  1.0000
  C   C1483     1.0  0.55148  0.81420  0.16666  1.0000
  C   C1484     1.0  0.55252  0.79493  0.11259  1.0000
  C   C1485     1.0  0.46387  0.83472  0.13320  1.0000
  C   C1486     1.0  0.54495  0.90546  0.11593  1.0000
  H   H2595     1.0  0.49401  0.84750  0.14765  1.0000
  H   H2596     1.0  0.50318  0.81980  0.14273  1.0000
  H   H2597     1.0  0.55782  0.84542  0.14271  1.0000
  H   H2598     1.0  0.53013  0.85202  0.15296  1.0000
  H   H2599     1.0  0.51234  0.88116  0.13552  1.0000
  H   H2600     1.0  0.51683  0.87471  0.11937  1.0000
  H   H2601     1.0  0.53790  0.84090  0.11348  1.0000
  H   H2602     1.0  0.56058  0.83042  0.12304  1.0000
  H   H2603     1.0  0.51852  0.80539  0.12362  1.0000
  H   H2604     1.0  0.54130  0.79418  0.13343  1.0000
  H   H2605     1.0  0.47976  0.86587  0.12743  1.0000
  H   H2606     1.0  0.49475  0.84206  0.11891  1.0000
  H   H2607     1.0  0.56268  0.86969  0.11972  1.0000
  H   H2608     1.0  0.55320  0.88388  0.13402  1.0000
  H   H2609     1.0  0.52840  0.80620  0.15557  1.0000
  H   H2610     1.0  0.55889  0.80420  0.14759  1.0000
  H   H2611     1.0  0.55664  0.79562  0.17137  1.0000
  H   H2612     1.0  0.56679  0.82345  0.16529  1.0000
  H   H2613     1.0  0.53654  0.82273  0.17340  1.0000
  H   H2614     1.0  0.54721  0.80454  0.10309  1.0000
  H   H2615     1.0  0.57146  0.79550  0.11220  1.0000
  H   H2616     1.0  0.55059  0.77619  0.11371  1.0000
  H   H2617     1.0  0.45220  0.84064  0.12564  1.0000
  H   H2618     1.0  0.46879  0.81529  0.13438  1.0000
  H   H2619     1.0  0.45384  0.83968  0.14270  1.0000
  H   H2620     1.0  0.56176  0.91257  0.11382  1.0000
  H   H2621     1.0  0.54044  0.90399  0.10641  1.0000
  H   H2622     1.0  0.53088  0.91801  0.12087  1.0000
  H   H2623     1.0  0.32212  0.58748  0.11930  1.0000
  C   C1487     1.0  0.41605  0.90767  0.20816  1.0000
  H   H2624     1.0  0.37921  0.93241  0.19628  1.0000
  H   H2625     1.0  0.41293  0.60236  0.08655  1.0000
  H   H2626     1.0  0.56103  0.63578  0.02496  1.0000
  H   H2627     1.0  0.45499  0.89648  0.20326  1.0000
  C   C1488     1.0  0.32203  0.53160  0.12314  1.0000
  H   H2628     1.0  0.38232  0.95469  0.99328  1.0000
  H   H2629     1.0  0.65222  0.48197  0.14032  1.0000
  H   H2630     1.0  0.37794  0.91151  0.18652  1.0000
  N   N82       1.0  0.59137  0.60114  0.01055  1.0000
  C   C1489     1.0  0.57807  0.62519  0.00578  1.0000
  C   C1490     1.0  0.61213  0.59403  0.00008  1.0000
  C   C1491     1.0  0.57445  0.58374  0.01291  1.0000
  C   C1492     1.0  0.59953  0.60009  0.02341  1.0000
  C   C1493     1.0  0.61634  0.61739  0.02326  1.0000
  C   C1494     1.0  0.55610  0.63463  0.01549  1.0000
  C   C1495     1.0  0.58527  0.55728  0.01608  1.0000
  C   C1496     1.0  0.62490  0.61380  0.99104  1.0000
  H   H2631     1.0  0.62299  0.87126  0.09106  1.0000
  C   C1497     1.0  0.37847  0.97042  0.98563  1.0000
  C   C1498     1.0  0.33220  0.94548  0.17579  1.0000
  C   C1499     1.0  0.56739  0.54144  0.01635  1.0000
  C   C1500     1.0  0.41340  0.87826  0.19468  1.0000
  H   H2632     1.0  0.32924  0.49447  0.12262  1.0000
  H   H2633     1.0  0.62568  0.58055  0.00471  1.0000
  H   H2634     1.0  0.60642  0.58538  0.99308  1.0000
  H   H2635     1.0  0.56570  0.58615  0.00413  1.0000
  H   H2636     1.0  0.56003  0.58684  0.02142  1.0000
  H   H2637     1.0  0.58412  0.60253  0.03148  1.0000
  H   H2638     1.0  0.60923  0.58222  0.02664  1.0000
  H   H2639     1.0  0.32245  0.61836  0.13413  1.0000
  H   H2640     1.0  0.40044  0.95102  0.17792  1.0000
  H   H2641     1.0  0.54236  0.62322  0.01758  1.0000
  H   H2642     1.0  0.63393  0.61173  0.01746  1.0000
  H   H2643     1.0  0.59075  0.55323  0.02591  1.0000
  H   H2644     1.0  0.60077  0.55229  0.00859  1.0000
  S   S351      1.0  0.65279  0.55428  0.03382  1.0000
  H   H2645     1.0  0.62928  0.62577  0.99669  1.0000
  H   H2646     1.0  0.35037  0.66737  0.05715  1.0000
  C   C1501     1.0  0.32035  0.48346  0.16384  1.0000
  C   C1502     1.0  0.44209  0.91057  0.20750  1.0000
  S   S352      1.0  0.31967  0.52121  0.08450  1.0000
  C   C1503     1.0  0.64791  0.60342  0.98286  1.0000
  C   C1504     1.0  0.64606  0.53269  0.01409  1.0000
  H   H2647     1.0  0.34329  0.63071  0.12086  1.0000
  H   H2648     1.0  0.48705  0.92143  0.11721  1.0000
  H   H2649     1.0  0.58965  0.63880  0.00326  1.0000
  H   H2650     1.0  0.54427  0.96713  0.09382  1.0000
  H   H2651     1.0  0.57516  0.52273  0.01941  1.0000
  H   H2652     1.0  0.55104  0.54572  0.02351  1.0000
  N   N83       1.0  0.45232  0.75155  0.14752  1.0000
  C   C1505     1.0  0.44841  0.73223  0.15931  1.0000
  C   C1506     1.0  0.44873  0.74324  0.13550  1.0000
  C   C1507     1.0  0.45686  0.75819  0.12189  1.0000
  C   C1508     1.0  0.49724  0.73611  0.14321  1.0000
  C   C1509     1.0  0.42261  0.72748  0.16386  1.0000
  C   C1510     1.0  0.45263  0.74755  0.11065  1.0000
  C   C1511     1.0  0.52127  0.74417  0.14017  1.0000
  C   C1512     1.0  0.42132  0.70554  0.17456  1.0000
  H   H2653     1.0  0.45462  0.73564  0.16796  1.0000
  H   H2654     1.0  0.45947  0.71528  0.15715  1.0000
  H   H2655     1.0  0.45771  0.72471  0.13526  1.0000
  H   H2656     1.0  0.42969  0.74266  0.13603  1.0000
  H   H2657     1.0  0.47602  0.75888  0.12021  1.0000
  H   H2658     1.0  0.44704  0.77647  0.12111  1.0000
  H   H2659     1.0  0.49717  0.72208  0.15208  1.0000
  H   H2660     1.0  0.49556  0.72848  0.13472  1.0000
  H   H2661     1.0  0.41521  0.72457  0.15555  1.0000
  H   H2662     1.0  0.41105  0.74255  0.16802  1.0000
  H   H2663     1.0  0.43361  0.74658  0.11161  1.0000
  H   H2664     1.0  0.45819  0.75868  0.10101  1.0000
  H   H2665     1.0  0.46304  0.72952  0.11068  1.0000
  H   H2666     1.0  0.52408  0.75176  0.14846  1.0000
  H   H2667     1.0  0.53546  0.72884  0.13876  1.0000
  H   H2668     1.0  0.43187  0.68971  0.17070  1.0000
  H   H2669     1.0  0.42800  0.70768  0.18333  1.0000
  H   H2670     1.0  0.40265  0.70271  0.17766  1.0000
  H   H2671     1.0  0.61415  0.58079  0.16758  1.0000
  C   C1513     1.0  0.61806  0.50818  0.10603  1.0000
  C   C1514     1.0  0.61911  0.59467  0.15908  1.0000
  H   H2672     1.0  0.36573  0.95704  0.16846  1.0000
  H   H2673     1.0  0.60931  0.63572  0.01907  1.0000
  H   H2674     1.0  0.62537  0.49704  0.12578  1.0000
  H   H2675     1.0  0.32928  0.90684  0.21712  1.0000
  S   S353      1.0  0.65208  0.93068  0.10885  1.0000
  H   H2676     1.0  0.60162  0.87827  0.10527  1.0000
  H   H2677     1.0  0.63180  0.86366  0.11970  1.0000
  H   H2678     1.0  0.32575  0.48824  0.99007  1.0000
  N   N84       1.0  0.51703  0.59993  0.12541  1.0000
  C   C1515     1.0  0.51903  0.57345  0.12911  1.0000
  C   C1516     1.0  0.49115  0.61066  0.12728  1.0000
  C   C1517     1.0  0.52703  0.60564  0.11085  1.0000
  C   C1518     1.0  0.53027  0.61039  0.13312  1.0000
  C   C1519     1.0  0.53278  0.59739  0.14736  1.0000
  C   C1520     1.0  0.54392  0.55916  0.12518  1.0000
  C   C1521     1.0  0.52487  0.63221  0.10468  1.0000
  C   C1522     1.0  0.47717  0.60699  0.14158  1.0000
  C   C1523     1.0  0.45067  0.61550  0.14184  1.0000
  C   C1524     1.0  0.54278  0.61207  0.15462  1.0000
  C   C1525     1.0  0.54002  0.63593  0.09093  1.0000
  H   H2679     1.0  0.50673  0.56714  0.12433  1.0000
  H   H2680     1.0  0.51321  0.56792  0.13985  1.0000
  H   H2681     1.0  0.48895  0.63002  0.12409  1.0000
  H   H2682     1.0  0.48193  0.60411  0.12083  1.0000
  H   H2683     1.0  0.51863  0.59698  0.10495  1.0000
  H   H2684     1.0  0.54625  0.59841  0.10900  1.0000
  H   H2685     1.0  0.54863  0.61156  0.12782  1.0000
  H   H2686     1.0  0.52198  0.62903  0.13371  1.0000
  H   H2687     1.0  0.54511  0.58044  0.14707  1.0000
  H   H2688     1.0  0.51569  0.59349  0.15333  1.0000
  H   H2689     1.0  0.54730  0.55865  0.11442  1.0000
  H   H2690     1.0  0.55794  0.56722  0.12730  1.0000
  H   H2691     1.0  0.53084  0.64225  0.11086  1.0000
  H   H2692     1.0  0.50629  0.63979  0.10357  1.0000
  H   H2693     1.0  0.47932  0.58822  0.14634  1.0000
  H   H2694     1.0  0.48308  0.61741  0.14761  1.0000
  H   H2695     1.0  0.44350  0.60532  0.13623  1.0000
  H   H2696     1.0  0.44111  0.61314  0.15221  1.0000
  H   H2697     1.0  0.44717  0.63448  0.13753  1.0000
  H   H2698     1.0  0.54610  0.60178  0.16439  1.0000
  H   H2699     1.0  0.55969  0.61718  0.14885  1.0000
  H   H2700     1.0  0.52993  0.62826  0.15631  1.0000
  H   H2701     1.0  0.53518  0.62577  0.08436  1.0000
  H   H2702     1.0  0.53724  0.65493  0.08651  1.0000
  H   H2703     1.0  0.55907  0.63027  0.09158  1.0000
  H   H2704     1.0  0.33373  0.91208  0.19939  1.0000
  H   H2705     1.0  0.42925  0.53700  0.09350  1.0000
  H   H2706     1.0  0.41665  0.77097  0.14992  1.0000
  H   H2707     1.0  0.51008  0.62713  0.06684  1.0000
  H   H2708     1.0  0.44052  0.59794  0.09192  1.0000
  N   N85       1.0  0.44110  0.61404  0.07129  1.0000
  H   H2709     1.0  0.42872  0.82990  0.19762  1.0000
  H   H2710     1.0  0.54381  0.53302  0.14328  1.0000
  H   H2711     1.0  0.42999  0.96276  0.07602  1.0000
  C   C1526     1.0  0.33963  0.53736  0.01350  1.0000
  H   H2712     1.0  0.42886  0.56786  0.07393  1.0000
  C   C1527     1.0  0.34522  0.53497  0.11369  1.0000
  C   C1528     1.0  0.46990  0.95457  0.08787  1.0000
  C   C1529     1.0  0.39060  0.96848  0.10124  1.0000
  H   H2713     1.0  0.53896  0.65918  0.00027  1.0000
  C   C1530     1.0  0.43672  0.57068  0.08210  1.0000
  C   C1531     1.0  0.48079  0.94966  0.10070  1.0000
  H   H2714     1.0  0.61339  0.62455  0.98403  1.0000
  H   H2715     1.0  0.41431  0.60416  0.06293  1.0000
  H   H2716     1.0  0.35668  0.96872  0.13966  1.0000
  H   H2717     1.0  0.51507  0.60239  0.05831  1.0000
  C   C1532     1.0  0.48039  0.92422  0.10775  1.0000
  H   H2718     1.0  0.44200  0.91134  0.18263  1.0000
  H   H2719     1.0  0.60701  0.92537  0.10363  1.0000
  H   H2720     1.0  0.52900  0.66560  0.01676  1.0000
  C   C1533     1.0  0.36771  0.96373  0.97512  1.0000
  H   H2721     1.0  0.47810  0.94006  0.08219  1.0000
  H   H2722     1.0  0.45105  0.95250  0.09128  1.0000
  H   H2723     1.0  0.60422  0.60053  0.15348  1.0000
  H   H2724     1.0  0.34741  0.69169  0.07405  1.0000
  H   H2725     1.0  0.62369  0.96657  0.18236  1.0000
  C   C1534     1.0  0.63275  0.97294  0.07587  1.0000
  C   C1535     1.0  0.61791  0.86618  0.10194  1.0000
  H   H2726     1.0  0.47910  0.62040  0.04802  1.0000
  H   H2727     1.0  0.58552  0.94428  0.08506  1.0000
  H   H2728     1.0  0.49940  0.95256  0.09866  1.0000
  H   H2729     1.0  0.56240  0.95438  0.10631  1.0000
  H   H2730     1.0  0.40497  0.92377  0.21156  1.0000
  H   H2731     1.0  0.47190  0.96338  0.06189  1.0000
  C   C1536     1.0  0.60204  0.94937  0.08547  1.0000
  C   C1537     1.0  0.64147  0.96912  0.18234  1.0000
  H   H2732     1.0  0.44354  0.64038  0.04514  1.0000
  H   H2733     1.0  0.62855  0.59994  0.04170  1.0000
  H   H2734     1.0  0.43342  0.55719  0.10329  1.0000
  C   C1538     1.0  0.36576  0.95932  0.08777  1.0000
  H   H2735     1.0  0.43703  0.96066  0.05207  1.0000
  H   H2736     1.0  0.53168  0.96625  0.11112  1.0000
  H   H2737     1.0  0.49172  0.91173  0.10152  1.0000
  H   H2738     1.0  0.40259  0.86833  0.20312  1.0000
  H   H2739     1.0  0.46202  0.92049  0.10999  1.0000
  H   H2740     1.0  0.51647  0.63164  0.04903  1.0000
  H   H2741     1.0  0.47035  0.96120  0.10772  1.0000
  H   H2742     1.0  0.35727  0.58125  0.17729  1.0000
  H   H2743     1.0  0.41199  0.89283  0.21632  1.0000
  H   H2744     1.0  0.40623  0.56149  0.09674  1.0000
  C   C1539     1.0  0.62933  0.48979  0.11648  1.0000
  C   C1540     1.0  0.63763  0.86822  0.10894  1.0000
  H   H2745     1.0  0.37124  0.90149  0.21723  1.0000
  H   H2746     1.0  0.33947  0.93350  0.20800  1.0000
  H   H2747     1.0  0.32119  0.60028  0.07332  1.0000
  H   H2748     1.0  0.35941  0.51983  0.11590  1.0000
  H   H2749     1.0  0.59875  0.51270  0.10951  1.0000
  H   H2750     1.0  0.43116  0.67536  0.09623  1.0000
  H   H2751     1.0  0.40946  0.61303  0.03833  1.0000
  C   C1541     1.0  0.32071  0.53379  0.99536  1.0000
  C   C1542     1.0  0.42726  0.67121  0.08714  1.0000
  C   C1543     1.0  0.42846  0.63066  0.04813  1.0000
  H   H2752     1.0  0.57213  0.62508  0.99637  1.0000
  H   H2753     1.0  0.43482  0.77141  0.17073  1.0000
  C   C1544     1.0  0.32511  0.60590  0.11528  1.0000
  H   H2754     1.0  0.61801  0.79029  0.16563  1.0000
  H   H2755     1.0  0.47974  0.77236  0.13813  1.0000
  C   C1545     1.0  0.54779  0.96862  0.10358  1.0000
  C   C1546     1.0  0.42264  0.91699  0.18330  1.0000
  S   S354      1.0  0.36614  0.53509  0.01983  1.0000
  S   S355      1.0  0.37224  0.62288  0.16060  1.0000
  H   H2756     1.0  0.36584  0.88308  0.20677  1.0000
  S   S356      1.0  0.36610  0.74227  0.14727  1.0000
  S   S357      1.0  0.35253  0.68457  0.13751  1.0000
  S   S358      1.0  0.36338  0.61891  0.05657  1.0000
  S   S359      1.0  0.63559  0.65202  0.16872  1.0000
  H   H2757     1.0  0.43784  0.78786  0.14056  1.0000
  C   C1547     1.0  0.54475  0.65934  0.00968  1.0000
  H   H2758     1.0  0.36981  0.59130  0.12197  1.0000
  H   H2759     1.0  0.35582  0.78489  0.15820  1.0000
  C   C1548     1.0  0.43226  0.59713  0.08342  1.0000
  H   H2760     1.0  0.42859  0.63472  0.09543  1.0000
  C   C1549     1.0  0.34457  0.61291  0.16448  1.0000
  C   C1550     1.0  0.44146  0.84047  0.19084  1.0000
  H   H2761     1.0  0.41157  0.64183  0.07478  1.0000
  C   C1551     1.0  0.42492  0.62233  0.03593  1.0000
  S   S360      1.0  0.64729  0.89680  0.14470  1.0000
  C   C1552     1.0  0.43500  0.77384  0.14936  1.0000
  H   H2762     1.0  0.47449  0.59089  0.06737  1.0000
  Fe  Fe185     1.0  0.34991  0.53395  0.06928  1.0000
  C   C1553     1.0  0.34222  0.59136  0.17306  1.0000
  C   C1554     1.0  0.36609  0.90150  0.20764  1.0000
  H   H2763     1.0  0.33372  0.48479  0.14322  1.0000
  H   H2764     1.0  0.39850  0.79854  0.16622  1.0000
  H   H2765     1.0  0.63219  0.63029  0.03673  1.0000
  H   H2766     1.0  0.44314  0.86162  0.20486  1.0000
  H   H2767     1.0  0.41860  0.91218  0.17440  1.0000
  H   H2768     1.0  0.43561  0.68294  0.07849  1.0000
  C   C1555     1.0  0.43663  0.95531  0.17129  1.0000
  C   C1556     1.0  0.35585  0.59585  0.13038  1.0000
  H   H2769     1.0  0.53247  0.52487  0.13034  1.0000
  C   C1557     1.0  0.42569  0.55578  0.09473  1.0000
  H   H2770     1.0  0.45261  0.79182  0.16003  1.0000
  H   H2771     1.0  0.64052  0.51740  0.99821  1.0000
  H   H2772     1.0  0.40747  0.87615  0.18561  1.0000
  H   H2773     1.0  0.63116  0.63912  0.08125  1.0000
  H   H2774     1.0  0.47401  0.64403  0.05744  1.0000
  H   H2775     1.0  0.61405  0.84790  0.10431  1.0000
  H   H2776     1.0  0.47417  0.60994  0.07833  1.0000
  H   H2777     1.0  0.35097  0.55124  0.11475  1.0000
  C   C1558     1.0  0.43596  0.78464  0.16151  1.0000
  H   H2778     1.0  0.43697  0.65219  0.06532  1.0000
  H   H2779     1.0  0.41239  0.64331  0.05120  1.0000
  C   C1559     1.0  0.43691  0.64532  0.08627  1.0000
  C   C1560     1.0  0.33581  0.61439  0.12547  1.0000
  C   C1561     1.0  0.34065  0.91440  0.20802  1.0000
  C   C1562     1.0  0.41568  0.80504  0.16359  1.0000
  C   C1563     1.0  0.43890  0.86461  0.19475  1.0000
  H   H2780     1.0  0.40778  0.67490  0.08762  1.0000
  C   C1564     1.0  0.43117  0.63878  0.07383  1.0000
  H   H2781     1.0  0.65288  0.61138  0.18660  1.0000
  H   H2782     1.0  0.35833  0.53138  0.99423  1.0000
  C   C1565     1.0  0.43206  0.60964  0.05965  1.0000
  H   H2783     1.0  0.56270  0.54354  0.00640  1.0000
  C   C1566     1.0  0.50721  0.62127  0.05798  1.0000
  H   H2784     1.0  0.45626  0.64256  0.08605  1.0000
  H   H2785     1.0  0.43212  0.97482  0.16996  1.0000
  H   H2786     1.0  0.44573  0.92759  0.20129  1.0000
  H   H2787     1.0  0.62202  0.60977  0.16303  1.0000
  H   H2788     1.0  0.35136  0.48525  0.04285  1.0000
  C   C1567     1.0  0.64563  0.96115  0.08590  1.0000
  H   H2789     1.0  0.62586  0.52455  0.10398  1.0000
  H   H2790     1.0  0.35176  0.95600  0.98030  1.0000
  H   H2791     1.0  0.61545  0.54906  0.98229  1.0000
  H   H2792     1.0  0.43796  0.94989  0.16161  1.0000
  H   H2793     1.0  0.32646  0.64257  0.15262  1.0000
  H   H2794     1.0  0.65006  0.55857  0.10239  1.0000
  H   H2795     1.0  0.63995  0.88696  0.10668  1.0000
  H   H2796     1.0  0.64468  0.59079  0.97716  1.0000
  C   C1568     1.0  0.44709  0.91041  0.22124  1.0000
  H   H2797     1.0  0.32370  0.50131  0.16404  1.0000
  H   H2798     1.0  0.34457  0.48051  0.07268  1.0000
  C   C1569     1.0  0.65152  0.52733  0.00122  1.0000
  H   H2799     1.0  0.32379  0.58213  0.09660  1.0000
  C   C1570     1.0  0.64154  0.58487  0.15024  1.0000
  H   H2800     1.0  0.46561  0.91306  0.22045  1.0000
  H   H2801     1.0  0.63752  0.56985  0.14676  1.0000
  H   H2802     1.0  0.32225  0.53096  0.98534  1.0000
  H   H2803     1.0  0.62067  0.50106  0.09676  1.0000
  H   H2804     1.0  0.32510  0.53100  0.13329  1.0000
  C   C1571     1.0  0.32059  0.58272  0.17615  1.0000
  H   H2805     1.0  0.64282  0.58801  0.11884  1.0000
  C   C1572     1.0  0.64977  0.60414  0.13868  1.0000
  H   H2806     1.0  0.39523  0.97718  0.98114  1.0000
  C   C1573     1.0  0.42786  0.97703  0.05581  1.0000
  H   H2807     1.0  0.40849  0.97711  0.05751  1.0000
  C   C1574     1.0  0.35217  0.82030  0.45974  1.0000
  C   C1575     1.0  0.48637  0.56797  0.45022  1.0000
  C   C1576     1.0  0.32705  0.48756  0.42171  1.0000
  H   H2808     1.0  0.41058  0.49904  0.37556  1.0000
  C   C1577     1.0  0.54161  0.61414  0.46940  1.0000
  C   C1578     1.0  0.41946  0.62911  0.46494  1.0000
  H   H2809     1.0  0.43474  0.65765  0.46884  1.0000
  H   H2810     1.0  0.59121  0.60412  0.46490  1.0000
  H   H2811     1.0  0.39290  0.83613  0.46370  1.0000
  C   C1579     1.0  0.32555  0.90918  0.44389  1.0000
  C   C1580     1.0  0.40344  0.58439  0.46651  1.0000
  H   H2812     1.0  0.35097  0.90248  0.45676  1.0000
  H   H2813     1.0  0.42505  0.49071  0.42222  1.0000
  C   C1581     1.0  0.41017  0.47983  0.37734  1.0000
  H   H2814     1.0  0.38125  0.55994  0.46506  1.0000
  H   H2815     1.0  0.38407  0.49569  0.42038  1.0000
  H   H2816     1.0  0.50067  0.57591  0.45219  1.0000
  C   C1582     1.0  0.51694  0.60815  0.47075  1.0000
  C   C1583     1.0  0.34278  0.95067  0.46319  1.0000
  H   H2817     1.0  0.32051  0.90499  0.46493  1.0000
  H   H2818     1.0  0.38825  0.59901  0.46562  1.0000
  H   H2819     1.0  0.62996  0.56477  0.46979  1.0000
  H   H2820     1.0  0.46923  0.60856  0.45846  1.0000
  H   H2821     1.0  0.46809  0.56405  0.47024  1.0000
  H   H2822     1.0  0.41232  0.62661  0.45639  1.0000
  C   C1584     1.0  0.41665  0.67123  0.45242  1.0000
  H   H2823     1.0  0.48288  0.57550  0.44005  1.0000
  H   H2824     1.0  0.49253  0.54869  0.45082  1.0000
  H   H2825     1.0  0.44803  0.60479  0.44969  1.0000
  H   H2826     1.0  0.41904  0.49406  0.39955  1.0000
  H   H2827     1.0  0.35235  0.49575  0.40408  1.0000
  H   H2828     1.0  0.41443  0.66624  0.44317  1.0000
  H   H2829     1.0  0.54095  0.63260  0.46411  1.0000
  H   H2830     1.0  0.45076  0.56302  0.45836  1.0000
  H   H2831     1.0  0.35717  0.95079  0.45487  1.0000
  H   H2832     1.0  0.33786  0.82553  0.45369  1.0000
  H   H2833     1.0  0.36216  0.78635  0.45326  1.0000
  H   H2834     1.0  0.41379  0.58376  0.45644  1.0000
  H   H2835     1.0  0.36293  0.49223  0.44311  1.0000
  C   C1585     1.0  0.34480  0.48183  0.41110  1.0000
  C   C1586     1.0  0.33568  0.87026  0.45908  1.0000
  H   H2836     1.0  0.60695  0.56307  0.46104  1.0000
  C   C1587     1.0  0.38249  0.48705  0.44132  1.0000
  H   H2837     1.0  0.33843  0.90300  0.43546  1.0000
  H   H2838     1.0  0.51231  0.61028  0.46079  1.0000
  H   H2839     1.0  0.42533  0.68711  0.44979  1.0000
  H   H2840     1.0  0.32426  0.92860  0.44267  1.0000
  H   H2841     1.0  0.39053  0.50221  0.44201  1.0000
  N   N86       1.0  0.34316  0.85676  0.47186  1.0000
  H   H2842     1.0  0.44917  0.64701  0.45380  1.0000
  C   C1588     1.0  0.43185  0.65111  0.46021  1.0000
  H   H2843     1.0  0.38439  0.86333  0.45268  1.0000
  H   H2844     1.0  0.42457  0.86057  0.45623  1.0000
  H   H2845     1.0  0.59410  0.67838  0.45927  1.0000
  H   H2846     1.0  0.39895  0.67574  0.45844  1.0000
  C   C1589     1.0  0.45408  0.59918  0.45943  1.0000
  H   H2847     1.0  0.34801  0.86462  0.45037  1.0000
  C   C1590     1.0  0.38803  0.85556  0.46275  1.0000
  C   C1591     1.0  0.32220  0.63937  0.47199  1.0000
  H   H2848     1.0  0.40600  0.88398  0.46401  1.0000
  C   C1592     1.0  0.32066  0.96449  0.46159  1.0000
  H   H2849     1.0  0.36814  0.82658  0.45360  1.0000
  C   C1593     1.0  0.40977  0.86460  0.46436  1.0000
  H   H2850     1.0  0.44481  0.89324  0.22776  1.0000
  C   C1594     1.0  0.61229  0.55968  0.47091  1.0000
  H   H2851     1.0  0.37256  0.78730  0.46810  1.0000
  H   H2852     1.0  0.32953  0.48156  0.36973  1.0000
  H   H2853     1.0  0.55415  0.60231  0.46322  1.0000
  C   C1595     1.0  0.46391  0.57240  0.46038  1.0000
  N   N87       1.0  0.43461  0.60662  0.47041  1.0000
  C   C1596     1.0  0.35744  0.79337  0.46267  1.0000
  H   H2854     1.0  0.34176  0.78606  0.46870  1.0000
  H   H2855     1.0  0.57329  0.64327  0.46571  1.0000
  C   C1597     1.0  0.59498  0.67675  0.46989  1.0000
  H   H2856     1.0  0.61091  0.68367  0.47058  1.0000
  C   C1598     1.0  0.33360  0.89747  0.45700  1.0000
  H   H2857     1.0  0.43506  0.92485  0.22578  1.0000
  C   C1599     1.0  0.39054  0.48030  0.42762  1.0000
  H   H2858     1.0  0.61277  0.64112  0.47146  1.0000
  H   H2859     1.0  0.39459  0.97125  0.47222  1.0000
  C   C1600     1.0  0.39344  0.56147  0.47155  1.0000
  H   H2860     1.0  0.40791  0.54605  0.47149  1.0000
  H   H2861     1.0  0.40367  0.63382  0.47249  1.0000
  S   S361      1.0  0.64286  0.87967  0.52503  1.0000
  Fe  Fe186     1.0  0.59510  0.70546  0.51793  1.0000
  S   S362      1.0  0.58012  0.67998  0.53518  1.0000
  S   S363      1.0  0.58091  0.74309  0.52085  1.0000
  Fe  Fe187     1.0  0.62187  0.66548  0.50340  1.0000
  S   S364      1.0  0.60834  0.63765  0.51965  1.0000
  H   H2862     1.0  0.54647  0.60066  0.51052  1.0000
  Fe  Fe188     1.0  0.57291  0.66159  0.52003  1.0000
  S   S365      1.0  0.53783  0.64748  0.52421  1.0000
  Fe  Fe189     1.0  0.61664  0.65889  0.53312  1.0000
  S   S366      1.0  0.63449  0.64104  0.55071  1.0000
  S   S367      1.0  0.58585  0.68829  0.50280  1.0000
  S   S368      1.0  0.63215  0.68551  0.51684  1.0000
  Fe  Fe190     1.0  0.61661  0.87811  0.54389  1.0000
  H   H2863     1.0  0.36533  0.80330  0.55287  1.0000
  H   H2864     1.0  0.60004  0.56848  0.49014  1.0000
  Fe  Fe191     1.0  0.57394  0.89444  0.52925  1.0000
  S   S369      1.0  0.59731  0.89731  0.50920  1.0000
  S   S370      1.0  0.53363  0.90136  0.53499  1.0000
  Fe  Fe192     1.0  0.61793  0.86269  0.51782  1.0000
  S   S371      1.0  0.63410  0.83126  0.50765  1.0000
  Fe  Fe193     1.0  0.62039  0.91393  0.51820  1.0000
  C   C1601     1.0  0.33588  0.61924  0.47799  1.0000
  S   S372      1.0  0.59318  0.85884  0.53717  1.0000
  S   S373      1.0  0.59550  0.91349  0.53774  1.0000
  Fe  Fe194     1.0  0.38067  0.86846  0.53345  1.0000
  S   S374      1.0  0.35864  0.86184  0.51998  1.0000
  S   S375      1.0  0.36965  0.85824  0.55549  1.0000
  Fe  Fe195     1.0  0.41756  0.88721  0.51098  1.0000
  S   S376      1.0  0.39768  0.88284  0.49561  1.0000
  S   S377      1.0  0.45335  0.89874  0.50268  1.0000
  Fe  Fe196     1.0  0.36479  0.89746  0.50840  1.0000
  H   H2865     1.0  0.36910  0.66973  0.55532  1.0000
  Fe  Fe197     1.0  0.39299  0.84767  0.50818  1.0000
  S   S378      1.0  0.40207  0.81625  0.49765  1.0000
  S   S379      1.0  0.38477  0.90518  0.52281  1.0000
  S   S380      1.0  0.41488  0.85102  0.52269  1.0000
  Fe  Fe198     1.0  0.37267  0.65091  0.52485  1.0000
  S   S381      1.0  0.34383  0.66582  0.51295  1.0000
  S   S382      1.0  0.36395  0.62953  0.54513  1.0000
  Fe  Fe199     1.0  0.41211  0.66396  0.50191  1.0000
  H   H2866     1.0  0.64634  0.57158  0.49374  1.0000
  S   S383      1.0  0.45134  0.66400  0.49306  1.0000
  Fe  Fe200     1.0  0.36429  0.69597  0.50537  1.0000
  S   S384      1.0  0.34367  0.73309  0.50530  1.0000
  Fe  Fe201     1.0  0.36744  0.64836  0.49674  1.0000
  H   H2867     1.0  0.61594  0.91139  0.56549  1.0000
  S   S385      1.0  0.39151  0.68224  0.51862  1.0000
  S   S386      1.0  0.39533  0.63151  0.50928  1.0000
  C   C1602     1.0  0.63568  0.91697  0.57955  1.0000
  H   H2868     1.0  0.34462  0.68958  0.57347  1.0000
  H   H2869     1.0  0.43128  0.83276  0.55101  1.0000
  H   H2870     1.0  0.32418  0.77121  0.58908  1.0000
  C   C1603     1.0  0.44631  0.72936  0.48558  1.0000
  C   C1604     1.0  0.38508  0.79369  0.50005  1.0000
  C   C1605     1.0  0.36313  0.79407  0.50841  1.0000
  C   C1606     1.0  0.35031  0.77556  0.50986  1.0000
  C   C1607     1.0  0.35980  0.75622  0.50338  1.0000
  C   C1608     1.0  0.38170  0.75593  0.49507  1.0000
  C   C1609     1.0  0.39407  0.77479  0.49324  1.0000
  H   H2871     1.0  0.35605  0.80860  0.51368  1.0000
  C   C1610     1.0  0.57421  0.64112  0.47638  1.0000
  H   H2872     1.0  0.38886  0.74136  0.48983  1.0000
  H   H2873     1.0  0.41085  0.77464  0.48661  1.0000
  C   C1611     1.0  0.51157  0.90200  0.52551  1.0000
  C   C1612     1.0  0.51711  0.89965  0.51219  1.0000
  C   C1613     1.0  0.49903  0.89898  0.50531  1.0000
  C   C1614     1.0  0.47536  0.90002  0.51174  1.0000
  C   C1615     1.0  0.46979  0.90263  0.52501  1.0000
  C   C1616     1.0  0.48776  0.90396  0.53178  1.0000
  H   H2874     1.0  0.53530  0.89829  0.50720  1.0000
  H   H2875     1.0  0.50347  0.89732  0.49498  1.0000
  H   H2876     1.0  0.45161  0.90391  0.53001  1.0000
  H   H2877     1.0  0.48325  0.90610  0.54204  1.0000
  H   H2878     1.0  0.40205  0.69279  0.54556  1.0000
  C   C1617     1.0  0.32169  0.81005  0.60115  1.0000
  C   C1618     1.0  0.59746  0.76621  0.51773  1.0000
  C   C1619     1.0  0.58701  0.78655  0.52302  1.0000
  C   C1620     1.0  0.59814  0.80646  0.52001  1.0000
  C   C1621     1.0  0.62013  0.80610  0.51179  1.0000
  C   C1622     1.0  0.63116  0.78539  0.50685  1.0000
  C   C1623     1.0  0.61986  0.76541  0.50983  1.0000
  H   H2879     1.0  0.57004  0.78691  0.52936  1.0000
  H   H2880     1.0  0.58948  0.82224  0.52384  1.0000
  H   H2881     1.0  0.44932  0.74784  0.48204  1.0000
  H   H2882     1.0  0.62812  0.74975  0.50570  1.0000
  C   C1624     1.0  0.51382  0.65324  0.51542  1.0000
  C   C1625     1.0  0.49267  0.64500  0.52175  1.0000
  C   C1626     1.0  0.47321  0.64873  0.51517  1.0000
  C   C1627     1.0  0.47481  0.66035  0.50205  1.0000
  C   C1628     1.0  0.49602  0.66848  0.49567  1.0000
  C   C1629     1.0  0.51527  0.66533  0.50239  1.0000
  H   H2883     1.0  0.49134  0.63562  0.53183  1.0000
  H   H2884     1.0  0.45712  0.64217  0.52019  1.0000
  H   H2885     1.0  0.49746  0.67749  0.48552  1.0000
  H   H2886     1.0  0.53128  0.67208  0.49747  1.0000
  H   H2887     1.0  0.47445  0.58311  0.48413  1.0000
  C   C1630     1.0  0.60535  0.79520  0.55459  1.0000
  C   C1631     1.0  0.34253  0.87457  0.56183  1.0000
  H   H2888     1.0  0.50363  0.62025  0.47645  1.0000
  S   S387      1.0  0.63485  0.94839  0.51027  1.0000
  C   C1632     1.0  0.33909  0.67493  0.57089  1.0000
  H   H2889     1.0  0.40605  0.59378  0.48495  1.0000
  H   H2890     1.0  0.53527  0.62302  0.48901  1.0000
  C   C1633     1.0  0.58800  0.81010  0.56385  1.0000
  C   C1634     1.0  0.54878  0.61118  0.48315  1.0000
  C   C1635     1.0  0.44077  0.72413  0.50068  1.0000
  H   H2891     1.0  0.36357  0.92648  0.47667  1.0000
  S   S388      1.0  0.33176  0.92139  0.50228  1.0000
  H   H2892     1.0  0.58568  0.91463  0.64196  1.0000
  C   C1636     1.0  0.33262  0.59698  0.47642  1.0000
  C   C1637     1.0  0.34402  0.83058  0.47273  1.0000
  H   H2893     1.0  0.45012  0.48643  0.68794  1.0000
  H   H2894     1.0  0.64187  0.97182  0.60402  1.0000
  H   H2895     1.0  0.46362  0.48061  0.71539  1.0000
  H   H2896     1.0  0.42528  0.86303  0.55322  1.0000
  H   H2897     1.0  0.63442  0.61197  0.49893  1.0000
  C   C1638     1.0  0.34957  0.73217  0.54939  1.0000
  H   H2898     1.0  0.57348  0.60505  0.52494  1.0000
  H   H2899     1.0  0.41114  0.74859  0.52763  1.0000
  H   H2900     1.0  0.59917  0.65002  0.48701  1.0000
  C   C1639     1.0  0.56575  0.59437  0.50781  1.0000
  C   C1640     1.0  0.32980  0.89183  0.55345  1.0000
  H   H2901     1.0  0.56800  0.57533  0.52768  1.0000
  H   H2902     1.0  0.38530  0.96060  0.50261  1.0000
  H   H2903     1.0  0.59580  0.58251  0.51823  1.0000
  C   C1641     1.0  0.34883  0.80808  0.54858  1.0000
  H   H2904     1.0  0.36091  0.71542  0.54720  1.0000
  H   H2905     1.0  0.59628  0.61058  0.49752  1.0000
  C   C1642     1.0  0.59748  0.92549  0.63462  1.0000
  H   H2906     1.0  0.42510  0.94418  0.49282  1.0000
  N   N88       1.0  0.45831  0.72398  0.52175  1.0000
  C   C1643     1.0  0.44197  0.70638  0.52813  1.0000
  C   C1644     1.0  0.46175  0.72690  0.50681  1.0000
  C   C1645     1.0  0.48210  0.71408  0.52584  1.0000
  C   C1646     1.0  0.44964  0.74743  0.52625  1.0000
  C   C1647     1.0  0.42475  0.76006  0.52369  1.0000
  C   C1648     1.0  0.43768  0.70042  0.54344  1.0000
  C   C1649     1.0  0.50219  0.72871  0.51946  1.0000
  H   H2907     1.0  0.37150  0.85188  0.48300  1.0000
  C   C1650     1.0  0.44477  0.61195  0.48137  1.0000
  C   C1651     1.0  0.41690  0.78201  0.53017  1.0000
  H   H2908     1.0  0.34517  0.82750  0.54545  1.0000
  C   C1652     1.0  0.52622  0.71466  0.52193  1.0000
  H   H2909     1.0  0.44892  0.68947  0.52441  1.0000
  C   C1653     1.0  0.37839  0.96791  0.49326  1.0000
  H   H2910     1.0  0.46688  0.74436  0.50211  1.0000
  H   H2911     1.0  0.47669  0.71355  0.50311  1.0000
  H   H2912     1.0  0.48812  0.69587  0.52363  1.0000
  H   H2913     1.0  0.48094  0.71241  0.53669  1.0000
  H   H2914     1.0  0.45018  0.74567  0.53695  1.0000
  H   H2915     1.0  0.46180  0.76009  0.52117  1.0000
  H   H2916     1.0  0.62238  0.77285  0.57038  1.0000
  H   H2917     1.0  0.42519  0.76609  0.51293  1.0000
  H   H2918     1.0  0.45413  0.69108  0.54710  1.0000
  H   H2919     1.0  0.43106  0.71655  0.54787  1.0000
  H   H2920     1.0  0.49931  0.74494  0.52382  1.0000
  H   H2921     1.0  0.50334  0.73398  0.50861  1.0000
  C   C1654     1.0  0.62298  0.73444  0.55734  1.0000
  H   H2922     1.0  0.62029  0.96288  0.62622  1.0000
  H   H2923     1.0  0.43716  0.70582  0.50357  1.0000
  C   C1655     1.0  0.32798  0.93702  0.48635  1.0000
  H   H2924     1.0  0.32373  0.79105  0.60548  1.0000
  H   H2925     1.0  0.39920  0.79094  0.52797  1.0000
  H   H2926     1.0  0.41567  0.77723  0.54106  1.0000
  H   H2927     1.0  0.42946  0.79466  0.52617  1.0000
  H   H2928     1.0  0.35158  0.79973  0.53970  1.0000
  H   H2929     1.0  0.34453  0.73112  0.56027  1.0000
  H   H2930     1.0  0.60193  0.70739  0.55841  1.0000
  H   H2931     1.0  0.54005  0.72585  0.51781  1.0000
  H   H2932     1.0  0.52637  0.70865  0.53267  1.0000
  H   H2933     1.0  0.53070  0.69912  0.51691  1.0000
  H   H2934     1.0  0.35065  0.94978  0.51498  1.0000
  C   C1656     1.0  0.33340  0.87009  0.57539  1.0000
  C   C1657     1.0  0.34643  0.93687  0.47552  1.0000
  H   H2935     1.0  0.62641  0.96524  0.65513  1.0000
  H   H2936     1.0  0.64079  0.93723  0.62366  1.0000
  H   H2937     1.0  0.62475  0.76162  0.53960  1.0000
  C   C1658     1.0  0.60897  0.72188  0.55102  1.0000
  H   H2938     1.0  0.56785  0.57752  0.50428  1.0000
  C   C1659     1.0  0.63876  0.87960  0.57232  1.0000
  H   H2939     1.0  0.62460  0.91651  0.64651  1.0000
  H   H2940     1.0  0.61385  0.54048  0.47483  1.0000
  H   H2941     1.0  0.56974  0.63037  0.50105  1.0000
  C   C1660     1.0  0.62898  0.90346  0.57175  1.0000
  N   N89       1.0  0.57317  0.61593  0.48316  1.0000
  H   H2942     1.0  0.43734  0.84054  0.56566  1.0000
  H   H2943     1.0  0.59624  0.82445  0.56552  1.0000
  H   H2944     1.0  0.42429  0.71232  0.52522  1.0000
  H   H2945     1.0  0.63512  0.79811  0.56278  1.0000
  H   H2946     1.0  0.42440  0.73581  0.50405  1.0000
  C   C1661     1.0  0.41857  0.58854  0.47609  1.0000
  H   H2947     1.0  0.62782  0.93532  0.57922  1.0000
  H   H2948     1.0  0.36509  0.88063  0.47433  1.0000
  H   H2949     1.0  0.57914  0.68773  0.47469  1.0000
  C   C1662     1.0  0.59668  0.65097  0.47672  1.0000
  H   H2950     1.0  0.43044  0.62121  0.48811  1.0000
  H   H2951     1.0  0.32622  0.95271  0.53666  1.0000
  H   H2952     1.0  0.59593  0.78181  0.55289  1.0000
  H   H2953     1.0  0.61030  0.74327  0.56490  1.0000
  H   H2954     1.0  0.62029  0.71422  0.54257  1.0000
  H   H2955     1.0  0.34113  0.80307  0.57567  1.0000
  C   C1663     1.0  0.46510  0.59879  0.50143  1.0000
  C   C1664     1.0  0.57706  0.61357  0.49723  1.0000
  H   H2956     1.0  0.60998  0.80691  0.54506  1.0000
  H   H2957     1.0  0.42516  0.66740  0.54448  1.0000
  C   C1665     1.0  0.35289  0.66382  0.56059  1.0000
  H   H2958     1.0  0.43151  0.49758  0.70212  1.0000
  H   H2959     1.0  0.60733  0.91482  0.62701  1.0000
  H   H2960     1.0  0.54651  0.59307  0.48820  1.0000
  C   C1666     1.0  0.45795  0.59087  0.49004  1.0000
  H   H2961     1.0  0.34285  0.58127  0.48112  1.0000
  C   C1667     1.0  0.41927  0.68408  0.54850  1.0000
  H   H2962     1.0  0.46225  0.71717  0.48187  1.0000
  C   C1668     1.0  0.59245  0.60021  0.47559  1.0000
  H   H2963     1.0  0.57690  0.56751  0.48124  1.0000
  H   H2964     1.0  0.33667  0.89542  0.54298  1.0000
  H   H2965     1.0  0.53012  0.74659  0.53999  1.0000
  C   C1669     1.0  0.63648  0.75197  0.54677  1.0000
  H   H2966     1.0  0.34328  0.85692  0.58193  1.0000
  S   S389      1.0  0.38589  0.67980  0.48808  1.0000
  H   H2967     1.0  0.47723  0.61186  0.49761  1.0000
  H   H2968     1.0  0.58242  0.79902  0.57351  1.0000
  C   C1670     1.0  0.63156  0.94777  0.63146  1.0000
  H   H2969     1.0  0.64300  0.92185  0.54338  1.0000
  H   H2970     1.0  0.63571  0.72081  0.56246  1.0000
  H   H2971     1.0  0.47433  0.58339  0.50757  1.0000
  H   H2972     1.0  0.59386  0.73446  0.54742  1.0000
  H   H2973     1.0  0.41023  0.93113  0.48337  1.0000
  S   S390      1.0  0.35803  0.62068  0.48704  1.0000
  H   H2974     1.0  0.33870  0.81379  0.59490  1.0000
  H   H2975     1.0  0.45751  0.62444  0.47734  1.0000
  H   H2976     1.0  0.55865  0.65312  0.48073  1.0000
  N   N90       1.0  0.64674  0.76900  0.55201  1.0000
  H   H2977     1.0  0.33315  0.77610  0.51614  1.0000
  C   C1671     1.0  0.59404  0.57337  0.48043  1.0000
  S   S391      1.0  0.63083  0.86184  0.56282  1.0000
  C   C1672     1.0  0.57650  0.58905  0.52039  1.0000
  N   N91       1.0  0.64906  0.95658  0.63714  1.0000
  C   C1673     1.0  0.32549  0.63631  0.56465  1.0000
  H   H2978     1.0  0.51638  0.58963  0.47578  1.0000
  C   C1674     1.0  0.62789  0.78351  0.56054  1.0000
  H   H2979     1.0  0.52100  0.75445  0.55620  1.0000
  H   H2980     1.0  0.57207  0.81825  0.55935  1.0000
  H   H2981     1.0  0.36903  0.95413  0.49189  1.0000
  H   H2982     1.0  0.35526  0.82039  0.48008  1.0000
  N   N92       1.0  0.50586  0.82745  0.54360  1.0000
  C   C1675     1.0  0.52038  0.80354  0.54731  1.0000
  C   C1676     1.0  0.51465  0.84521  0.54905  1.0000
  C   C1677     1.0  0.48023  0.82604  0.54933  1.0000
  C   C1678     1.0  0.50819  0.83490  0.52880  1.0000
  C   C1679     1.0  0.53360  0.83694  0.52126  1.0000
  C   C1680     1.0  0.51839  0.78407  0.53982  1.0000
  C   C1681     1.0  0.46256  0.84954  0.54770  1.0000
  C   C1682     1.0  0.51131  0.84200  0.56430  1.0000
  C   C1683     1.0  0.52147  0.86080  0.56844  1.0000
  C   C1684     1.0  0.53549  0.83768  0.50646  1.0000
  C   C1685     1.0  0.53038  0.75992  0.54602  1.0000
  C   C1686     1.0  0.43767  0.84612  0.55486  1.0000
  H   H2983     1.0  0.51541  0.79678  0.55805  1.0000
  H   H2984     1.0  0.53947  0.80477  0.54599  1.0000
  H   H2985     1.0  0.53389  0.84509  0.54528  1.0000
  H   H2986     1.0  0.50618  0.86328  0.54538  1.0000
  H   H2987     1.0  0.47819  0.81826  0.56003  1.0000
  H   H2988     1.0  0.47377  0.81380  0.54466  1.0000
  H   H2989     1.0  0.50053  0.82301  0.52449  1.0000
  H   H2990     1.0  0.49766  0.85265  0.52625  1.0000
  H   H2991     1.0  0.54661  0.82203  0.52488  1.0000
  H   H2992     1.0  0.53884  0.85328  0.52263  1.0000
  H   H2993     1.0  0.49971  0.78286  0.53998  1.0000
  H   H2994     1.0  0.52713  0.78776  0.52933  1.0000
  H   H2995     1.0  0.46141  0.85617  0.53712  1.0000
  H   H2996     1.0  0.46772  0.86329  0.55180  1.0000
  H   H2997     1.0  0.49230  0.84369  0.56878  1.0000
  H   H2998     1.0  0.52056  0.82453  0.56850  1.0000
  H   H2999     1.0  0.54068  0.85965  0.56442  1.0000
  H   H3000     1.0  0.51232  0.87871  0.56475  1.0000
  H   H3001     1.0  0.51901  0.85825  0.57939  1.0000
  H   H3002     1.0  0.52246  0.85230  0.50229  1.0000
  H   H3003     1.0  0.55353  0.84052  0.50133  1.0000
  H   H3004     1.0  0.53238  0.82074  0.50460  1.0000
  H   H3005     1.0  0.54913  0.76020  0.54637  1.0000
  C   C1687     1.0  0.61464  0.93287  0.64153  1.0000
  H   H3006     1.0  0.34303  0.84742  0.49970  1.0000
  H   H3007     1.0  0.41668  0.67968  0.55946  1.0000
  H   H3008     1.0  0.44679  0.57717  0.49456  1.0000
  C   C1688     1.0  0.34611  0.64449  0.55745  1.0000
  H   H3009     1.0  0.61011  0.60403  0.47596  1.0000
  H   H3010     1.0  0.33173  0.81840  0.61821  1.0000
  C   C1689     1.0  0.32544  0.84943  0.49697  1.0000
  H   H3011     1.0  0.64653  0.60040  0.53223  1.0000
  H   H3012     1.0  0.43124  0.72671  0.48146  1.0000
  H   H3013     1.0  0.44927  0.60681  0.50785  1.0000
  C   C1690     1.0  0.34487  0.96758  0.51762  1.0000
  H   H3014     1.0  0.60409  0.94307  0.64917  1.0000
  C   C1691     1.0  0.36655  0.86182  0.47350  1.0000
  H   H3015     1.0  0.64476  0.79371  0.53369  1.0000
  H   H3016     1.0  0.38339  0.56132  0.48176  1.0000
  H   H3017     1.0  0.33171  0.78025  0.56073  1.0000
  S   S392      1.0  0.64936  0.65642  0.48565  1.0000
  C   C1692     1.0  0.32800  0.79978  0.55861  1.0000
  H   H3018     1.0  0.32354  0.93125  0.69362  1.0000
  H   H3019     1.0  0.35993  0.74673  0.54535  1.0000
  H   H3020     1.0  0.35874  0.97112  0.52228  1.0000
  C   C1693     1.0  0.64816  0.60860  0.49067  1.0000
  H   H3021     1.0  0.32169  0.83154  0.49732  1.0000
  H   H3022     1.0  0.58637  0.94121  0.62980  1.0000
  H   H3023     1.0  0.45869  0.50852  0.69475  1.0000
  H   H3024     1.0  0.32042  0.62108  0.56240  1.0000
  H   H3025     1.0  0.41554  0.85571  0.47386  1.0000
  H   H3026     1.0  0.65102  0.93006  0.65484  1.0000
  H   H3027     1.0  0.32605  0.82586  0.47651  1.0000
  C   C1694     1.0  0.32460  0.86489  0.48308  1.0000
  H   H3028     1.0  0.32589  0.88305  0.48411  1.0000
  H   H3029     1.0  0.32449  0.65662  0.47306  1.0000
  C   C1695     1.0  0.32460  0.81000  0.57152  1.0000
  C   C1696     1.0  0.63589  0.97434  0.64574  1.0000
  C   C1697     1.0  0.40008  0.96923  0.48196  1.0000
  C   C1698     1.0  0.41822  0.94667  0.48344  1.0000
  H   H3030     1.0  0.64826  0.78495  0.50050  1.0000
  H   H3031     1.0  0.65145  0.94984  0.53547  1.0000
  H   H3032     1.0  0.33365  0.73867  0.53220  1.0000
  H   H3033     1.0  0.32454  0.70071  0.54388  1.0000
  H   H3034     1.0  0.32430  0.82936  0.56883  1.0000
  C   C1699     1.0  0.32755  0.73679  0.54300  1.0000
  C   C1700     1.0  0.45007  0.49260  0.69726  1.0000
  H   H3035     1.0  0.65067  0.74086  0.54092  1.0000
  H   H3036     1.0  0.43337  0.94778  0.47513  1.0000
  H   H3037     1.0  0.42866  0.57125  0.47984  1.0000
  C   C1701     1.0  0.65273  0.90686  0.58762  1.0000
  C   C1702     1.0  0.32240  0.96646  0.52800  1.0000
  H   H3038     1.0  0.34893  0.54509  0.80188  1.0000
  C   C1703     1.0  0.34472  0.96368  0.78493  1.0000
  H   H3039     1.0  0.33182  0.96915  0.79352  1.0000
  Fe  Fe202     1.0  0.59370  0.52051  0.85561  1.0000
  S   S393      1.0  0.55592  0.53943  0.85428  1.0000
  H   H3040     1.0  0.32568  0.58529  0.87164  1.0000
  S   S394      1.0  0.61610  0.51018  0.83693  1.0000
  S   S395      1.0  0.62196  0.53750  0.86016  1.0000
  Fe  Fe203     1.0  0.43018  0.50272  0.85419  1.0000
  H   H3041     1.0  0.37895  0.63218  0.76383  1.0000
  Fe  Fe204     1.0  0.38916  0.54003  0.84515  1.0000
  S   S396      1.0  0.36771  0.51320  0.84416  1.0000
  S   S397      1.0  0.37095  0.57792  0.84281  1.0000
  H   H3042     1.0  0.38494  0.56394  0.81704  1.0000
  C   C1704     1.0  0.36782  0.67001  0.75795  1.0000
  C   C1705     1.0  0.33467  0.61816  0.81483  1.0000
  S   S398      1.0  0.39816  0.52330  0.86513  1.0000
  S   S399      1.0  0.42301  0.52225  0.83424  1.0000
  C   C1706     1.0  0.36103  0.58928  0.82766  1.0000
  C   C1707     1.0  0.37099  0.57909  0.81646  1.0000
  H   H3043     1.0  0.37169  0.58148  0.79561  1.0000
  C   C1708     1.0  0.34515  0.60842  0.80352  1.0000
  H   H3044     1.0  0.39502  0.50126  0.93762  1.0000
  C   C1709     1.0  0.34308  0.60902  0.82678  1.0000
  H   H3045     1.0  0.32151  0.92927  0.78049  1.0000
  H   H3046     1.0  0.34689  0.93476  0.96614  1.0000
  H   H3047     1.0  0.38136  0.69282  0.78083  1.0000
  H   H3048     1.0  0.58488  0.96421  0.83501  1.0000
  H   H3049     1.0  0.38469  0.90655  0.81157  1.0000
  H   H3050     1.0  0.35948  0.68150  0.74978  1.0000
  C   C1710     1.0  0.34115  0.52517  0.90802  1.0000
  C   C1711     1.0  0.63067  0.90129  0.80809  1.0000
  C   C1712     1.0  0.35310  0.67357  0.77170  1.0000
  H   H3051     1.0  0.34798  0.54034  0.90904  1.0000
  C   C1713     1.0  0.64244  0.48040  0.95202  1.0000
  C   C1714     1.0  0.34425  0.90245  0.76276  1.0000
  C   C1715     1.0  0.34993  0.51465  0.89671  1.0000
  N   N93       1.0  0.34750  0.69849  0.77445  1.0000
  H   H3052     1.0  0.35871  0.68722  0.80047  1.0000
  C   C1716     1.0  0.53127  0.52508  0.85584  1.0000
  C   C1717     1.0  0.51050  0.53799  0.85146  1.0000
  C   C1718     1.0  0.49039  0.52734  0.85281  1.0000
  C   C1719     1.0  0.49070  0.50375  0.85883  1.0000
  H   H3053     1.0  0.51004  0.55633  0.84694  1.0000
  H   H3054     1.0  0.47465  0.53746  0.84931  1.0000
  C   C1720     1.0  0.34992  0.95330  0.82428  1.0000
  C   C1721     1.0  0.37029  0.93746  0.82056  1.0000
  C   C1722     1.0  0.36877  0.91842  0.81466  1.0000
  C   C1723     1.0  0.34689  0.91470  0.81264  1.0000
  H   H3055     1.0  0.32371  0.54102  0.82372  1.0000
  H   H3056     1.0  0.33644  0.56029  0.78751  1.0000
  H   H3057     1.0  0.38728  0.94020  0.82190  1.0000
  C   C1724     1.0  0.59898  0.87602  0.81123  1.0000
  C   C1725     1.0  0.32490  0.68573  0.81273  1.0000
  H   H3058     1.0  0.63220  0.56276  0.93623  1.0000
  C   C1726     1.0  0.60611  0.48474  0.77290  1.0000
  S   S400      1.0  0.35165  0.48143  0.88107  1.0000
  C   C1727     1.0  0.36348  0.58904  0.80434  1.0000
  N   N94       1.0  0.63355  0.52607  0.94559  1.0000
  C   C1728     1.0  0.33947  0.92937  0.76021  1.0000
  H   H3059     1.0  0.58339  0.53488  0.92034  1.0000
  H   H3060     1.0  0.40916  0.95707  0.92367  1.0000
  H   H3061     1.0  0.59412  0.93537  0.84408  1.0000
  C   C1729     1.0  0.65191  0.56000  0.78859  1.0000
  C   C1730     1.0  0.50337  0.50831  0.81800  1.0000
  S   S401      1.0  0.60417  0.48574  0.86839  1.0000
  H   H3062     1.0  0.60734  0.86934  0.80192  1.0000
  C   C1731     1.0  0.46661  0.95194  0.88262  1.0000
  C   C1732     1.0  0.33298  0.54839  0.79716  1.0000
  H   H3063     1.0  0.62766  0.47811  0.94755  1.0000
  C   C1733     1.0  0.33512  0.71385  0.76355  1.0000
  H   H3064     1.0  0.38887  0.50685  0.91440  1.0000
  H   H3065     1.0  0.38102  0.64219  0.74624  1.0000
  H   H3066     1.0  0.47140  0.49623  0.91651  1.0000
  H   H3067     1.0  0.46712  0.94041  0.89242  1.0000
  H   H3068     1.0  0.48486  0.95453  0.87780  1.0000
  H   H3069     1.0  0.64946  0.87129  0.83435  1.0000
  C   C1734     1.0  0.51132  0.49097  0.86338  1.0000
  H   H3070     1.0  0.36339  0.52174  0.88916  1.0000
  H   H3071     1.0  0.54736  0.49130  0.86523  1.0000
  H   H3072     1.0  0.34141  0.93560  0.94984  1.0000
  H   H3073     1.0  0.60302  0.53665  0.80810  1.0000
  H   H3074     1.0  0.33635  0.66658  0.77276  1.0000
  H   H3075     1.0  0.63680  0.55713  0.76595  1.0000
  H   H3076     1.0  0.39092  0.75269  0.78235  1.0000
  H   H3077     1.0  0.60979  0.50273  0.77240  1.0000
  S   S402      1.0  0.40858  0.48193  0.81463  1.0000
  H   H3078     1.0  0.61673  0.56650  0.95863  1.0000
  H   H3079     1.0  0.60319  0.56516  0.79766  1.0000
  H   H3080     1.0  0.32554  0.71607  0.79013  1.0000
  H   H3081     1.0  0.58523  0.89163  0.80907  1.0000
  C   C1735     1.0  0.65154  0.50377  0.94539  1.0000
  H   H3082     1.0  0.62597  0.53754  0.91787  1.0000
  C   C1736     1.0  0.61255  0.94217  0.82366  1.0000
  C   C1737     1.0  0.61753  0.88238  0.81760  1.0000
  H   H3083     1.0  0.64692  0.93033  0.82945  1.0000
  H   H3084     1.0  0.63249  0.50593  0.92317  1.0000
  H   H3085     1.0  0.38145  0.70747  0.76440  1.0000
  H   H3086     1.0  0.36178  0.74483  0.77079  1.0000
  H   H3087     1.0  0.36322  0.66163  0.77906  1.0000
  N   N95       1.0  0.43469  0.51417  0.89909  1.0000
  C   C1738     1.0  0.42483  0.51364  0.91360  1.0000
  C   C1739     1.0  0.46138  0.50779  0.89690  1.0000
  C   C1740     1.0  0.42828  0.53918  0.89199  1.0000
  C   C1741     1.0  0.42387  0.49837  0.89325  1.0000
  S   S403      1.0  0.64465  0.49310  0.89230  1.0000
  C   C1742     1.0  0.39752  0.51978  0.91720  1.0000
  C   C1743     1.0  0.44164  0.54533  0.87760  1.0000
  H   H3088     1.0  0.47579  0.48974  0.81698  1.0000
  H   H3089     1.0  0.33258  0.67403  0.82110  1.0000
  C   C1744     1.0  0.36853  0.73056  0.77848  1.0000
  N   N96       1.0  0.64692  0.91186  0.81376  1.0000
  C   C1745     1.0  0.43094  0.56951  0.87074  1.0000
  H   H3090     1.0  0.43274  0.52599  0.91747  1.0000
  H   H3091     1.0  0.63646  0.47985  0.96280  1.0000
  H   H3092     1.0  0.46799  0.50237  0.88705  1.0000
  H   H3093     1.0  0.46950  0.52354  0.89657  1.0000
  H   H3094     1.0  0.43152  0.55205  0.89759  1.0000
  H   H3095     1.0  0.40905  0.54332  0.89150  1.0000
  H   H3096     1.0  0.40466  0.50493  0.89345  1.0000
  H   H3097     1.0  0.43136  0.49906  0.88263  1.0000
  H   H3098     1.0  0.32103  0.97528  0.94797  1.0000
  H   H3099     1.0  0.38095  0.95019  0.97053  1.0000
  H   H3100     1.0  0.39084  0.53770  0.91221  1.0000
  H   H3101     1.0  0.64630  0.52079  0.75576  1.0000
  H   H3102     1.0  0.44113  0.53227  0.87152  1.0000
  H   H3103     1.0  0.46050  0.54586  0.87751  1.0000
  H   H3104     1.0  0.63024  0.86598  0.81986  1.0000
  C   C1746     1.0  0.33134  0.69812  0.78771  1.0000
  H   H3105     1.0  0.37716  0.94779  0.95058  1.0000
  H   H3106     1.0  0.64074  0.89260  0.79970  1.0000
  H   H3107     1.0  0.33570  0.61723  0.83535  1.0000
  H   H3108     1.0  0.32848  0.89543  0.76194  1.0000
  H   H3109     1.0  0.36765  0.96363  0.93584  1.0000
  H   H3110     1.0  0.64101  0.94454  0.79984  1.0000
  H   H3111     1.0  0.39709  0.53223  0.93546  1.0000
  H   H3112     1.0  0.36993  0.52349  0.93429  1.0000
  H   H3113     1.0  0.61273  0.95771  0.84076  1.0000
  C   C1747     1.0  0.38955  0.51912  0.93206  1.0000
  H   H3114     1.0  0.41226  0.56979  0.86996  1.0000
  H   H3115     1.0  0.43173  0.58346  0.87625  1.0000
  C   C1748     1.0  0.37048  0.70631  0.77443  1.0000
  H   H3116     1.0  0.44105  0.57347  0.86058  1.0000
  Fe  Fe205     1.0  0.37846  0.49544  0.86368  1.0000
  H   H3117     1.0  0.61815  0.55758  0.81183  1.0000
  C   C1749     1.0  0.63428  0.92265  0.82571  1.0000
  C   C1750     1.0  0.36766  0.97229  0.78487  1.0000
  C   C1751     1.0  0.32646  0.93022  0.81666  1.0000
  H   H3118     1.0  0.59040  0.50314  0.92517  1.0000
  H   H3119     1.0  0.34444  0.66365  0.79905  1.0000
  C   C1752     1.0  0.34166  0.68258  0.79975  1.0000
  H   H3120     1.0  0.35013  0.97137  0.76371  1.0000
  C   C1753     1.0  0.61931  0.52200  0.92437  1.0000
  H   H3121     1.0  0.64752  0.57801  0.83996  1.0000
  C   C1754     1.0  0.34109  0.49518  0.89519  1.0000
  Fe  Fe206     1.0  0.64506  0.52385  0.84245  1.0000
  C   C1755     1.0  0.32169  0.56705  0.87424  1.0000
  S   S404      1.0  0.33603  0.62029  0.78821  1.0000
  H   H3122     1.0  0.33987  0.97184  0.74372  1.0000
  H   H3123     1.0  0.34829  0.71998  0.75487  1.0000
  C   C1756     1.0  0.39744  0.97471  0.94081  1.0000
  H   H3124     1.0  0.40519  0.73448  0.77018  1.0000
  H   H3125     1.0  0.35252  0.63995  0.75648  1.0000
  H   H3126     1.0  0.34887  0.89554  0.77276  1.0000
  C   C1757     1.0  0.47268  0.48874  0.90745  1.0000
  H   H3127     1.0  0.32224  0.70424  0.81431  1.0000
  H   H3128     1.0  0.61295  0.51353  0.96454  1.0000
  H   H3129     1.0  0.42989  0.49608  0.91953  1.0000
  C   C1758     1.0  0.61385  0.55073  0.80365  1.0000
  Fe  Fe207     1.0  0.63430  0.50163  0.87163  1.0000
  H   H3130     1.0  0.43253  0.96500  0.92978  1.0000
  H   H3131     1.0  0.64598  0.52620  0.80163  1.0000
  H   H3132     1.0  0.60249  0.51223  0.94465  1.0000
  H   H3133     1.0  0.32474  0.70347  0.75980  1.0000
  H   H3134     1.0  0.47499  0.53537  0.82498  1.0000
  C   C1759     1.0  0.53160  0.50142  0.86173  1.0000
  C   C1760     1.0  0.37020  0.64452  0.75603  1.0000
  H   H3135     1.0  0.33869  0.55464  0.87429  1.0000
  C   C1761     1.0  0.32802  0.94945  0.82235  1.0000
  Fe  Fe208     1.0  0.40201  0.49379  0.83461  1.0000
  H   H3136     1.0  0.51419  0.50983  0.82520  1.0000
  H   H3137     1.0  0.60213  0.51726  0.90890  1.0000
  C   C1762     1.0  0.48683  0.53185  0.81562  1.0000
  H   H3138     1.0  0.64095  0.57457  0.78280  1.0000
  H   H3139     1.0  0.50857  0.49582  0.89950  1.0000
  H   H3140     1.0  0.62810  0.90915  0.83408  1.0000
  H   H3141     1.0  0.47590  0.53181  0.80815  1.0000
  H   H3142     1.0  0.38189  0.96557  0.77713  1.0000
  S   S405      1.0  0.34605  0.89135  0.80441  1.0000
  C   C1763     1.0  0.39275  0.73500  0.77970  1.0000
  H   H3143     1.0  0.49739  0.54632  0.81194  1.0000
  H   H3144     1.0  0.63123  0.53303  0.78752  1.0000
  H   H3145     1.0  0.51280  0.96070  0.85257  1.0000
  H   H3146     1.0  0.59927  0.93570  0.81980  1.0000
  S   S406      1.0  0.46597  0.48926  0.86098  1.0000
  H   H3147     1.0  0.65133  0.48337  0.77197  1.0000
  H   H3148     1.0  0.51514  0.50580  0.80849  1.0000
  H   H3149     1.0  0.61735  0.91540  0.80370  1.0000
  C   C1764     1.0  0.62365  0.52768  0.95992  1.0000
  C   C1765     1.0  0.60038  0.95028  0.83669  1.0000
  H   H3150     1.0  0.35608  0.93529  0.76054  1.0000
  H   H3151     1.0  0.59022  0.86201  0.81811  1.0000
  H   H3152     1.0  0.63831  0.52467  0.96562  1.0000
  H   H3153     1.0  0.38593  0.67383  0.75702  1.0000
  H   H3154     1.0  0.45957  0.94297  0.87630  1.0000
  C   C1766     1.0  0.63649  0.54063  0.79508  1.0000
  H   H3155     1.0  0.32746  0.53595  0.72673  1.0000
  H   H3156     1.0  0.60823  0.88843  0.82691  1.0000
  H   H3157     1.0  0.35928  0.89603  0.75532  1.0000
  H   H3158     1.0  0.40471  0.97548  0.94964  1.0000
  C   C1767     1.0  0.41550  0.95820  0.93276  1.0000
  H   H3159     1.0  0.34859  0.94416  0.78638  1.0000
  H   H3160     1.0  0.35686  0.73188  0.78814  1.0000
  C   C1768     1.0  0.59738  0.51917  0.91948  1.0000
  C   C1769     1.0  0.32332  0.51653  0.91789  1.0000
  H   H3161     1.0  0.61792  0.95795  0.81675  1.0000
  H   H3162     1.0  0.47863  0.49094  0.83319  1.0000
  H   H3163     1.0  0.60076  0.54282  0.93883  1.0000
  H   H3164     1.0  0.58719  0.48432  0.77723  1.0000
  H   H3165     1.0  0.64313  0.48845  0.72652  1.0000
  C   C1770     1.0  0.37332  0.96587  0.94496  1.0000
  C   C1771     1.0  0.60749  0.55115  0.96267  1.0000
  C   C1772     1.0  0.33139  0.97003  0.95620  1.0000
  H   H3166     1.0  0.40020  0.72161  0.78758  1.0000
  H   H3167     1.0  0.32418  0.75905  0.74825  1.0000
  H   H3168     1.0  0.59126  0.55400  0.95827  1.0000
  C   C1773     1.0  0.61316  0.52582  0.93890  1.0000
  C   C1774     1.0  0.64547  0.54732  0.93945  1.0000
  H   H3169     1.0  0.33496  0.93505  0.75015  1.0000
  C   C1775     1.0  0.33448  0.94266  0.95918  1.0000
  H   H3170     1.0  0.32983  0.53142  0.79536  1.0000
  S   S407      1.0  0.39779  0.96672  0.85624  1.0000
  C   C1776     1.0  0.49886  0.48061  0.90242  1.0000
  H   H3171     1.0  0.60931  0.48066  0.76275  1.0000
  H   H3172     1.0  0.41871  0.94025  0.93872  1.0000
  H   H3173     1.0  0.32374  0.74635  0.77257  1.0000
  S   S408      1.0  0.64086  0.95093  0.86251  1.0000
  H   H3174     1.0  0.37341  0.96567  0.79460  1.0000
  C   C1777     1.0  0.48913  0.48775  0.82343  1.0000
  H   H3175     1.0  0.32204  0.92100  0.92939  1.0000
  S   S409      1.0  0.46562  0.97574  0.84656  1.0000
  H   H3176     1.0  0.64117  0.54710  0.74372  1.0000
  C   C1778     1.0  0.32337  0.48639  0.90512  1.0000
  H   H3177     1.0  0.34092  0.97479  0.91643  1.0000
  C   C1779     1.0  0.33511  0.97424  0.77187  1.0000
  H   H3178     1.0  0.43286  0.97185  0.88879  1.0000
  C   C1780     1.0  0.45078  0.97561  0.88408  1.0000
  H   H3179     1.0  0.49407  0.47902  0.79828  1.0000
  H   H3180     1.0  0.32056  0.63312  0.81428  1.0000
  H   H3181     1.0  0.46295  0.97756  0.90187  1.0000
  H   H3182     1.0  0.92961  0.19674  0.00019  1.0000
  Fe  Fe209     1.0  0.74230  0.05045  0.18875  1.0000
  S   S410      1.0  0.70651  0.05785  0.20115  1.0000
  S   S411      1.0  0.75600  0.07112  0.16875  1.0000
  Fe  Fe210     1.0  0.70595  0.01906  0.20284  1.0000
  H   H3183     1.0  0.68282  0.06558  0.12487  1.0000
  H   H3184     1.0  0.90139  0.45421  0.02860  1.0000
  S   S412      1.0  0.74073  0.01239  0.18952  1.0000
  Fe  Fe211     1.0  0.74786  0.17264  0.09040  1.0000
  S   S413      1.0  0.72449  0.19491  0.07672  1.0000
  S   S414      1.0  0.78738  0.16973  0.08402  1.0000
  Fe  Fe212     1.0  0.70675  0.16687  0.11317  1.0000
  S   S415      1.0  0.68041  0.18993  0.10095  1.0000
  S   S416      1.0  0.69285  0.15124  0.13443  1.0000
  Fe  Fe213     1.0  0.69939  0.16884  0.08511  1.0000
  Fe  Fe214     1.0  0.70798  0.21379  0.09378  1.0000
  S   S417      1.0  0.70458  0.25394  0.08820  1.0000
  S   S418      1.0  0.72451  0.14478  0.09761  1.0000
  S   S419      1.0  0.73257  0.19238  0.10720  1.0000
  Fe  Fe215     1.0  0.78182  0.37573  0.10571  1.0000
  S   S420      1.0  0.76456  0.36277  0.12644  1.0000
  S   S421      1.0  0.81926  0.35965  0.09829  1.0000
  Fe  Fe216     1.0  0.73624  0.40513  0.09852  1.0000
  S   S422      1.0  0.71532  0.39364  0.11841  1.0000
  C   C1781     1.0  0.95439  0.42862  0.04175  1.0000
  Fe  Fe217     1.0  0.74596  0.40026  0.12642  1.0000
  S   S423      1.0  0.73513  0.42024  0.14391  1.0000
  Fe  Fe218     1.0  0.73588  0.35737  0.11662  1.0000
  S   S424      1.0  0.72167  0.32278  0.12350  1.0000
  S   S425      1.0  0.76581  0.41363  0.10642  1.0000
  S   S426      1.0  0.75408  0.36843  0.09599  1.0000
  Fe  Fe219     1.0  0.86604  0.13717  0.98786  1.0000
  S   S427      1.0  0.88756  0.11778  0.00348  1.0000
  H   H3185     1.0  0.65898  0.47342  0.10351  1.0000
  Fe  Fe220     1.0  0.86307  0.18443  0.99728  1.0000
  S   S428      1.0  0.88303  0.16793  0.01385  1.0000
  S   S429      1.0  0.85160  0.22395  0.99258  1.0000
  Fe  Fe221     1.0  0.90779  0.14826  0.99882  1.0000
  S   S430      1.0  0.94741  0.15000  0.99278  1.0000
  Fe  Fe222     1.0  0.86094  0.13936  0.01692  1.0000
  S   S431      1.0  0.84026  0.12141  0.03560  1.0000
  S   S432      1.0  0.88834  0.16602  0.98201  1.0000
  S   S433      1.0  0.83884  0.15754  0.00149  1.0000
  Fe  Fe223     1.0  0.88062  0.37021  0.99661  1.0000
  S   S434      1.0  0.89924  0.39010  0.00614  1.0000
  C   C1782     1.0  0.71243  0.47182  0.99540  1.0000
  Fe  Fe224     1.0  0.88766  0.32589  0.01748  1.0000
  S   S435      1.0  0.90658  0.34263  0.02887  1.0000
  S   S436      1.0  0.88122  0.28837  0.02602  1.0000
  Fe  Fe225     1.0  0.87845  0.37419  0.02517  1.0000
  S   S437      1.0  0.86035  0.39942  0.03905  1.0000
  Fe  Fe226     1.0  0.92629  0.35724  0.00910  1.0000
  S   S438      1.0  0.96591  0.35971  0.00348  1.0000
  S   S439      1.0  0.85786  0.35644  0.01551  1.0000
  S   S440      1.0  0.90939  0.33815  0.99784  1.0000
  H   H3186     1.0  0.66438  0.12958  0.21590  1.0000
  H   H3187     1.0  0.73265  0.45087  0.98070  1.0000
  C   C1783     1.0  0.94692  0.20449  0.02083  1.0000
  H   H3188     1.0  0.96971  0.34702  0.03165  1.0000
  C   C1784     1.0  0.68990  0.07068  0.14377  1.0000
  C   C1785     1.0  0.86064  0.24163  0.00171  1.0000
  C   C1786     1.0  0.86288  0.26513  0.99617  1.0000
  C   C1787     1.0  0.86936  0.27969  0.00345  1.0000
  C   C1788     1.0  0.87321  0.27092  0.01641  1.0000
  C   C1789     1.0  0.87068  0.24754  0.02198  1.0000
  C   C1790     1.0  0.86472  0.23287  0.01462  1.0000
  H   H3189     1.0  0.74187  0.46984  0.11314  1.0000
  H   H3190     1.0  0.87342  0.24072  0.03203  1.0000
  H   H3191     1.0  0.86283  0.21492  0.01905  1.0000
  C   C1791     1.0  0.96936  0.14873  0.00244  1.0000
  C   C1792     1.0  0.96718  0.13795  0.01572  1.0000
  H   H3192     1.0  0.95138  0.13069  0.02050  1.0000
  C   C1793     1.0  0.82967  0.37024  0.08159  1.0000
  C   C1794     1.0  0.82054  0.39281  0.07557  1.0000
  C   C1795     1.0  0.82993  0.40151  0.06244  1.0000
  C   C1796     1.0  0.84781  0.38737  0.05512  1.0000
  C   C1797     1.0  0.85619  0.36438  0.06094  1.0000
  C   C1798     1.0  0.84749  0.35601  0.07425  1.0000
  H   H3193     1.0  0.80676  0.40385  0.08116  1.0000
  H   H3194     1.0  0.82335  0.41928  0.05796  1.0000
  H   H3195     1.0  0.86981  0.35334  0.05529  1.0000
  H   H3196     1.0  0.85453  0.33851  0.07887  1.0000
  C   C1799     1.0  0.80070  0.15964  0.06919  1.0000
  C   C1800     1.0  0.78826  0.14939  0.06250  1.0000
  C   C1801     1.0  0.80038  0.13825  0.05185  1.0000
  C   C1802     1.0  0.82455  0.13882  0.04729  1.0000
  C   C1803     1.0  0.83657  0.15048  0.05344  1.0000
  C   C1804     1.0  0.82480  0.16032  0.06458  1.0000
  H   H3197     1.0  0.76961  0.14898  0.06594  1.0000
  H   H3198     1.0  0.79115  0.12886  0.04725  1.0000
  H   H3199     1.0  0.85532  0.15053  0.05014  1.0000
  H   H3200     1.0  0.83455  0.16799  0.06982  1.0000
  C   C1805     1.0  0.71172  0.27189  0.09797  1.0000
  C   C1806     1.0  0.71751  0.29420  0.09197  1.0000
  C   C1807     1.0  0.72157  0.30965  0.09958  1.0000
  C   C1808     1.0  0.71932  0.30311  0.11332  1.0000
  C   C1809     1.0  0.71401  0.28065  0.11926  1.0000
  C   C1810     1.0  0.71048  0.26500  0.11162  1.0000
  H   H3201     1.0  0.71872  0.29956  0.08139  1.0000
  H   H3202     1.0  0.72580  0.32684  0.09492  1.0000
  H   H3203     1.0  0.71225  0.27542  0.12988  1.0000
  H   H3204     1.0  0.70596  0.24792  0.11637  1.0000
  H   H3205     1.0  0.65620  0.10451  0.01544  1.0000
  C   C1811     1.0  0.73927  0.45029  0.15992  1.0000
  C   C1812     1.0  0.75086  0.43802  0.14959  1.0000
  C   C1813     1.0  0.77457  0.43962  0.14445  1.0000
  H   H3206     1.0  0.71316  0.09818  0.21280  1.0000
  S   S441      1.0  0.71113  0.01446  0.97791  1.0000
  H   H3207     1.0  0.78377  0.43025  0.13654  1.0000
  C   C1814     1.0  0.68443  0.46009  0.07263  1.0000
  C   C1815     1.0  0.73817  0.09373  0.15958  1.0000
  C   C1816     1.0  0.71458  0.10170  0.16465  1.0000
  C   C1817     1.0  0.70085  0.11951  0.15690  1.0000
  C   C1818     1.0  0.71063  0.12942  0.14406  1.0000
  C   C1819     1.0  0.73428  0.12169  0.13909  1.0000
  C   C1820     1.0  0.74800  0.10390  0.14682  1.0000
  H   H3208     1.0  0.70689  0.09404  0.17447  1.0000
  H   H3209     1.0  0.68256  0.12556  0.16082  1.0000
  H   H3210     1.0  0.74181  0.12948  0.12927  1.0000
  H   H3211     1.0  0.76631  0.09796  0.14293  1.0000
  C   C1821     1.0  0.83328  0.42201  0.98752  1.0000
  H   H3212     1.0  0.79408  0.15622  0.02192  1.0000
  H   H3213     1.0  0.73846  0.99597  0.16290  1.0000
  H   H3214     1.0  0.68058  0.41575  0.09913  1.0000
  H   H3215     1.0  0.92806  0.17770  0.04451  1.0000
  H   H3216     1.0  0.91064  0.43093  0.05671  1.0000
  H   H3217     1.0  0.65882  0.37873  0.10570  1.0000
  H   H3218     1.0  0.90984  0.34285  0.06029  1.0000
  H   H3219     1.0  0.95524  0.30574  0.01318  1.0000
  C   C1822     1.0  0.74697  0.47117  0.02332  1.0000
  C   C1823     1.0  0.67614  0.01906  0.99963  1.0000
  C   C1824     1.0  0.68897  0.03085  0.98820  1.0000
  C   C1825     1.0  0.68354  0.05537  0.98503  1.0000
  C   C1826     1.0  0.71474  0.45309  0.98687  1.0000
  N   N97       1.0  0.93477  0.41621  0.04078  1.0000
  C   C1827     1.0  0.91129  0.42988  0.04615  1.0000
  C   C1828     1.0  0.93511  0.41268  0.02685  1.0000
  C   C1829     1.0  0.94486  0.43153  0.01534  1.0000
  H   H3220     1.0  0.98349  0.40092  0.04755  1.0000
  H   H3221     1.0  0.70148  0.45868  0.98017  1.0000
  H   H3222     1.0  0.96436  0.42943  0.01426  1.0000
  H   H3223     1.0  0.89657  0.42061  0.04605  1.0000
  H   H3224     1.0  0.94594  0.39546  0.02496  1.0000
  H   H3225     1.0  0.91701  0.41137  0.02561  1.0000
  H   H3226     1.0  0.94328  0.24644  0.99256  1.0000
  C   C1830     1.0  0.78669  0.45277  0.14985  1.0000
  H   H3227     1.0  0.91197  0.37814  0.04248  1.0000
  H   H3228     1.0  0.66019  0.43693  0.12025  1.0000
  C   C1831     1.0  0.88094  0.46721  0.04567  1.0000
  H   H3229     1.0  0.69741  0.01363  0.16094  1.0000
  H   H3230     1.0  0.92843  0.29462  0.02071  1.0000
  H   H3231     1.0  0.92348  0.20390  0.97724  1.0000
  H   H3232     1.0  0.94795  0.44181  0.99406  1.0000
  N   N98       1.0  0.95215  0.22640  0.01115  1.0000
  H   H3233     1.0  0.72776  0.44738  0.01121  1.0000
  N   N99       1.0  0.78435  0.23606  0.02769  1.0000
  C   C1832     1.0  0.77535  0.21317  0.02907  1.0000
  C   C1833     1.0  0.76519  0.25413  0.03376  1.0000
  C   C1834     1.0  0.79056  0.24549  0.01309  1.0000
  C   C1835     1.0  0.80638  0.23243  0.03363  1.0000
  C   C1836     1.0  0.80390  0.22262  0.04859  1.0000
  C   C1837     1.0  0.79321  0.19255  0.02374  1.0000
  C   C1838     1.0  0.79792  0.27035  0.00940  1.0000
  C   C1839     1.0  0.74679  0.24491  0.04567  1.0000
  C   C1840     1.0  0.73100  0.26517  0.05188  1.0000
  C   C1841     1.0  0.82771  0.21873  0.05318  1.0000
  C   C1842     1.0  0.78077  0.17175  0.02432  1.0000
  C   C1843     1.0  0.80053  0.27921  0.99449  1.0000
  H   H3234     1.0  0.75962  0.21643  0.02411  1.0000
  H   H3235     1.0  0.76910  0.20599  0.03958  1.0000
  H   H3236     1.0  0.77326  0.26738  0.03677  1.0000
  H   H3237     1.0  0.75425  0.26437  0.02629  1.0000
  H   H3238     1.0  0.77543  0.24598  0.00805  1.0000
  H   H3239     1.0  0.80563  0.23368  0.00830  1.0000
  H   H3240     1.0  0.82089  0.22068  0.02835  1.0000
  H   H3241     1.0  0.81303  0.24935  0.03223  1.0000
  H   H3242     1.0  0.79727  0.20559  0.05109  1.0000
  H   H3243     1.0  0.79174  0.23548  0.05421  1.0000
  H   H3244     1.0  0.80156  0.19755  0.01332  1.0000
  H   H3245     1.0  0.80737  0.18630  0.02985  1.0000
  H   H3246     1.0  0.81524  0.26979  0.01225  1.0000
  H   H3247     1.0  0.78482  0.28365  0.01428  1.0000
  H   H3248     1.0  0.73509  0.23554  0.04227  1.0000
  H   H3249     1.0  0.75518  0.23250  0.05350  1.0000
  H   H3250     1.0  0.71703  0.25813  0.05969  1.0000
  H   H3251     1.0  0.74147  0.27399  0.05647  1.0000
  H   H3252     1.0  0.72224  0.27827  0.04437  1.0000
  H   H3253     1.0  0.82535  0.21242  0.06403  1.0000
  H   H3254     1.0  0.84055  0.20528  0.04820  1.0000
  H   H3255     1.0  0.83501  0.23543  0.05096  1.0000
  H   H3256     1.0  0.75677  0.44228  0.21650  1.0000
  H   H3257     1.0  0.73340  0.13435  0.05186  1.0000
  S   S442      1.0  0.67219  0.00836  0.19979  1.0000
  H   H3258     1.0  0.80693  0.29641  0.99205  1.0000
  H   H3259     1.0  0.81357  0.26658  0.98903  1.0000
  H   H3260     1.0  0.78328  0.28167  0.99116  1.0000
  N   N100      1.0  0.80240  0.09203  0.09444  1.0000
  C   C1844     1.0  0.77827  0.10082  0.09062  1.0000
  C   C1845     1.0  0.80804  0.10876  0.10209  1.0000
  C   C1846     1.0  0.82037  0.09188  0.08181  1.0000
  C   C1847     1.0  0.80437  0.06719  0.10213  1.0000
  C   C1848     1.0  0.78699  0.06295  0.11533  1.0000
  C   C1849     1.0  0.77102  0.08722  0.08131  1.0000
  C   C1850     1.0  0.84683  0.08746  0.08329  1.0000
  C   C1851     1.0  0.78728  0.12066  0.11160  1.0000
  C   C1852     1.0  0.79621  0.13422  0.11999  1.0000
  C   C1853     1.0  0.78819  0.03663  0.12086  1.0000
  C   C1854     1.0  0.74576  0.09691  0.07888  1.0000
  C   C1855     1.0  0.86294  0.08733  0.06984  1.0000
  H   H3261     1.0  0.77719  0.11956  0.08567  1.0000
  H   H3262     1.0  0.76415  0.10109  0.09944  1.0000
  H   H3263     1.0  0.82232  0.09975  0.10783  1.0000
  H   H3264     1.0  0.81515  0.12383  0.09513  1.0000
  H   H3265     1.0  0.81721  0.10900  0.07499  1.0000
  H   H3266     1.0  0.81845  0.07813  0.07644  1.0000
  H   H3267     1.0  0.80277  0.05472  0.09584  1.0000
  H   H3268     1.0  0.82227  0.06121  0.10478  1.0000
  H   H3269     1.0  0.76840  0.07015  0.11426  1.0000
  H   H3270     1.0  0.79198  0.07093  0.12284  1.0000
  H   H3271     1.0  0.78264  0.08910  0.07149  1.0000
  H   H3272     1.0  0.77188  0.06825  0.08561  1.0000
  H   H3273     1.0  0.85170  0.07020  0.08955  1.0000
  H   H3274     1.0  0.85088  0.10146  0.08771  1.0000
  H   H3275     1.0  0.77484  0.13349  0.10591  1.0000
  H   H3276     1.0  0.77700  0.10786  0.11831  1.0000
  H   H3277     1.0  0.80606  0.14788  0.11353  1.0000
  H   H3278     1.0  0.78098  0.14322  0.12634  1.0000
  H   H3279     1.0  0.80787  0.12204  0.12645  1.0000
  H   H3280     1.0  0.78250  0.02759  0.11404  1.0000
  H   H3281     1.0  0.80644  0.02839  0.12238  1.0000
  H   H3282     1.0  0.77622  0.03419  0.13055  1.0000
  H   H3283     1.0  0.74112  0.08709  0.07208  1.0000
  H   H3284     1.0  0.73297  0.09491  0.08827  1.0000
  H   H3285     1.0  0.74407  0.11585  0.07431  1.0000
  H   H3286     1.0  0.85957  0.10462  0.06328  1.0000
  H   H3287     1.0  0.88174  0.08395  0.07112  1.0000
  H   H3288     1.0  0.86004  0.07334  0.06497  1.0000
  H   H3289     1.0  0.71214  0.05241  0.12790  1.0000
  H   H3290     1.0  0.73075  0.19146  0.16038  1.0000
  S   S443      1.0  0.68216  0.15725  0.07030  1.0000
  C   C1856     1.0  0.69183  0.44113  0.08221  1.0000
  S   S444      1.0  0.72214  0.00929  0.22145  1.0000
  C   C1857     1.0  0.72467  0.18271  0.21622  1.0000
  H   H3291     1.0  0.68032  0.00009  0.00222  1.0000
  H   H3292     1.0  0.69409  0.10578  0.12186  1.0000
  H   H3293     1.0  0.70365  0.17806  0.18101  1.0000
  N   N101      1.0  0.79627  0.29316  0.08634  1.0000
  C   C1858     1.0  0.78565  0.31089  0.07560  1.0000
  C   C1859     1.0  0.78428  0.27159  0.09004  1.0000
  C   C1860     1.0  0.79161  0.30475  0.09841  1.0000
  C   C1861     1.0  0.82269  0.28634  0.08253  1.0000
  C   C1862     1.0  0.83159  0.27666  0.06943  1.0000
  C   C1863     1.0  0.79714  0.33346  0.07054  1.0000
  C   C1864     1.0  0.79875  0.28880  0.11123  1.0000
  C   C1865     1.0  0.77641  0.26308  0.07884  1.0000
  C   C1866     1.0  0.76971  0.23850  0.08351  1.0000
  C   C1867     1.0  0.85831  0.27548  0.06522  1.0000
  C   C1868     1.0  0.78625  0.34937  0.05912  1.0000
  C   C1869     1.0  0.79275  0.30246  0.12269  1.0000
  H   H3294     1.0  0.76643  0.31649  0.07910  1.0000
  H   H3295     1.0  0.78645  0.30304  0.06677  1.0000
  H   H3296     1.0  0.79575  0.25645  0.09516  1.0000
  H   H3297     1.0  0.76773  0.27473  0.09738  1.0000
  H   H3298     1.0  0.77247  0.31225  0.10077  1.0000
  H   H3299     1.0  0.80123  0.31986  0.09651  1.0000
  H   H3300     1.0  0.83171  0.30150  0.08218  1.0000
  H   H3301     1.0  0.82985  0.27241  0.09028  1.0000
  H   H3302     1.0  0.82333  0.28774  0.06115  1.0000
  H   H3303     1.0  0.82790  0.25845  0.07082  1.0000
  H   H3304     1.0  0.79463  0.34400  0.07846  1.0000
  H   H3305     1.0  0.81634  0.32901  0.06685  1.0000
  H   H3306     1.0  0.81805  0.28227  0.10986  1.0000
  H   H3307     1.0  0.78929  0.27347  0.11428  1.0000
  H   H3308     1.0  0.76058  0.27531  0.07586  1.0000
  H   H3309     1.0  0.79024  0.26246  0.06996  1.0000
  H   H3310     1.0  0.78556  0.22512  0.08529  1.0000
  H   H3311     1.0  0.75648  0.23797  0.09278  1.0000
  H   H3312     1.0  0.76179  0.23372  0.07591  1.0000
  H   H3313     1.0  0.86299  0.29346  0.06308  1.0000
  H   H3314     1.0  0.86779  0.26436  0.07307  1.0000
  H   H3315     1.0  0.86431  0.26772  0.05607  1.0000
  H   H3316     1.0  0.79473  0.36541  0.05592  1.0000
  H   H3317     1.0  0.78923  0.34015  0.05055  1.0000
  H   H3318     1.0  0.76704  0.35496  0.06225  1.0000
  H   H3319     1.0  0.77343  0.30880  0.12484  1.0000
  H   H3320     1.0  0.79816  0.29083  0.13171  1.0000
  H   H3321     1.0  0.80225  0.31779  0.12032  1.0000
  H   H3322     1.0  0.91857  0.23859  0.00421  1.0000
  C   C1870     1.0  0.73699  0.15063  0.20222  1.0000
  H   H3323     1.0  0.87114  0.29775  0.99908  1.0000
  C   C1871     1.0  0.67632  0.11234  0.21584  1.0000
  H   H3324     1.0  0.79672  0.45569  0.19499  1.0000
  H   H3325     1.0  0.74719  0.00290  0.14513  1.0000
  H   H3326     1.0  0.90917  0.20729  0.01993  1.0000
  N   N102      1.0  0.69088  0.09165  0.03363  1.0000
  C   C1872     1.0  0.71354  0.09903  0.03475  1.0000
  C   C1873     1.0  0.69534  0.07685  0.02287  1.0000
  H   H3327     1.0  0.67037  0.32718  0.10145  1.0000
  C   C1874     1.0  0.67955  0.07883  0.04666  1.0000
  C   C1875     1.0  0.69374  0.05528  0.05254  1.0000
  C   C1876     1.0  0.71155  0.11543  0.04493  1.0000
  C   C1877     1.0  0.73072  0.46459  0.00491  1.0000
  C   C1878     1.0  0.71952  0.06019  0.02091  1.0000
  C   C1879     1.0  0.71994  0.04370  0.01137  1.0000
  C   C1880     1.0  0.68184  0.04623  0.06659  1.0000
  C   C1881     1.0  0.73543  0.12247  0.04460  1.0000
  N   N103      1.0  0.78153  0.41088  0.19905  1.0000
  H   H3328     1.0  0.72144  0.10819  0.02490  1.0000
  H   H3329     1.0  0.72704  0.08355  0.03741  1.0000
  H   H3330     1.0  0.68087  0.06628  0.02435  1.0000
  H   H3331     1.0  0.69479  0.08840  0.01302  1.0000
  H   H3332     1.0  0.95335  0.24222  0.02790  1.0000
  C   C1882     1.0  0.68059  0.35503  0.07758  1.0000
  H   H3333     1.0  0.67507  0.09043  0.05420  1.0000
  C   C1883     1.0  0.65967  0.44705  0.12822  1.0000
  H   H3334     1.0  0.71194  0.05712  0.05306  1.0000
  H   H3335     1.0  0.69432  0.04168  0.04651  1.0000
  C   C1884     1.0  0.66229  0.11788  0.08416  1.0000
  H   H3336     1.0  0.70561  0.10646  0.05513  1.0000
  H   H3337     1.0  0.76854  0.17628  0.01704  1.0000
  C   C1885     1.0  0.65763  0.03167  0.00762  1.0000
  H   H3338     1.0  0.73388  0.07076  0.01659  1.0000
  H   H3339     1.0  0.72390  0.04921  0.03026  1.0000
  H   H3340     1.0  0.72101  0.44897  0.16407  1.0000
  H   H3341     1.0  0.73740  0.03209  0.01007  1.0000
  H   H3342     1.0  0.70609  0.03241  0.01526  1.0000
  H   H3343     1.0  0.69201  0.02906  0.07053  1.0000
  H   H3344     1.0  0.68108  0.05892  0.07322  1.0000
  H   H3345     1.0  0.86654  0.45696  0.04645  1.0000
  H   H3346     1.0  0.71703  0.05401  0.00154  1.0000
  N   N104      1.0  0.67033  0.46907  0.12241  1.0000
  C   C1886     1.0  0.88064  0.02884  0.97645  1.0000
  H   H3347     1.0  0.81047  0.09536  0.18576  1.0000
  C   C1887     1.0  0.69795  0.06780  0.12908  1.0000
  H   H3348     1.0  0.69903  0.13202  0.04280  1.0000
  H   H3349     1.0  0.70576  0.12530  0.21924  1.0000
  H   H3350     1.0  0.70420  0.07671  0.14703  1.0000
  H   H3351     1.0  0.98203  0.20650  0.00011  1.0000
  C   C1888     1.0  0.93791  0.39243  0.04969  1.0000
  H   H3352     1.0  0.85967  0.27210  0.98620  1.0000
  S   S445      1.0  0.76183  0.04305  0.20595  1.0000
  H   H3353     1.0  0.69315  0.14531  0.19690  1.0000
  C   C1889     1.0  0.70213  0.11587  0.21195  1.0000
  C   C1890     1.0  0.93754  0.21116  0.99324  1.0000
  H   H3354     1.0  0.89784  0.03502  0.97504  1.0000
  C   C1891     1.0  0.91756  0.37803  0.05194  1.0000
  H   H3355     1.0  0.90204  0.38563  0.05873  1.0000
  H   H3356     1.0  0.67227  0.11760  0.09179  1.0000
  C   C1892     1.0  0.70211  0.02828  0.15282  1.0000
  H   H3357     1.0  0.77768  0.12336  0.17714  1.0000
  N   N105      1.0  0.73150  0.13628  0.19319  1.0000
  C   C1893     1.0  0.67387  0.11386  0.02974  1.0000
  H   H3358     1.0  0.70407  0.11862  0.19090  1.0000
  H   H3359     1.0  0.69000  0.42506  0.13662  1.0000
  H   H3360     1.0  0.70289  0.46413  0.03848  1.0000
  H   H3361     1.0  0.72386  0.09157  0.12384  1.0000
  H   H3362     1.0  0.89850  0.18151  0.04102  1.0000
  C   C1894     1.0  0.92500  0.35248  0.05836  1.0000
  H   H3363     1.0  0.86634  0.04439  0.97696  1.0000
  H   H3364     1.0  0.95204  0.43275  0.05189  1.0000
  H   H3365     1.0  0.79095  0.08546  0.20066  1.0000
  H   H3366     1.0  0.93969  0.34345  0.05172  1.0000
  H   H3367     1.0  0.66609  0.08399  0.18627  1.0000
  H   H3368     1.0  0.92690  0.25172  0.02142  1.0000
  H   H3369     1.0  0.95435  0.28445  0.02833  1.0000
  H   H3370     1.0  0.78772  0.46785  0.03429  1.0000
  H   H3371     1.0  0.66244  0.00653  0.15958  1.0000
  H   H3372     1.0  0.73882  0.46112  0.09808  1.0000
  H   H3373     1.0  0.67443  0.03851  0.17446  1.0000
  H   H3374     1.0  0.95317  0.18862  0.01606  1.0000
  H   H3375     1.0  0.91459  0.21865  0.03349  1.0000
  H   H3376     1.0  0.76183  0.01296  0.15594  1.0000
  H   H3377     1.0  0.95430  0.38110  0.04566  1.0000
  H   H3378     1.0  0.92287  0.16638  0.03077  1.0000
  H   H3379     1.0  0.69388  0.45661  0.02470  1.0000
  C   C1895     1.0  0.95523  0.27001  0.01061  1.0000
  H   H3380     1.0  0.67872  0.31239  0.07398  1.0000
  H   H3381     1.0  0.91781  0.46621  0.03777  1.0000
  C   C1896     1.0  0.91743  0.18107  0.03649  1.0000
  H   H3382     1.0  0.79259  0.42273  0.21478  1.0000
  H   H3383     1.0  0.94775  0.27622  0.00137  1.0000
  H   H3384     1.0  0.94034  0.39442  0.05964  1.0000
  H   H3385     1.0  0.93064  0.35179  0.06792  1.0000
  H   H3386     1.0  0.66356  0.04361  0.06664  1.0000
  H   H3387     1.0  0.80793  0.45017  0.99494  1.0000
  H   H3388     1.0  0.68300  0.12606  0.02158  1.0000
  H   H3389     1.0  0.71793  0.37097  0.05909  1.0000
  H   H3390     1.0  0.82089  0.43657  0.18695  1.0000
  C   C1897     1.0  0.70718  0.12958  0.19764  1.0000
  H   H3391     1.0  0.97476  0.26728  0.00802  1.0000
  C   C1898     1.0  0.66492  0.06791  0.99291  1.0000
  C   C1899     1.0  0.66834  0.98833  0.19008  1.0000
  S   S446      1.0  0.72230  0.43150  0.08187  1.0000
  C   C1900     1.0  0.71611  0.37583  0.06897  1.0000
  H   H3392     1.0  0.72258  0.39282  0.06760  1.0000
  H   H3393     1.0  0.69348  0.06473  0.97644  1.0000
  H   H3394     1.0  0.81838  0.45158  0.21359  1.0000
  H   H3395     1.0  0.74436  0.10139  0.18832  1.0000
  H   H3396     1.0  0.74196  0.13208  0.03464  1.0000
  C   C1901     1.0  0.92071  0.20454  0.02741  1.0000
  N   N106      1.0  0.68252  0.04929  0.15322  1.0000
  H   H3397     1.0  0.68949  0.38382  0.08542  1.0000
  H   H3398     1.0  0.72730  0.36219  0.07506  1.0000
  H   H3399     1.0  0.66751  0.12358  0.03814  1.0000
  H   H3400     1.0  0.81014  0.39383  0.18586  1.0000
  C   C1902     1.0  0.69034  0.37835  0.07588  1.0000
  H   H3401     1.0  0.78643  0.37268  0.20425  1.0000
  H   H3402     1.0  0.78733  0.08006  0.18489  1.0000
  H   H3403     1.0  0.79686  0.42230  0.17858  1.0000
  H   H3404     1.0  0.71166  0.43593  0.99315  1.0000
  Fe  Fe227     1.0  0.75721  0.00537  0.20785  1.0000
  C   C1903     1.0  0.79286  0.40581  0.18541  1.0000
  C   C1904     1.0  0.79196  0.09285  0.18996  1.0000
  H   H3405     1.0  0.71147  0.08785  0.11021  1.0000
  H   H3406     1.0  0.85489  0.99512  0.97607  1.0000
  H   H3407     1.0  0.78144  0.38114  0.16020  1.0000
  H   H3408     1.0  0.80150  0.40115  0.15927  1.0000
  H   H3409     1.0  0.69389  0.34035  0.08147  1.0000
  H   H3410     1.0  0.77482  0.44840  0.01216  1.0000
  H   H3411     1.0  0.81480  0.40369  0.20606  1.0000
  C   C1905     1.0  0.77542  0.11645  0.18792  1.0000
  H   H3412     1.0  0.77078  0.37956  0.18459  1.0000
  C   C1906     1.0  0.94641  0.24702  0.01842  1.0000
  C   C1907     1.0  0.93736  0.23184  0.00035  1.0000
  C   C1908     1.0  0.79292  0.38670  0.16579  1.0000
  H   H3413     1.0  0.75390  0.15731  0.19804  1.0000
  H   H3414     1.0  0.74831  0.46064  0.99862  1.0000
  C   C1909     1.0  0.66011  0.40743  0.14342  1.0000
  S   S447      1.0  0.85888  0.11506  0.97388  1.0000
  C   C1910     1.0  0.77800  0.39496  0.17827  1.0000
  C   C1911     1.0  0.67496  0.43027  0.09167  1.0000
  C   C1912     1.0  0.71842  0.17934  0.16043  1.0000
  H   H3415     1.0  0.93750  0.44974  0.01695  1.0000
  C   C1913     1.0  0.74563  0.43737  0.21055  1.0000
  H   H3416     1.0  0.70692  0.45240  0.12289  1.0000
  C   C1914     1.0  0.98499  0.35471  0.02638  1.0000
  H   H3417     1.0  0.76298  0.40830  0.17518  1.0000
  H   H3418     1.0  0.80679  0.37150  0.16841  1.0000
  C   C1915     1.0  0.71860  0.17252  0.20529  1.0000
  H   H3419     1.0  0.87849  0.01635  0.98598  1.0000
  H   H3420     1.0  0.74058  0.45511  0.02945  1.0000
  H   H3421     1.0  0.95571  0.20388  0.98886  1.0000
  C   C1916     1.0  0.71209  0.16539  0.17432  1.0000
  C   C1917     1.0  0.72671  0.03246  0.15426  1.0000
  H   H3422     1.0  0.70422  0.02105  0.14358  1.0000
  H   H3423     1.0  0.75640  0.38662  0.20603  1.0000
  H   H3424     1.0  0.72571  0.03895  0.16356  1.0000
  H   H3425     1.0  0.73381  0.04551  0.14590  1.0000
  H   H3426     1.0  0.69879  0.15465  0.17386  1.0000
  C   C1918     1.0  0.74925  0.11369  0.19367  1.0000
  C   C1919     1.0  0.81068  0.44021  0.19666  1.0000
  C   C1920     1.0  0.66030  0.46823  0.07247  1.0000
  H   H3427     1.0  0.76551  0.44589  0.19076  1.0000
  H   H3428     1.0  0.69612  0.44932  0.10906  1.0000
  H   H3429     1.0  0.66235  0.07460  0.04585  1.0000
  H   H3430     1.0  0.74904  0.10423  0.20398  1.0000
  H   H3431     1.0  0.71872  0.18649  0.19640  1.0000
  H   H3432     1.0  0.68007  0.39284  0.06968  1.0000
  C   C1921     1.0  0.90426  0.45504  0.03860  1.0000
  C   C1922     1.0  0.73421  0.14906  0.17899  1.0000
  H   H3433     1.0  0.95706  0.20145  0.02907  1.0000
  C   C1923     1.0  0.75122  0.46392  0.16510  1.0000
  H   H3434     1.0  0.74764  0.42424  0.19287  1.0000
  H   H3435     1.0  0.73954  0.13611  0.17206  1.0000
  H   H3436     1.0  0.70213  0.18998  0.15708  1.0000
  C   C1924     1.0  0.82775  0.44688  0.20393  1.0000
  C   C1925     1.0  0.67679  0.05476  0.16706  1.0000
  C   C1926     1.0  0.94790  0.28982  0.01875  1.0000
  H   H3437     1.0  0.74885  0.15954  0.17683  1.0000
  H   H3438     1.0  0.73473  0.47410  0.20238  1.0000
  C   C1927     1.0  0.76030  0.42994  0.19762  1.0000
  C   C1928     1.0  0.92319  0.21913  0.98204  1.0000
  H   H3439     1.0  0.77059  0.16681  0.03435  1.0000
  H   H3440     1.0  0.97444  0.35362  0.97634  1.0000
  C   C1929     1.0  0.66142  0.31111  0.08055  1.0000
  H   H3441     1.0  0.95368  0.44603  0.03519  1.0000
  H   H3442     1.0  0.78093  0.43864  0.03561  1.0000
  H   H3443     1.0  0.66302  0.39837  0.13481  1.0000
  C   C1930     1.0  0.78791  0.45371  0.02871  1.0000
  C   C1931     1.0  0.67074  0.43010  0.13953  1.0000
  H   H3444     1.0  0.72672  0.16725  0.15330  1.0000
  C   C1932     1.0  0.79984  0.41854  0.20476  1.0000
  H   H3445     1.0  0.69193  0.06088  0.16942  1.0000
  H   H3446     1.0  0.98196  0.40541  0.03032  1.0000
  H   H3447     1.0  0.67249  0.36091  0.12731  1.0000
  H   H3448     1.0  0.84011  0.41576  0.99667  1.0000
  C   C1933     1.0  0.74459  0.00961  0.15455  1.0000
  C   C1934     1.0  0.93939  0.42919  0.00213  1.0000
  H   H3449     1.0  0.74871  0.10669  0.04718  1.0000
  H   H3450     1.0  0.74003  0.13926  0.21183  1.0000
  H   H3451     1.0  0.78151  0.12853  0.19282  1.0000
  C   C1935     1.0  0.81488  0.44148  0.98654  1.0000
  H   H3452     1.0  0.92003  0.43330  0.00221  1.0000
  C   C1936     1.0  0.77424  0.38839  0.20748  1.0000
  H   H3453     1.0  0.80653  0.44748  0.02438  1.0000
  H   H3454     1.0  0.68686  0.35897  0.10432  1.0000
  H   H3455     1.0  0.71470  0.45484  0.20161  1.0000
  C   C1937     1.0  0.66136  0.04335  0.14930  1.0000
  H   H3456     1.0  0.74209  0.47312  0.17309  1.0000
  C   C1938     1.0  0.69544  0.46211  0.11567  1.0000
  H   H3457     1.0  0.66471  0.30186  0.09051  1.0000
  C   C1939     1.0  0.66349  0.13561  0.07296  1.0000
  H   H3458     1.0  0.80520  0.45340  0.14600  1.0000
  H   H3459     1.0  0.68063  0.35276  0.06729  1.0000
  C   C1940     1.0  0.66744  0.36008  0.10752  1.0000
  H   H3460     1.0  0.80887  0.18330  0.97554  1.0000
  C   C1941     1.0  0.97979  0.41456  0.03882  1.0000
  H   H3461     1.0  0.71567  0.46301  0.21712  1.0000
  H   H3462     1.0  0.84252  0.43208  0.20558  1.0000
  S   S448      1.0  0.78150  0.47375  0.97461  1.0000
  C   C1942     1.0  0.70742  0.08961  0.12079  1.0000
  H   H3463     1.0  0.67508  0.08582  0.14386  1.0000
  H   H3464     1.0  0.70051  0.16832  0.20877  1.0000
  H   H3465     1.0  0.66314  0.99664  0.97747  1.0000
  H   H3466     1.0  0.83526  0.46241  0.19790  1.0000
  Fe  Fe228     1.0  0.72585  0.04769  0.21860  1.0000
  C   C1943     1.0  0.72650  0.45860  0.20767  1.0000
  H   H3467     1.0  0.88265  0.46903  0.05574  1.0000
  H   H3468     1.0  0.90452  0.22591  0.98592  1.0000
  H   H3469     1.0  0.94626  0.41110  0.99999  1.0000
  C   C1944     1.0  0.65481  0.07380  0.17002  1.0000
  C   C1945     1.0  0.77515  0.46498  0.16021  1.0000
  C   C1946     1.0  0.81034  0.12566  0.97369  1.0000
  H   H3470     1.0  0.67168  0.10277  0.20892  1.0000
  H   H3471     1.0  0.69526  0.46045  0.14409  1.0000
  H   H3472     1.0  0.73652  0.42281  0.21649  1.0000
  H   H3473     1.0  0.66880  0.39536  0.15132  1.0000
  H   H3474     1.0  0.66053  0.08684  0.99016  1.0000
  C   C1947     1.0  0.69407  0.47132  0.02975  1.0000
  H   H3475     1.0  0.80990  0.13976  0.97894  1.0000
  C   C1948     1.0  0.97792  0.22232  0.00492  1.0000
  H   H3476     1.0  0.66029  0.46742  0.04245  1.0000
  C   C1949     1.0  0.66300  0.35153  0.12246  1.0000
  H   H3477     1.0  0.65706  0.09104  0.16364  1.0000
  H   H3478     1.0  0.74257  0.18771  0.21330  1.0000
  C   C1950     1.0  0.77328  0.46299  0.01766  1.0000
  H   H3479     1.0  0.66640  0.03766  0.13949  1.0000
  H   H3480     1.0  0.66712  0.43842  0.14846  1.0000
  H   H3481     1.0  0.71161  0.19868  0.21811  1.0000
  H   H3482     1.0  0.98436  0.12662  0.03282  1.0000
  H   H3483     1.0  0.66967  0.33234  0.12489  1.0000
  C   C1951     1.0  0.65818  0.34432  0.10030  1.0000
  H   H3484     1.0  0.98204  0.23709  0.99674  1.0000
  H   H3485     1.0  0.83350  0.19654  0.97646  1.0000
  H   H3486     1.0  0.66061  0.27790  0.07490  1.0000
  N   N107      1.0  0.65643  0.35336  0.08593  1.0000
  H   H3487     1.0  0.69743  0.46857  0.06531  1.0000
  S   S449      1.0  0.86597  0.38597  0.97759  1.0000
  C   C1952     1.0  0.84285  0.41073  0.97666  1.0000
  C   C1953     1.0  0.80565  0.44992  0.97477  1.0000
  H   H3488     1.0  0.93076  0.23310  0.97447  1.0000
  C   C1954     1.0  0.73425  0.47563  0.10390  1.0000
  H   H3489     1.0  0.78333  0.98725  0.97334  1.0000
  H   H3490     1.0  0.70518  0.97850  0.18261  1.0000
  C   C1955     1.0  0.98596  0.13561  0.02266  1.0000
  H   H3491     1.0  0.84123  0.47698  0.22134  1.0000
  H   H3492     1.0  0.69408  0.47400  0.00096  1.0000
  H   H3493     1.0  0.78136  0.47750  0.01089  1.0000
  H   H3494     1.0  0.70861  0.33190  0.40791  1.0000
  C   C1956     1.0  0.77927  0.00720  0.26314  1.0000
  H   H3495     1.0  0.70852  0.43218  0.32941  1.0000
  H   H3496     1.0  0.85468  0.00784  0.26512  1.0000
  C   C1957     1.0  0.67236  0.00996  0.45639  1.0000
  H   H3497     1.0  0.84563  0.47196  0.46696  1.0000
  C   C1958     1.0  0.70851  0.39386  0.36985  1.0000
  H   H3498     1.0  0.72926  0.26768  0.33035  1.0000
  Fe  Fe229     1.0  0.76797  0.03176  0.44019  1.0000
  S   S450      1.0  0.76601  0.06055  0.45181  1.0000
  H   H3499     1.0  0.98258  0.16851  0.32304  1.0000
  H   H3500     1.0  0.70944  0.24084  0.29102  1.0000
  Fe  Fe230     1.0  0.72769  0.05633  0.45842  1.0000
  S   S451      1.0  0.69636  0.08627  0.45891  1.0000
  H   H3501     1.0  0.80047  0.98134  0.25175  1.0000
  S   S452      1.0  0.72927  0.02942  0.44598  1.0000
  S   S453      1.0  0.90627  0.03086  0.32597  1.0000
  H   H3502     1.0  0.72191  0.13556  0.32172  1.0000
  S   S454      1.0  0.91012  0.03522  0.35584  1.0000
  S   S455      1.0  0.67555  0.17279  0.31129  1.0000
  Fe  Fe231     1.0  0.88488  0.05039  0.34167  1.0000
  S   S456      1.0  0.87271  0.08973  0.33770  1.0000
  H   H3503     1.0  0.86956  0.06660  0.46041  1.0000
  H   H3504     1.0  0.79076  0.42559  0.42337  1.0000
  S   S457      1.0  0.86080  0.02359  0.34955  1.0000
  H   H3505     1.0  0.83410  0.98370  0.28403  1.0000
  H   H3506     1.0  0.69404  0.37268  0.44329  1.0000
  S   S458      1.0  0.71596  0.06533  0.23701  1.0000
  Fe  Fe232     1.0  0.76353  0.14814  0.30039  1.0000
  S   S459      1.0  0.73311  0.13952  0.29333  1.0000
  S   S460      1.0  0.78090  0.11461  0.31207  1.0000
  Fe  Fe233     1.0  0.75331  0.20040  0.28823  1.0000
  S   S461      1.0  0.72232  0.19481  0.28016  1.0000
  S   S462      1.0  0.76018  0.23872  0.28298  1.0000
  Fe  Fe234     1.0  0.71306  0.17277  0.30013  1.0000
  C   C1959     1.0  0.67535  0.35228  0.42777  1.0000
  Fe  Fe235     1.0  0.74509  0.16171  0.27402  1.0000
  S   S463      1.0  0.74998  0.15048  0.25371  1.0000
  S   S464      1.0  0.74248  0.18004  0.30860  1.0000
  S   S465      1.0  0.77699  0.16880  0.28059  1.0000
  Fe  Fe236     1.0  0.73271  0.39768  0.30940  1.0000
  S   S466      1.0  0.75724  0.37629  0.32274  1.0000
  S   S467      1.0  0.69350  0.39953  0.31676  1.0000
  Fe  Fe237     1.0  0.77250  0.40345  0.28613  1.0000
  S   S468      1.0  0.79997  0.38152  0.29795  1.0000
  S   S469      1.0  0.78585  0.41705  0.26449  1.0000
  Fe  Fe238     1.0  0.77331  0.35679  0.30591  1.0000
  S   S470      1.0  0.77960  0.31656  0.31234  1.0000
  Fe  Fe239     1.0  0.78151  0.40286  0.31372  1.0000
  S   S471      1.0  0.79779  0.41491  0.32879  1.0000
  S   S472      1.0  0.74759  0.37708  0.29290  1.0000
  S   S473      1.0  0.75532  0.42603  0.30155  1.0000
  H   H3507     1.0  0.66073  0.14308  0.37718  1.0000
  C   C1960     1.0  0.68079  0.41221  0.33090  1.0000
  C   C1961     1.0  0.95507  0.07039  0.36034  1.0000
  H   H3508     1.0  0.66029  0.05916  0.45367  1.0000
  H   H3509     1.0  0.67703  0.47288  0.45293  1.0000
  C   C1962     1.0  0.66652  0.28733  0.30032  1.0000
  C   C1963     1.0  0.69186  0.42770  0.33500  1.0000
  H   H3510     1.0  0.70617  0.27044  0.25485  1.0000
  S   S474      1.0  0.77756  0.00281  0.45671  1.0000
  S   S475      1.0  0.96895  0.00995  0.33148  1.0000
  C   C1964     1.0  0.77021  0.44061  0.25456  1.0000
  C   C1965     1.0  0.78082  0.44772  0.24146  1.0000
  H   H3511     1.0  0.69503  0.36101  0.40104  1.0000
  H   H3512     1.0  0.73392  0.13091  0.33658  1.0000
  C   C1966     1.0  0.65599  0.12982  0.43341  1.0000
  C   C1967     1.0  0.74785  0.45246  0.25932  1.0000
  H   H3513     1.0  0.79809  0.43864  0.23772  1.0000
  H   H3514     1.0  0.71386  0.00812  0.42526  1.0000
  C   C1968     1.0  0.69931  0.25910  0.28950  1.0000
  H   H3515     1.0  0.73946  0.44711  0.26941  1.0000
  N   N108      1.0  0.81804  0.97916  0.26820  1.0000
  S   S476      1.0  0.72778  0.45661  0.44460  1.0000
  Fe  Fe240     1.0  0.88749  0.00681  0.36278  1.0000
  H   H3516     1.0  0.71621  0.35546  0.33961  1.0000
  H   H3517     1.0  0.70992  0.17547  0.37447  1.0000
  C   C1969     1.0  0.69260  0.17028  0.37479  1.0000
  H   H3518     1.0  0.69945  0.19626  0.32514  1.0000
  H   H3519     1.0  0.68471  0.21663  0.34442  1.0000
  H   H3520     1.0  0.67547  0.32214  0.45957  1.0000
  C   C1970     1.0  0.76469  0.25999  0.29172  1.0000
  C   C1971     1.0  0.76208  0.28388  0.28565  1.0000
  C   C1972     1.0  0.76597  0.30143  0.29194  1.0000
  C   C1973     1.0  0.77295  0.29529  0.30434  1.0000
  C   C1974     1.0  0.77530  0.27143  0.31050  1.0000
  C   C1975     1.0  0.77105  0.25390  0.30429  1.0000
  H   H3521     1.0  0.75725  0.28883  0.27593  1.0000
  H   H3522     1.0  0.76413  0.31964  0.28705  1.0000
  H   H3523     1.0  0.78069  0.26642  0.32008  1.0000
  H   H3524     1.0  0.77319  0.23564  0.30908  1.0000
  C   C1976     1.0  0.72676  0.08808  0.24181  1.0000
  C   C1977     1.0  0.71568  0.09609  0.25368  1.0000
  C   C1978     1.0  0.72304  0.11457  0.25770  1.0000
  C   C1979     1.0  0.74142  0.12560  0.24978  1.0000
  C   C1980     1.0  0.75267  0.11742  0.23797  1.0000
  C   C1981     1.0  0.74567  0.09856  0.23412  1.0000
  H   H3525     1.0  0.70114  0.08807  0.25979  1.0000
  H   H3526     1.0  0.71413  0.12063  0.26678  1.0000
  C   C1982     1.0  0.66592  0.12277  0.42124  1.0000
  H   H3527     1.0  0.67792  0.31008  0.35962  1.0000
  C   C1983     1.0  0.84969  0.09776  0.32837  1.0000
  C   C1984     1.0  0.84167  0.08052  0.32391  1.0000
  C   C1985     1.0  0.82141  0.08644  0.31799  1.0000
  C   C1986     1.0  0.80911  0.10961  0.31642  1.0000
  C   C1987     1.0  0.81791  0.12720  0.32016  1.0000
  C   C1988     1.0  0.83823  0.12125  0.32613  1.0000
  H   H3528     1.0  0.85056  0.06243  0.32542  1.0000
  H   H3529     1.0  0.81470  0.07280  0.31506  1.0000
  H   H3530     1.0  0.80846  0.14509  0.31899  1.0000
  H   H3531     1.0  0.84452  0.13469  0.32948  1.0000
  C   C1989     1.0  0.68530  0.10052  0.44424  1.0000
  H   H3532     1.0  0.74965  0.98714  0.43459  1.0000
  H   H3533     1.0  0.70583  0.30967  0.43342  1.0000
  C   C1990     1.0  0.80763  0.02284  0.40916  1.0000
  C   C1991     1.0  0.68581  0.10484  0.42064  1.0000
  C   C1992     1.0  0.69545  0.09377  0.43204  1.0000
  C   C1993     1.0  0.71239  0.26705  0.26447  1.0000
  C   C1994     1.0  0.94627  0.99411  0.29043  1.0000
  H   H3534     1.0  0.71074  0.08000  0.43137  1.0000
  C   C1995     1.0  0.70056  0.35738  0.42129  1.0000
  H   H3535     1.0  0.72218  0.40544  0.36642  1.0000
  H   H3536     1.0  0.72794  0.10610  0.33073  1.0000
  H   H3537     1.0  0.98197  0.43300  0.36840  1.0000
  H   H3538     1.0  0.82634  0.01507  0.42555  1.0000
  C   C1996     1.0  0.69217  0.30622  0.44229  1.0000
  C   C1997     1.0  0.68129  0.30732  0.29391  1.0000
  C   C1998     1.0  0.85105  0.45409  0.31431  1.0000
  C   C1999     1.0  0.83295  0.44102  0.31494  1.0000
  C   C2000     1.0  0.81980  0.43279  0.32716  1.0000
  C   C2001     1.0  0.82476  0.43812  0.33868  1.0000
  H   H3539     1.0  0.74977  0.03128  0.25565  1.0000
  H   H3540     1.0  0.72918  0.36434  0.36172  1.0000
  H   H3541     1.0  0.82945  0.43698  0.30601  1.0000
  H   H3542     1.0  0.81472  0.43188  0.34818  1.0000
  H   H3543     1.0  0.85703  0.09053  0.46955  1.0000
  H   H3544     1.0  0.96817  0.01389  0.35875  1.0000
  C   C2002     1.0  0.70162  0.45126  0.44031  1.0000
  H   H3545     1.0  0.69815  0.30474  0.29757  1.0000
  C   C2003     1.0  0.68347  0.43042  0.42803  1.0000
  C   C2004     1.0  0.70369  0.43582  0.43136  1.0000
  H   H3546     1.0  0.68537  0.41854  0.42115  1.0000
  H   H3547     1.0  0.71400  0.34749  0.42733  1.0000
  H   H3548     1.0  0.67169  0.22766  0.30103  1.0000
  C   C2005     1.0  0.71744  0.25652  0.32857  1.0000
  C   C2006     1.0  0.66083  0.43964  0.43404  1.0000
  H   H3549     1.0  0.80759  0.44733  0.41314  1.0000
  N   N109      1.0  0.84113  0.34672  0.33832  1.0000
  C   C2007     1.0  0.84642  0.32946  0.32885  1.0000
  C   C2008     1.0  0.85243  0.33608  0.35042  1.0000
  C   C2009     1.0  0.81459  0.35139  0.34272  1.0000
  C   C2010     1.0  0.84885  0.37001  0.33183  1.0000
  C   C2011     1.0  0.87543  0.36938  0.32616  1.0000
  C   C2012     1.0  0.83529  0.33758  0.31615  1.0000
  C   C2013     1.0  0.80542  0.36476  0.35460  1.0000
  C   C2014     1.0  0.87656  0.31933  0.34844  1.0000
  C   C2015     1.0  0.88787  0.31391  0.36085  1.0000
  C   C2016     1.0  0.88029  0.39355  0.31856  1.0000
  C   C2017     1.0  0.84194  0.31867  0.30740  1.0000
  C   C2018     1.0  0.77844  0.36867  0.35784  1.0000
  H   H3550     1.0  0.84035  0.31259  0.33402  1.0000
  H   H3551     1.0  0.86569  0.32475  0.32546  1.0000
  H   H3552     1.0  0.85439  0.35030  0.35548  1.0000
  H   H3553     1.0  0.84068  0.32500  0.35776  1.0000
  H   H3554     1.0  0.80746  0.33449  0.34541  1.0000
  H   H3555     1.0  0.80576  0.36202  0.33446  1.0000
  H   H3556     1.0  0.83866  0.37883  0.32380  1.0000
  H   H3557     1.0  0.84447  0.38249  0.33894  1.0000
  H   H3558     1.0  0.88193  0.35665  0.31926  1.0000
  H   H3559     1.0  0.88576  0.36485  0.33434  1.0000
  H   H3560     1.0  0.81574  0.34101  0.31860  1.0000
  H   H3561     1.0  0.84163  0.35374  0.31022  1.0000
  H   H3562     1.0  0.81099  0.38227  0.35246  1.0000
  H   H3563     1.0  0.81199  0.35472  0.36367  1.0000
  H   H3564     1.0  0.87383  0.30232  0.34644  1.0000
  H   H3565     1.0  0.88938  0.32664  0.34008  1.0000
  H   H3566     1.0  0.90470  0.30136  0.35931  1.0000
  H   H3567     1.0  0.89188  0.33028  0.36298  1.0000
  H   H3568     1.0  0.87592  0.30579  0.36950  1.0000
  H   H3569     1.0  0.87046  0.39926  0.31014  1.0000
  H   H3570     1.0  0.87496  0.40685  0.32520  1.0000
  H   H3571     1.0  0.89947  0.39272  0.31460  1.0000
  H   H3572     1.0  0.83540  0.30220  0.31275  1.0000
  H   H3573     1.0  0.83353  0.32495  0.29845  1.0000
  H   H3574     1.0  0.86139  0.31489  0.30421  1.0000
  H   H3575     1.0  0.77194  0.35153  0.36039  1.0000
  H   H3576     1.0  0.77229  0.37806  0.36639  1.0000
  H   H3577     1.0  0.77076  0.37967  0.34930  1.0000
  N   N110      1.0  0.79365  0.08669  0.36364  1.0000
  C   C2019     1.0  0.79356  0.11261  0.35829  1.0000
  C   C2020     1.0  0.81752  0.07525  0.36732  1.0000
  C   C2021     1.0  0.78997  0.07539  0.35271  1.0000
  C   C2022     1.0  0.77391  0.08248  0.37516  1.0000
  C   C2023     1.0  0.77411  0.09259  0.38759  1.0000
  C   C2024     1.0  0.77173  0.12621  0.35216  1.0000
  C   C2025     1.0  0.79175  0.04812  0.35568  1.0000
  C   C2026     1.0  0.83105  0.09031  0.37272  1.0000
  C   C2027     1.0  0.85246  0.07507  0.37819  1.0000
  C   C2028     1.0  0.75153  0.08977  0.39771  1.0000
  C   C2029     1.0  0.77204  0.15271  0.34896  1.0000
  C   C2030     1.0  0.79290  0.03848  0.34308  1.0000
  H   H3578     1.0  0.80929  0.11482  0.35041  1.0000
  H   H3579     1.0  0.79556  0.12211  0.36597  1.0000
  H   H3580     1.0  0.81580  0.05890  0.37467  1.0000
  H   H3581     1.0  0.83003  0.06962  0.35854  1.0000
  H   H3582     1.0  0.80296  0.08005  0.34369  1.0000
  H   H3583     1.0  0.77224  0.08237  0.34993  1.0000
  H   H3584     1.0  0.75643  0.08899  0.37202  1.0000
  H   H3585     1.0  0.77427  0.06326  0.37867  1.0000
  H   H3586     1.0  0.77530  0.11160  0.38523  1.0000
  H   H3587     1.0  0.78919  0.08273  0.39244  1.0000
  H   H3588     1.0  0.77193  0.12052  0.34269  1.0000
  H   H3589     1.0  0.75495  0.12335  0.35891  1.0000
  H   H3590     1.0  0.77595  0.04302  0.36273  1.0000
  H   H3591     1.0  0.80766  0.03914  0.35995  1.0000
  H   H3592     1.0  0.83773  0.10405  0.36460  1.0000
  H   H3593     1.0  0.81978  0.09923  0.38067  1.0000
  H   H3594     1.0  0.86246  0.08632  0.38145  1.0000
  H   H3595     1.0  0.84673  0.06170  0.38681  1.0000
  H   H3596     1.0  0.86445  0.06595  0.37046  1.0000
  H   H3597     1.0  0.75261  0.09600  0.40683  1.0000
  H   H3598     1.0  0.73581  0.10036  0.39371  1.0000
  H   H3599     1.0  0.74928  0.07096  0.40047  1.0000
  H   H3600     1.0  0.77080  0.15982  0.35813  1.0000
  H   H3601     1.0  0.78850  0.15652  0.34208  1.0000
  H   H3602     1.0  0.75672  0.16183  0.34410  1.0000
  H   H3603     1.0  0.79273  0.01920  0.34554  1.0000
  H   H3604     1.0  0.77756  0.04715  0.33814  1.0000
  H   H3605     1.0  0.80951  0.04142  0.33611  1.0000
  S   S477      1.0  0.65683  0.33569  0.39911  1.0000
  H   H3606     1.0  0.70160  0.33242  0.45080  1.0000
  C   C2031     1.0  0.68946  0.25378  0.31367  1.0000
  H   H3607     1.0  0.72558  0.35567  0.40297  1.0000
  H   H3608     1.0  0.67740  0.27862  0.27457  1.0000
  H   H3609     1.0  0.76705  0.12563  0.23182  1.0000
  H   H3610     1.0  0.98248  0.46138  0.37211  1.0000
  H   H3611     1.0  0.94324  0.00099  0.28008  1.0000
  H   H3612     1.0  0.65312  0.34301  0.34651  1.0000
  C   C2032     1.0  0.79041  0.44473  0.41960  1.0000
  S   S478      1.0  0.87998  0.47474  0.32450  1.0000
  C   C2033     1.0  0.67207  0.14248  0.36729  1.0000
  H   H3613     1.0  0.72365  0.99413  0.41092  1.0000
  H   H3614     1.0  0.66318  0.98703  0.44504  1.0000
  C   C2034     1.0  0.70622  0.26865  0.31647  1.0000
  H   H3615     1.0  0.67165  0.07498  0.40060  1.0000
  H   H3616     1.0  0.96325  0.00675  0.30399  1.0000
  C   C2035     1.0  0.68478  0.32799  0.44939  1.0000
  C   C2036     1.0  0.84935  0.00611  0.40769  1.0000
  C   C2037     1.0  0.94595  0.03670  0.29195  1.0000
  H   H3617     1.0  0.93707  0.10420  0.35150  1.0000
  H   H3618     1.0  0.97243  0.06576  0.33349  1.0000
  H   H3619     1.0  0.82058  0.45223  0.44965  1.0000
  H   H3620     1.0  0.95202  0.05885  0.35399  1.0000
  C   C2038     1.0  0.84265  0.45142  0.33803  1.0000
  H   H3621     1.0  0.71812  0.43796  0.38379  1.0000
  H   H3622     1.0  0.82120  0.03811  0.28411  1.0000
  H   H3623     1.0  0.96005  0.10562  0.35976  1.0000
  H   H3624     1.0  0.66336  0.15748  0.36061  1.0000
  H   H3625     1.0  0.86138  0.45997  0.30483  1.0000
  H   H3626     1.0  0.76467  0.01019  0.24518  1.0000
  H   H3627     1.0  0.68930  0.27950  0.46014  1.0000
  H   H3628     1.0  0.80762  0.46159  0.46532  1.0000
  C   C2039     1.0  0.76734  0.02175  0.25170  1.0000
  H   H3629     1.0  0.97392  0.07376  0.46696  1.0000
  H   H3630     1.0  0.76480  0.40054  0.22696  1.0000
  C   C2040     1.0  0.83652  0.01493  0.26966  1.0000
  H   H3631     1.0  0.72104  0.42787  0.42701  1.0000
  Fe  Fe241     1.0  0.92995  0.01339  0.34066  1.0000
  H   H3632     1.0  0.70863  0.08846  0.37622  1.0000
  C   C2041     1.0  0.72967  0.00056  0.41868  1.0000
  H   H3633     1.0  0.70582  0.15420  0.35764  1.0000
  C   C2042     1.0  0.67928  0.39276  0.46419  1.0000
  C   C2043     1.0  0.80957  0.02240  0.39566  1.0000
  H   H3634     1.0  0.79409  0.02820  0.39102  1.0000
  H   H3635     1.0  0.91785  0.07618  0.36947  1.0000
  Fe  Fe242     1.0  0.73876  0.00249  0.46339  1.0000
  H   H3636     1.0  0.73813  0.28281  0.37746  1.0000
  H   H3637     1.0  0.68565  0.36053  0.33945  1.0000
  H   H3638     1.0  0.70329  0.06640  0.39878  1.0000
  H   H3639     1.0  0.86474  0.99968  0.41241  1.0000
  H   H3640     1.0  0.72818  0.23920  0.32691  1.0000
  C   C2044     1.0  0.66229  0.24621  0.30095  1.0000
  H   H3641     1.0  0.80653  0.00184  0.28295  1.0000
  S   S479      1.0  0.77975  0.03359  0.41795  1.0000
  C   C2045     1.0  0.82760  0.01465  0.41518  1.0000
  C   C2046     1.0  0.83136  0.01429  0.38814  1.0000
  H   H3642     1.0  0.83259  0.01385  0.37777  1.0000
  C   C2047     1.0  0.68099  0.43791  0.34619  1.0000
  H   H3643     1.0  0.74013  0.01479  0.41394  1.0000
  S   S480      1.0  0.87151  0.99043  0.31876  1.0000
  H   H3644     1.0  0.82721  0.02675  0.26197  1.0000
  C   C2048     1.0  0.72909  0.46302  0.39287  1.0000
  C   C2049     1.0  0.83891  0.02994  0.27944  1.0000
  H   H3645     1.0  0.69338  0.34781  0.31690  1.0000
  H   H3646     1.0  0.68544  0.35794  0.37460  1.0000
  H   H3647     1.0  0.78112  0.01956  0.26938  1.0000
  N   N111      1.0  0.69564  0.34001  0.35769  1.0000
  H   H3648     1.0  0.68693  0.00936  0.46178  1.0000
  H   H3649     1.0  0.70362  0.25387  0.33749  1.0000
  H   H3650     1.0  0.66261  0.36702  0.42334  1.0000
  H   H3651     1.0  0.69907  0.23538  0.31384  1.0000
  C   C2050     1.0  0.69616  0.14918  0.36780  1.0000
  H   H3652     1.0  0.69147  0.14721  0.34046  1.0000
  H   H3653     1.0  0.68718  0.05584  0.38897  1.0000
  C   C2051     1.0  0.85138  0.00617  0.39410  1.0000
  H   H3654     1.0  0.68862  0.31750  0.33712  1.0000
  H   H3655     1.0  0.68474  0.12432  0.33360  1.0000
  H   H3656     1.0  0.71088  0.11181  0.35724  1.0000
  H   H3657     1.0  0.71990  0.31325  0.33731  1.0000
  H   H3658     1.0  0.69085  0.40507  0.36994  1.0000
  C   C2052     1.0  0.72169  0.12487  0.33174  1.0000
  C   C2053     1.0  0.65877  0.45511  0.44297  1.0000
  H   H3659     1.0  0.69386  0.09948  0.41130  1.0000
  C   C2054     1.0  0.71762  0.31820  0.37698  1.0000
  N   N112      1.0  0.67946  0.26223  0.30103  1.0000
  H   H3660     1.0  0.71756  0.30558  0.35918  1.0000
  C   C2055     1.0  0.70428  0.32646  0.33495  1.0000
  H   H3661     1.0  0.68498  0.24747  0.27466  1.0000
  H   H3662     1.0  0.71833  0.28792  0.45463  1.0000
  H   H3663     1.0  0.70157  0.31148  0.38283  1.0000
  C   C2056     1.0  0.69661  0.12841  0.33952  1.0000
  H   H3664     1.0  0.77266  0.44414  0.40377  1.0000
  H   H3665     1.0  0.91924  0.08023  0.31634  1.0000
  H   H3666     1.0  0.69202  0.10741  0.38769  1.0000
  H   H3667     1.0  0.66505  0.28979  0.39180  1.0000
  H   H3668     1.0  0.68436  0.16567  0.38531  1.0000
  H   H3669     1.0  0.71255  0.27051  0.28888  1.0000
  H   H3670     1.0  0.73925  0.29687  0.39096  1.0000
  H   H3671     1.0  0.72623  0.25107  0.26475  1.0000
  C   C2057     1.0  0.69461  0.11240  0.35330  1.0000
  H   H3672     1.0  0.72022  0.28236  0.26515  1.0000
  H   H3673     1.0  0.93325  0.10807  0.32639  1.0000
  H   H3674     1.0  0.84891  0.04429  0.27417  1.0000
  H   H3675     1.0  0.73484  0.44893  0.40088  1.0000
  C   C2058     1.0  0.78959  0.47256  0.27946  1.0000
  C   C2059     1.0  0.85970  0.07115  0.47002  1.0000
  H   H3676     1.0  0.76306  0.36150  0.24077  1.0000
  H   H3677     1.0  0.84857  0.01908  0.28730  1.0000
  C   C2060     1.0  0.69168  0.26322  0.27577  1.0000
  H   H3678     1.0  0.67724  0.30165  0.43895  1.0000
  C   C2061     1.0  0.94063  0.08909  0.32857  1.0000
  C   C2062     1.0  0.85607  0.45934  0.32585  1.0000
  H   H3679     1.0  0.78801  0.45375  0.42822  1.0000
  C   C2063     1.0  0.70908  0.33563  0.32008  1.0000
  C   C2064     1.0  0.68161  0.19589  0.33036  1.0000
  H   H3680     1.0  0.84632  0.45522  0.34699  1.0000
  N   N113      1.0  0.67267  0.11926  0.36302  1.0000
  Fe  Fe243     1.0  0.77272  0.03114  0.46905  1.0000
  H   H3681     1.0  0.69604  0.28585  0.31864  1.0000
  C   C2065     1.0  0.70786  0.35107  0.40746  1.0000
  C   C2066     1.0  0.67613  0.98655  0.45150  1.0000
  H   H3682     1.0  0.92954  0.08100  0.33762  1.0000
  H   H3683     1.0  0.71370  0.38575  0.35033  1.0000
  H   H3684     1.0  0.92829  0.99606  0.29661  1.0000
  H   H3685     1.0  0.94996  0.13178  0.33371  1.0000
  S   S481      1.0  0.90860  0.47538  0.35689  1.0000
  C   C2067     1.0  0.65909  0.40663  0.33815  1.0000
  C   C2068     1.0  0.68810  0.07116  0.39338  1.0000
  H   H3686     1.0  0.67517  0.25330  0.32244  1.0000
  C   C2069     1.0  0.93822  0.07797  0.31711  1.0000
  C   C2070     1.0  0.76931  0.46648  0.23318  1.0000
  H   H3687     1.0  0.65764  0.12407  0.45424  1.0000
  H   H3688     1.0  0.67004  0.32477  0.37329  1.0000
  C   C2071     1.0  0.70023  0.34688  0.34286  1.0000
  C   C2072     1.0  0.80366  0.99327  0.25792  1.0000
  H   H3689     1.0  0.66810  0.08347  0.37171  1.0000
  C   C2073     1.0  0.67330  0.20722  0.34135  1.0000
  H   H3690     1.0  0.67834  0.34527  0.29171  1.0000
  H   H3691     1.0  0.98308  0.43571  0.38505  1.0000
  H   H3692     1.0  0.69425  0.98319  0.44576  1.0000
  C   C2074     1.0  0.67496  0.37131  0.44634  1.0000
  C   C2075     1.0  0.67065  0.09966  0.37484  1.0000
  H   H3693     1.0  0.67627  0.37473  0.36012  1.0000
  H   H3694     1.0  0.76713  0.99508  0.26896  1.0000
  C   C2076     1.0  0.73624  0.47120  0.25094  1.0000
  H   H3695     1.0  0.69544  0.09412  0.35161  1.0000
  C   C2077     1.0  0.72976  0.45161  0.38095  1.0000
  C   C2078     1.0  0.73904  0.29984  0.38018  1.0000
  C   C2079     1.0  0.71215  0.37597  0.36064  1.0000
  N   N114      1.0  0.66997  0.34947  0.44266  1.0000
  H   H3696     1.0  0.93811  0.08023  0.37943  1.0000
  H   H3697     1.0  0.72444  0.34509  0.31746  1.0000
  H   H3698     1.0  0.70097  0.37647  0.42037  1.0000
  H   H3699     1.0  0.81353  0.00627  0.25091  1.0000
  H   H3700     1.0  0.75568  0.30603  0.37478  1.0000
  H   H3701     1.0  0.71339  0.32074  0.31456  1.0000
  C   C2080     1.0  0.66559  0.11866  0.44485  1.0000
  H   H3702     1.0  0.71897  0.33444  0.38038  1.0000
  H   H3703     1.0  0.67496  0.35649  0.46753  1.0000
  C   C2081     1.0  0.66656  0.18479  0.32591  1.0000
  C   C2082     1.0  0.69125  0.36201  0.36371  1.0000
  Fe  Fe244     1.0  0.88452  0.00243  0.33478  1.0000
  H   H3704     1.0  0.94550  0.05886  0.31876  1.0000
  H   H3705     1.0  0.77764  0.47136  0.22313  1.0000
  H   H3706     1.0  0.84205  0.06572  0.47180  1.0000
  H   H3707     1.0  0.68935  0.45025  0.34920  1.0000
  H   H3708     1.0  0.67375  0.02406  0.44758  1.0000
  H   H3709     1.0  0.70772  0.13457  0.37300  1.0000
  C   C2083     1.0  0.69142  0.09281  0.38265  1.0000
  H   H3710     1.0  0.72075  0.27161  0.30805  1.0000
  H   H3711     1.0  0.67645  0.04052  0.47225  1.0000
  H   H3712     1.0  0.68579  0.30823  0.28304  1.0000
  C   C2084     1.0  0.82313  0.99447  0.27680  1.0000
  H   H3713     1.0  0.71000  0.38470  0.38007  1.0000
  C   C2085     1.0  0.67899  0.46113  0.44596  1.0000
  C   C2086     1.0  0.71679  0.32302  0.36195  1.0000
  H   H3714     1.0  0.73357  0.32898  0.35651  1.0000
  H   H3715     1.0  0.80308  0.46173  0.28524  1.0000
  C   C2087     1.0  0.95985  0.01165  0.29372  1.0000
  C   C2088     1.0  0.67423  0.32794  0.36233  1.0000
  H   H3716     1.0  0.68110  0.18559  0.36991  1.0000
  H   H3717     1.0  0.94840  0.47534  0.29206  1.0000
  H   H3718     1.0  0.77813  0.03505  0.24574  1.0000
  H   H3719     1.0  0.94376  0.04301  0.28148  1.0000
  H   H3720     1.0  0.91889  0.46837  0.29683  1.0000
  H   H3721     1.0  0.97152  0.10265  0.47088  1.0000
  H   H3722     1.0  0.66532  0.38740  0.44085  1.0000
  C   C2089     1.0  0.84266  0.47061  0.45705  1.0000
  C   C2090     1.0  0.76230  0.36389  0.23008  1.0000
  C   C2091     1.0  0.95548  0.09597  0.35284  1.0000
  N   N115      1.0  0.97217  0.09875  0.33980  1.0000
  C   C2092     1.0  0.76999  0.45430  0.41192  1.0000
  H   H3723     1.0  0.74802  0.44306  0.37741  1.0000
  H   H3724     1.0  0.93567  0.05101  0.37767  1.0000
  H   H3725     1.0  0.97205  0.06301  0.36389  1.0000
  H   H3726     1.0  0.83111  0.43677  0.46460  1.0000
  S   S482      1.0  0.87875  0.99486  0.38501  1.0000
  H   H3727     1.0  0.75356  0.45091  0.41879  1.0000
  C   C2093     1.0  0.96683  0.08504  0.33042  1.0000
  C   C2094     1.0  0.65951  0.43198  0.35358  1.0000
  C   C2095     1.0  0.93545  0.06953  0.37246  1.0000
  H   H3728     1.0  0.92822  0.03743  0.29826  1.0000
  H   H3729     1.0  0.95565  0.04872  0.29481  1.0000
  C   C2096     1.0  0.82432  0.45439  0.45924  1.0000
  C   C2097     1.0  0.66747  0.33135  0.29649  1.0000
  H   H3730     1.0  0.69887  0.38935  0.46160  1.0000
  H   H3731     1.0  0.93207  0.09315  0.47199  1.0000
  H   H3732     1.0  0.77154  0.34747  0.22639  1.0000
  C   C2098     1.0  0.70269  0.28450  0.45134  1.0000
  H   H3733     1.0  0.72412  0.16967  0.22558  1.0000
  H   H3734     1.0  0.94770  0.08662  0.30763  1.0000
  C   C2099     1.0  0.66853  0.37321  0.46123  1.0000
  H   H3735     1.0  0.75497  0.09206  0.22527  1.0000
  H   H3736     1.0  0.66319  0.33170  0.30727  1.0000
  H   H3737     1.0  0.78223  0.46059  0.27510  1.0000
  H   H3738     1.0  0.77515  0.98405  0.41188  1.0000
  H   H3739     1.0  0.85451  0.99495  0.24695  1.0000
  C   C2100     1.0  0.74434  0.98032  0.42674  1.0000
  H   H3740     1.0  0.67252  0.33663  0.42435  1.0000
  H   H3741     1.0  0.70837  0.26943  0.44592  1.0000
  S   S483      1.0  0.65561  0.40226  0.39864  1.0000
  H   H3742     1.0  0.65771  0.29046  0.31042  1.0000
  H   H3743     1.0  0.74343  0.36700  0.22894  1.0000
  H   H3744     1.0  0.95446  0.17279  0.33406  1.0000
  H   H3745     1.0  0.72243  0.47656  0.41541  1.0000
  H   H3746     1.0  0.67245  0.41005  0.45853  1.0000
  S   S484      1.0  0.90958  0.98333  0.34861  1.0000
  H   H3747     1.0  0.67354  0.10173  0.22595  1.0000
  H   H3748     1.0  0.79255  0.38129  0.22455  1.0000
  C   C2101     1.0  0.96903  0.12456  0.33367  1.0000
  H   H3749     1.0  0.97709  0.01224  0.28700  1.0000
  H   H3750     1.0  0.98084  0.17790  0.33855  1.0000
  H   H3751     1.0  0.65473  0.25135  0.29168  1.0000
  H   H3752     1.0  0.97756  0.08935  0.32044  1.0000
  H   H3753     1.0  0.71033  0.47029  0.39626  1.0000
  H   H3754     1.0  0.79531  0.98150  0.42858  1.0000
  H   H3755     1.0  0.72325  0.46497  0.37276  1.0000
  H   H3756     1.0  0.82620  0.98120  0.44331  1.0000
  C   C2102     1.0  0.77411  0.38488  0.22261  1.0000
  H   H3757     1.0  0.85914  0.46189  0.45153  1.0000
  H   H3758     1.0  0.97010  0.14010  0.35093  1.0000
  H   H3759     1.0  0.90884  0.05531  0.47059  1.0000
  C   C2103     1.0  0.97378  0.16657  0.33356  1.0000
  H   H3760     1.0  0.76208  0.47570  0.38374  1.0000
  H   H3761     1.0  0.97722  0.12708  0.32302  1.0000
  C   C2104     1.0  0.97862  0.14092  0.34043  1.0000
  H   H3762     1.0  0.94504  0.98016  0.31913  1.0000
  H   H3763     1.0  0.65473  0.10442  0.38226  1.0000
  C   C2105     1.0  0.98535  0.01654  0.35305  1.0000
  S   S485      1.0  0.65331  0.13453  0.40675  1.0000
  H   H3764     1.0  0.65295  0.10565  0.35170  1.0000
  Fe  Fe245     1.0  0.70840  0.05493  0.69613  1.0000
  S   S486      1.0  0.73759  0.04255  0.70804  1.0000
  S   S487      1.0  0.68201  0.08901  0.69745  1.0000
  H   H3765     1.0  0.93198  0.98548  0.51960  1.0000
  H   H3766     1.0  0.86961  0.43039  0.60146  1.0000
  Fe  Fe246     1.0  0.72752  0.00661  0.71083  1.0000
  Fe  Fe247     1.0  0.76067  0.03361  0.68927  1.0000
  S   S488      1.0  0.79897  0.03937  0.68308  1.0000
  H   H3767     1.0  0.94528  0.04789  0.47938  1.0000
  S   S489      1.0  0.73239  0.04881  0.67698  1.0000
  H   H3768     1.0  0.73818  0.09917  0.66118  1.0000
  H   H3769     1.0  0.98273  0.20605  0.63225  1.0000
  C   C2106     1.0  0.95240  0.25372  0.63591  1.0000
  H   H3770     1.0  0.75289  0.07961  0.51160  1.0000
  Fe  Fe248     1.0  0.86023  0.15259  0.64763  1.0000
  S   S490      1.0  0.88937  0.13315  0.63436  1.0000
  S   S491      1.0  0.82601  0.14119  0.65981  1.0000
  Fe  Fe249     1.0  0.88099  0.19903  0.63911  1.0000
  S   S492      1.0  0.91107  0.18346  0.62474  1.0000
  S   S493      1.0  0.87537  0.23396  0.64661  1.0000
  Fe  Fe250     1.0  0.88455  0.16594  0.61916  1.0000
  S   S494      1.0  0.88586  0.16385  0.59761  1.0000
  Fe  Fe251     1.0  0.91410  0.15172  0.64075  1.0000
  S   S495      1.0  0.95017  0.13257  0.64496  1.0000
  S   S496      1.0  0.85391  0.18467  0.63197  1.0000
  S   S497      1.0  0.88547  0.16793  0.65557  1.0000
  Fe  Fe252     1.0  0.87677  0.40354  0.64853  1.0000
  S   S498      1.0  0.88564  0.40115  0.62686  1.0000
  S   S499      1.0  0.83944  0.42274  0.65485  1.0000
  Fe  Fe253     1.0  0.92698  0.38017  0.65283  1.0000
  S   S500      1.0  0.93940  0.37704  0.63155  1.0000
  S   S501      1.0  0.95080  0.36426  0.66805  1.0000
  Fe  Fe254     1.0  0.91908  0.41354  0.62731  1.0000
  S   S502      1.0  0.93332  0.44380  0.61296  1.0000
  Fe  Fe255     1.0  0.90490  0.36446  0.63307  1.0000
  S   S503      1.0  0.90688  0.33411  0.62222  1.0000
  S   S504      1.0  0.90935  0.41799  0.64858  1.0000
  S   S505      1.0  0.89331  0.36562  0.65474  1.0000
  C   C2107     1.0  0.80189  0.46795  0.67916  1.0000
  Fe  Fe256     1.0  0.90475  0.04807  0.54118  1.0000
  S   S506      1.0  0.87717  0.08042  0.54307  1.0000
  S   S507      1.0  0.94083  0.05577  0.53004  1.0000
  Fe  Fe257     1.0  0.86892  0.01539  0.55510  1.0000
  S   S508      1.0  0.83925  0.04555  0.55782  1.0000
  H   H3771     1.0  0.70346  0.23911  0.70438  1.0000
  Fe  Fe258     1.0  0.85335  0.06047  0.53681  1.0000
  S   S509      1.0  0.82989  0.07753  0.52138  1.0000
  Fe  Fe259     1.0  0.86603  0.06211  0.56374  1.0000
  S   S510      1.0  0.85843  0.07400  0.58360  1.0000
  S   S511      1.0  0.88151  0.02929  0.53373  1.0000
  S   S512      1.0  0.89502  0.03092  0.56225  1.0000
  C   C2108     1.0  0.96719  0.04449  0.53662  1.0000
  C   C2109     1.0  0.98593  0.18767  0.63658  1.0000
  C   C2110     1.0  0.88764  0.09695  0.49753  1.0000
  C   C2111     1.0  0.96778  0.02678  0.54777  1.0000
  C   C2112     1.0  0.93603  0.11419  0.55708  1.0000
  C   C2113     1.0  0.67096  0.06102  0.49391  1.0000
  H   H3772     1.0  0.95189  0.01971  0.55258  1.0000
  C   C2114     1.0  0.80848  0.03826  0.49313  1.0000
  C   C2115     1.0  0.82450  0.02649  0.50160  1.0000
  C   C2116     1.0  0.83095  0.03815  0.51043  1.0000
  C   C2117     1.0  0.82192  0.06199  0.51062  1.0000
  C   C2118     1.0  0.80646  0.07398  0.50186  1.0000
  C   C2119     1.0  0.79963  0.06217  0.49321  1.0000
  H   H3773     1.0  0.83169  0.00810  0.50148  1.0000
  H   H3774     1.0  0.84295  0.02871  0.51704  1.0000
  H   H3775     1.0  0.79951  0.09247  0.50188  1.0000
  H   H3776     1.0  0.78741  0.07150  0.48669  1.0000
  H   H3777     1.0  0.87053  0.09783  0.49433  1.0000
  H   H3778     1.0  0.96682  0.37041  0.69066  1.0000
  C   C2120     1.0  0.87898  0.13861  0.59356  1.0000
  C   C2121     1.0  0.87380  0.11942  0.60335  1.0000
  C   C2122     1.0  0.86819  0.09959  0.59999  1.0000
  C   C2123     1.0  0.86741  0.09876  0.58686  1.0000
  C   C2124     1.0  0.87288  0.11777  0.57697  1.0000
  C   C2125     1.0  0.87873  0.13764  0.58033  1.0000
  H   H3779     1.0  0.87391  0.11989  0.61354  1.0000
  H   H3780     1.0  0.86443  0.08475  0.60759  1.0000
  H   H3781     1.0  0.87198  0.11743  0.56684  1.0000
  H   H3782     1.0  0.88263  0.15248  0.57269  1.0000
  C   C2126     1.0  0.88417  0.26165  0.63944  1.0000
  C   C2127     1.0  0.89543  0.26661  0.62631  1.0000
  C   C2128     1.0  0.90204  0.28896  0.62117  1.0000
  C   C2129     1.0  0.89782  0.30643  0.62912  1.0000
  C   C2130     1.0  0.88662  0.30142  0.64225  1.0000
  C   C2131     1.0  0.87969  0.27923  0.64733  1.0000
  H   H3783     1.0  0.89886  0.25333  0.62011  1.0000
  H   H3784     1.0  0.91054  0.29274  0.61096  1.0000
  H   H3785     1.0  0.88307  0.31472  0.64844  1.0000
  H   H3786     1.0  0.87081  0.27563  0.65746  1.0000
  C   C2132     1.0  0.79359  0.98349  0.56347  1.0000
  C   C2133     1.0  0.75666  0.04161  0.51738  1.0000
  H   H3787     1.0  0.82086  0.00892  0.61093  1.0000
  H   H3788     1.0  0.74625  0.12577  0.66375  1.0000
  C   C2134     1.0  0.97369  0.08815  0.57260  1.0000
  H   H3789     1.0  0.67196  0.04488  0.50159  1.0000
  H   H3790     1.0  0.95121  0.18235  0.63552  1.0000
  C   C2135     1.0  0.84584  0.45073  0.58783  1.0000
  H   H3791     1.0  0.79298  0.00215  0.70629  1.0000
  C   C2136     1.0  0.91911  0.43057  0.59254  1.0000
  C   C2137     1.0  0.92805  0.44756  0.59671  1.0000
  H   H3792     1.0  0.97252  0.43606  0.56804  1.0000
  H   H3793     1.0  0.75839  0.00310  0.50549  1.0000
  H   H3794     1.0  0.75945  0.38750  0.70353  1.0000
  H   H3795     1.0  0.91620  0.41430  0.59918  1.0000
  S   S513      1.0  0.71258  0.00130  0.66402  1.0000
  C   C2138     1.0  0.83581  0.01238  0.59045  1.0000
  C   C2139     1.0  0.73969  0.43025  0.70914  1.0000
  H   H3796     1.0  0.86460  0.43004  0.67457  1.0000
  H   H3797     1.0  0.66589  0.97847  0.65440  1.0000
  H   H3798     1.0  0.92190  0.05105  0.59713  1.0000
  C   C2140     1.0  0.83155  0.44027  0.66742  1.0000
  C   C2141     1.0  0.80888  0.45402  0.66916  1.0000
  H   H3799     1.0  0.97005  0.46815  0.65974  1.0000
  H   H3800     1.0  0.70711  0.00054  0.54026  1.0000
  H   H3801     1.0  0.79660  0.45369  0.66283  1.0000
  H   H3802     1.0  0.93802  0.01260  0.57976  1.0000
  H   H3803     1.0  0.95309  0.42221  0.65856  1.0000
  H   H3804     1.0  0.72012  0.12730  0.65688  1.0000
  C   C2142     1.0  0.92839  0.04574  0.58729  1.0000
  H   H3805     1.0  0.91336  0.26698  0.66418  1.0000
  C   C2143     1.0  0.97509  0.31851  0.64486  1.0000
  H   H3806     1.0  0.87752  0.47726  0.58645  1.0000
  H   H3807     1.0  0.97641  0.26488  0.64569  1.0000
  H   H3808     1.0  0.82030  0.00548  0.55581  1.0000
  H   H3809     1.0  0.79053  0.00011  0.51592  1.0000
  C   C2144     1.0  0.80673  0.06781  0.67754  1.0000
  C   C2145     1.0  0.83019  0.07002  0.67165  1.0000
  C   C2146     1.0  0.83666  0.09239  0.66647  1.0000
  C   C2147     1.0  0.81978  0.11274  0.66740  1.0000
  C   C2148     1.0  0.79663  0.11052  0.67393  1.0000
  C   C2149     1.0  0.78999  0.08818  0.67877  1.0000
  H   H3810     1.0  0.84329  0.05434  0.67077  1.0000
  H   H3811     1.0  0.85459  0.09390  0.66160  1.0000
  H   H3812     1.0  0.78352  0.12620  0.67480  1.0000
  H   H3813     1.0  0.77193  0.08672  0.68338  1.0000
  C   C2150     1.0  0.97929  0.37647  0.68208  1.0000
  H   H3814     1.0  0.73040  0.99736  0.51416  1.0000
  C   C2151     1.0  0.91142  0.19787  0.67403  1.0000
  H   H3815     1.0  0.95472  0.17405  0.58950  1.0000
  H   H3816     1.0  0.78446  0.38220  0.71123  1.0000
  S   S514      1.0  0.73414  0.02910  0.47662  1.0000
  H   H3817     1.0  0.85794  0.03022  0.71412  1.0000
  C   C2152     1.0  0.97929  0.22300  0.66659  1.0000
  C   C2153     1.0  0.77249  0.39656  0.70597  1.0000
  H   H3818     1.0  0.90474  0.11568  0.54854  1.0000
  H   H3819     1.0  0.94355  0.07646  0.55730  1.0000
  H   H3820     1.0  0.96802  0.30980  0.65492  1.0000
  H   H3821     1.0  0.66788  0.17535  0.71358  1.0000
  S   S515      1.0  0.90736  0.46163  0.55572  1.0000
  C   C2154     1.0  0.96917  0.24855  0.64622  1.0000
  H   H3822     1.0  0.98151  0.08257  0.55180  1.0000
  H   H3823     1.0  0.86924  0.10338  0.51697  1.0000
  H   H3824     1.0  0.89737  0.08328  0.47485  1.0000
  H   H3825     1.0  0.85211  0.45408  0.69243  1.0000
  C   C2155     1.0  0.96404  0.26575  0.62248  1.0000
  H   H3826     1.0  0.91748  0.08618  0.56788  1.0000
  H   H3827     1.0  0.78579  0.00603  0.53229  1.0000
  C   C2156     1.0  0.89835  0.06421  0.47885  1.0000
  C   C2157     1.0  0.77695  0.42841  0.71741  1.0000
  H   H3828     1.0  0.93544  0.15983  0.60308  1.0000
  C   C2158     1.0  0.92596  0.01855  0.50606  1.0000
  H   H3829     1.0  0.96415  0.42899  0.63580  1.0000
  H   H3830     1.0  0.74783  0.98745  0.54804  1.0000
  C   C2159     1.0  0.80048  0.38623  0.68538  1.0000
  C   C2160     1.0  0.92950  0.21263  0.67490  1.0000
  C   C2161     1.0  0.87295  0.05838  0.48125  1.0000
  H   H3831     1.0  0.88413  0.06233  0.50820  1.0000
  H   H3832     1.0  0.73467  0.99996  0.59087  1.0000
  H   H3833     1.0  0.85049  0.47531  0.64251  1.0000
  C   C2162     1.0  0.92088  0.99363  0.51191  1.0000
  H   H3834     1.0  0.89153  0.02840  0.50037  1.0000
  H   H3835     1.0  0.74834  0.46589  0.70594  1.0000
  S   S516      1.0  0.79975  0.02191  0.48305  1.0000
  H   H3836     1.0  0.96235  0.09681  0.59845  1.0000
  N   N116      1.0  0.75530  0.99720  0.52681  1.0000
  C   C2163     1.0  0.95162  0.05523  0.58056  1.0000
  C   C2164     1.0  0.66978  0.09721  0.71303  1.0000
  C   C2165     1.0  0.70582  0.23948  0.71456  1.0000
  H   H3837     1.0  0.93694  0.09633  0.48801  1.0000
  H   H3838     1.0  0.98098  0.45035  0.61324  1.0000
  H   H3839     1.0  0.91694  0.09091  0.58967  1.0000
  C   C2166     1.0  0.95281  0.47436  0.63669  1.0000
  H   H3840     1.0  0.95058  0.06972  0.60359  1.0000
  H   H3841     1.0  0.75619  0.03965  0.50716  1.0000
  H   H3842     1.0  0.77531  0.04052  0.51840  1.0000
  C   C2167     1.0  0.97264  0.15004  0.60460  1.0000
  C   C2168     1.0  0.95044  0.43963  0.66161  1.0000
  C   C2169     1.0  0.78693  0.40630  0.69255  1.0000
  H   H3843     1.0  0.79967  0.01548  0.59990  1.0000
  H   H3844     1.0  0.70857  0.99212  0.63899  1.0000
  H   H3845     1.0  0.78820  0.37539  0.68376  1.0000
  H   H3846     1.0  0.82481  0.99927  0.70454  1.0000
  H   H3847     1.0  0.92669  0.12700  0.56360  1.0000
  C   C2170     1.0  0.80950  0.98979  0.70781  1.0000
  C   C2171     1.0  0.97190  0.45225  0.65515  1.0000
  H   H3848     1.0  0.82632  0.98292  0.53294  1.0000
  H   H3849     1.0  0.96818  0.13480  0.61232  1.0000
  H   H3850     1.0  0.87362  0.03916  0.48189  1.0000
  C   C2172     1.0  0.65419  0.98439  0.60300  1.0000
  C   C2173     1.0  0.98037  0.44754  0.55906  1.0000
  H   H3851     1.0  0.89669  0.20910  0.66937  1.0000
  H   H3852     1.0  0.77510  0.09457  0.59714  1.0000
  H   H3853     1.0  0.97017  0.33785  0.64433  1.0000
  H   H3854     1.0  0.94568  0.05474  0.49513  1.0000
  C   C2174     1.0  0.96810  0.17411  0.63822  1.0000
  H   H3855     1.0  0.86255  0.06340  0.49061  1.0000
  C   C2175     1.0  0.81677  0.00467  0.60193  1.0000
  H   H3856     1.0  0.72546  0.43586  0.71720  1.0000
  C   C2176     1.0  0.94163  0.08501  0.48031  1.0000
  H   H3857     1.0  0.91321  0.09026  0.61428  1.0000
  H   H3858     1.0  0.93300  0.28641  0.65402  1.0000
  H   H3859     1.0  0.81737  0.47598  0.56888  1.0000
  H   H3860     1.0  0.93563  0.26514  0.63905  1.0000
  C   C2177     1.0  0.91386  0.43463  0.57970  1.0000
  C   C2178     1.0  0.93631  0.05996  0.48649  1.0000
  C   C2179     1.0  0.93542  0.09438  0.58720  1.0000
  C   C2180     1.0  0.97217  0.15004  0.64330  1.0000
  H   H3861     1.0  0.91501  0.02115  0.48738  1.0000
  H   H3862     1.0  0.71985  0.45544  0.68688  1.0000
  H   H3863     1.0  0.74556  0.02624  0.53772  1.0000
  H   H3864     1.0  0.66741  0.00290  0.61472  1.0000
  H   H3865     1.0  0.97347  0.21717  0.67733  1.0000
  H   H3866     1.0  0.92025  0.22629  0.68090  1.0000
  H   H3867     1.0  0.66029  0.98691  0.50306  1.0000
  C   C2181     1.0  0.93220  0.01884  0.58939  1.0000
  H   H3868     1.0  0.76002  0.45097  0.69215  1.0000
  H   H3869     1.0  0.94294  0.20052  0.68019  1.0000
  H   H3870     1.0  0.91311  0.28509  0.68355  1.0000
  H   H3871     1.0  0.77496  0.41757  0.68602  1.0000
  C   C2182     1.0  0.94073  0.22412  0.66093  1.0000
  H   H3872     1.0  0.89909  0.10991  0.51284  1.0000
  C   C2183     1.0  0.92887  0.09932  0.61127  1.0000
  C   C2184     1.0  0.95273  0.15724  0.59644  1.0000
  C   C2185     1.0  0.88268  0.11066  0.50893  1.0000
  C   C2186     1.0  0.65565  0.98948  0.61650  1.0000
  H   H3873     1.0  0.94799  0.23704  0.63443  1.0000
  C   C2187     1.0  0.84348  0.04179  0.71953  1.0000
  H   H3874     1.0  0.97908  0.40818  0.61629  1.0000
  H   H3875     1.0  0.83581  0.03152  0.58949  1.0000
  H   H3876     1.0  0.83004  0.44699  0.58484  1.0000
  H   H3877     1.0  0.92580  0.23442  0.65609  1.0000
  H   H3878     1.0  0.72586  0.02634  0.52685  1.0000
  H   H3879     1.0  0.91427  0.05251  0.58124  1.0000
  H   H3880     1.0  0.90204  0.99392  0.51660  1.0000
  H   H3881     1.0  0.95416  0.11805  0.55317  1.0000
  C   C2188     1.0  0.74967  0.99210  0.51440  1.0000
  H   H3882     1.0  0.98053  0.47516  0.56944  1.0000
  H   H3883     1.0  0.78473  0.43919  0.70816  1.0000
  C   C2189     1.0  0.74037  0.99894  0.60046  1.0000
  H   H3884     1.0  0.83218  0.00907  0.58111  1.0000
  H   H3885     1.0  0.94489  0.01664  0.50135  1.0000
  C   C2190     1.0  0.94985  0.25868  0.66822  1.0000
  H   H3886     1.0  0.80998  0.39363  0.67558  1.0000
  N   N117      1.0  0.94929  0.08161  0.57625  1.0000
  H   H3887     1.0  0.98108  0.25488  0.61892  1.0000
  H   H3888     1.0  0.80776  0.39984  0.71887  1.0000
  H   H3889     1.0  0.67436  0.39375  0.47488  1.0000
  C   C2191     1.0  0.74470  0.45375  0.70006  1.0000
  N   N118      1.0  0.97547  0.45901  0.64024  1.0000
  C   C2192     1.0  0.85336  0.42892  0.59810  1.0000
  C   C2193     1.0  0.85818  0.40625  0.59232  1.0000
  S   S517      1.0  0.69680  0.01968  0.69984  1.0000
  C   C2194     1.0  0.78176  0.99432  0.52623  1.0000
  H   H3890     1.0  0.96470  0.04860  0.58735  1.0000
  H   H3891     1.0  0.84081  0.45146  0.61926  1.0000
  H   H3892     1.0  0.83898  0.42672  0.60673  1.0000
  H   H3893     1.0  0.86490  0.39113  0.59964  1.0000
  H   H3894     1.0  0.84169  0.40277  0.59000  1.0000
  H   H3895     1.0  0.87162  0.40739  0.58318  1.0000
  C   C2195     1.0  0.90991  0.03114  0.49576  1.0000
  H   H3896     1.0  0.92297  0.11848  0.60816  1.0000
  Fe  Fe260     1.0  0.72300  0.01225  0.68153  1.0000
  H   H3897     1.0  0.81329  0.98094  0.68835  1.0000
  H   H3898     1.0  0.97271  0.16502  0.60948  1.0000
  H   H3899     1.0  0.73136  0.42062  0.70373  1.0000
  H   H3900     1.0  0.68860  0.06173  0.48760  1.0000
  H   H3901     1.0  0.92511  0.98253  0.50411  1.0000
  H   H3902     1.0  0.93368  0.45006  0.65882  1.0000
  H   H3903     1.0  0.92346  0.02866  0.51417  1.0000
  H   H3904     1.0  0.93977  0.46324  0.63624  1.0000
  H   H3905     1.0  0.89885  0.10649  0.48922  1.0000
  C   C2196     1.0  0.81661  0.98854  0.56124  1.0000
  C   C2197     1.0  0.84002  0.45424  0.68588  1.0000
  C   C2198     1.0  0.74427  0.98216  0.53913  1.0000
  H   H3906     1.0  0.77706  0.99329  0.59190  1.0000
  C   C2199     1.0  0.93258  0.46816  0.58785  1.0000
  C   C2200     1.0  0.74485  0.02263  0.52780  1.0000
  H   H3907     1.0  0.93763  0.09689  0.62000  1.0000
  H   H3908     1.0  0.80018  0.41637  0.69378  1.0000
  S   S518      1.0  0.75294  0.99641  0.69283  1.0000
  H   H3909     1.0  0.85991  0.45105  0.57884  1.0000
  H   H3910     1.0  0.77207  0.99996  0.61593  1.0000
  C   C2201     1.0  0.81735  0.46788  0.68767  1.0000
  H   H3911     1.0  0.87555  0.12940  0.50545  1.0000
  N   N119      1.0  0.76015  0.41414  0.71484  1.0000
  H   H3912     1.0  0.82455  0.43593  0.71470  1.0000
  H   H3913     1.0  0.96716  0.28345  0.62315  1.0000
  C   C2202     1.0  0.77363  0.98204  0.61360  1.0000
  H   H3914     1.0  0.90374  0.30665  0.66993  1.0000
  H   H3915     1.0  0.81585  0.03156  0.71260  1.0000
  H   H3916     1.0  0.93335  0.42457  0.68103  1.0000
  H   H3917     1.0  0.72753  0.99051  0.60847  1.0000
  H   H3918     1.0  0.93243  0.10644  0.53821  1.0000
  H   H3919     1.0  0.69646  0.99454  0.48672  1.0000
  H   H3920     1.0  0.95252  0.14338  0.59075  1.0000
  H   H3921     1.0  0.93365  0.11377  0.58389  1.0000
  C   C2203     1.0  0.84715  0.44058  0.67577  1.0000
  N   N120      1.0  0.95930  0.23895  0.66041  1.0000
  H   H3922     1.0  0.98476  0.20665  0.66212  1.0000
  H   H3923     1.0  0.77964  0.99673  0.55984  1.0000
  H   H3924     1.0  0.70179  0.25811  0.71607  1.0000
  H   H3925     1.0  0.96394  0.42647  0.68014  1.0000
  H   H3926     1.0  0.94185  0.45273  0.68028  1.0000
  H   H3927     1.0  0.73457  0.37501  0.72105  1.0000
  C   C2204     1.0  0.91690  0.45590  0.57112  1.0000
  N   N121      1.0  0.79557  0.11104  0.63013  1.0000
  C   C2205     1.0  0.81975  0.09838  0.63265  1.0000
  C   C2206     1.0  0.79582  0.13723  0.62561  1.0000
  C   C2207     1.0  0.77880  0.10795  0.64315  1.0000
  C   C2208     1.0  0.78651  0.10089  0.62043  1.0000
  C   C2209     1.0  0.80307  0.09827  0.60710  1.0000
  C   C2210     1.0  0.82190  0.07150  0.63803  1.0000
  C   C2211     1.0  0.75304  0.12114  0.64313  1.0000
  C   C2212     1.0  0.81879  0.14484  0.61694  1.0000
  C   C2213     1.0  0.81506  0.17120  0.61134  1.0000
  C   C2214     1.0  0.79284  0.08519  0.59901  1.0000
  C   C2215     1.0  0.84768  0.05997  0.63820  1.0000
  C   C2216     1.0  0.73858  0.11812  0.65709  1.0000
  H   H3928     1.0  0.82568  0.10655  0.63981  1.0000
  H   H3929     1.0  0.83317  0.10067  0.62359  1.0000
  H   H3930     1.0  0.78089  0.14552  0.62024  1.0000
  H   H3931     1.0  0.79295  0.14627  0.63431  1.0000
  H   H3932     1.0  0.78583  0.11392  0.65070  1.0000
  H   H3933     1.0  0.77738  0.08907  0.64690  1.0000
  H   H3934     1.0  0.78163  0.08331  0.62507  1.0000
  H   H3935     1.0  0.76977  0.11197  0.61789  1.0000
  H   H3936     1.0  0.82068  0.08808  0.60852  1.0000
  H   H3937     1.0  0.80506  0.11583  0.60107  1.0000
  H   H3938     1.0  0.81233  0.06822  0.64834  1.0000
  H   H3939     1.0  0.81463  0.06241  0.63191  1.0000
  H   H3940     1.0  0.74417  0.11400  0.63682  1.0000
  H   H3941     1.0  0.75248  0.14031  0.63948  1.0000
  H   H3942     1.0  0.83299  0.14136  0.62302  1.0000
  H   H3943     1.0  0.82517  0.13533  0.60854  1.0000
  H   H3944     1.0  0.83199  0.17619  0.60556  1.0000
  H   H3945     1.0  0.80177  0.17559  0.60467  1.0000
  H   H3946     1.0  0.80913  0.18165  0.61945  1.0000
  H   H3947     1.0  0.80467  0.08424  0.58933  1.0000
  H   H3948     1.0  0.79154  0.06691  0.60424  1.0000
  H   H3949     1.0  0.81150  0.46111  0.63872  1.0000
  H   H3950     1.0  0.85750  0.05982  0.62798  1.0000
  H   H3951     1.0  0.85647  0.06950  0.64337  1.0000
  H   H3952     1.0  0.84842  0.04147  0.64347  1.0000
  H   H3953     1.0  0.66121  0.02357  0.48606  1.0000
  C   C2217     1.0  0.91904  0.29410  0.67335  1.0000
  H   H3954     1.0  0.91994  0.18377  0.66817  1.0000
  H   H3955     1.0  0.91151  0.07012  0.50843  1.0000
  C   C2218     1.0  0.89883  0.07077  0.50173  1.0000
  H   H3956     1.0  0.65904  0.00137  0.64080  1.0000
  H   H3957     1.0  0.97854  0.07692  0.48301  1.0000
  C   C2219     1.0  0.93631  0.08849  0.56463  1.0000
  N   N122      1.0  0.91064  0.05711  0.49073  1.0000
  H   H3958     1.0  0.93297  0.30437  0.67343  1.0000
  H   H3959     1.0  0.95906  0.04625  0.57190  1.0000
  C   C2220     1.0  0.94607  0.08892  0.60010  1.0000
  H   H3960     1.0  0.81376  0.37484  0.69111  1.0000
  H   H3961     1.0  0.71275  0.15742  0.71473  1.0000
  H   H3962     1.0  0.90392  0.18945  0.68409  1.0000
  C   C2221     1.0  0.74403  0.06643  0.51915  1.0000
  H   H3963     1.0  0.72529  0.06891  0.51789  1.0000
  H   H3964     1.0  0.69761  0.19781  0.71256  1.0000
  C   C2222     1.0  0.96803  0.08444  0.47497  1.0000
  H   H3965     1.0  0.72452  0.23245  0.71562  1.0000
  H   H3966     1.0  0.92335  0.13695  0.53999  1.0000
  H   H3967     1.0  0.94546  0.25150  0.67894  1.0000
  H   H3968     1.0  0.94844  0.20969  0.65514  1.0000
  H   H3969     1.0  0.74481  0.06972  0.52909  1.0000
  H   H3970     1.0  0.90711  0.42142  0.57646  1.0000
  H   H3971     1.0  0.96673  0.31326  0.63758  1.0000
  H   H3972     1.0  0.98453  0.23596  0.64224  1.0000
  C   C2223     1.0  0.92814  0.27621  0.66403  1.0000
  C   C2224     1.0  0.97556  0.37588  0.66943  1.0000
  H   H3973     1.0  0.70741  0.46936  0.70119  1.0000
  H   H3974     1.0  0.97263  0.10764  0.57073  1.0000
  H   H3975     1.0  0.98345  0.08160  0.58103  1.0000
  C   C2225     1.0  0.72339  0.46618  0.69357  1.0000
  H   H3976     1.0  0.96366  0.26956  0.66749  1.0000
  H   H3977     1.0  0.96582  0.45777  0.55387  1.0000
  H   H3978     1.0  0.66612  0.07668  0.49887  1.0000
  H   H3979     1.0  0.91533  0.01256  0.59422  1.0000
  H   H3980     1.0  0.86961  0.46688  0.60339  1.0000
  H   H3981     1.0  0.68920  0.14038  0.71808  1.0000
  C   C2226     1.0  0.65866  0.03961  0.47844  1.0000
  C   C2227     1.0  0.82781  0.46791  0.61813  1.0000
  C   C2228     1.0  0.92335  0.11850  0.54524  1.0000
  H   H3982     1.0  0.74028  0.01711  0.60195  1.0000
  H   H3983     1.0  0.94570  0.01111  0.59580  1.0000
  H   H3984     1.0  0.79847  0.44945  0.62794  1.0000
  C   C2229     1.0  0.94727  0.43565  0.67668  1.0000
  H   H3985     1.0  0.65425  0.21793  0.71137  1.0000
  C   C2230     1.0  0.80616  0.46470  0.62887  1.0000
  H   H3986     1.0  0.84124  0.05956  0.71328  1.0000
  H   H3987     1.0  0.72711  0.11435  0.71813  1.0000
  C   C2231     1.0  0.98057  0.43665  0.63448  1.0000
  H   H3988     1.0  0.95221  0.26803  0.61515  1.0000
  C   C2232     1.0  0.82075  0.47470  0.60416  1.0000
  H   H3989     1.0  0.85361  0.00270  0.59205  1.0000
  H   H3990     1.0  0.80827  0.46301  0.60369  1.0000
  H   H3991     1.0  0.80280  0.98844  0.62846  1.0000
  C   C2233     1.0  0.92683  0.47241  0.57513  1.0000
  C   C2234     1.0  0.76515  0.98445  0.60025  1.0000
  N   N123      1.0  0.84057  0.47429  0.59236  1.0000
  C   C2235     1.0  0.71728  0.98245  0.54080  1.0000
  C   C2236     1.0  0.82039  0.03196  0.72226  1.0000
  H   H3992     1.0  0.77977  0.02201  0.72238  1.0000
  C   C2237     1.0  0.70250  0.14573  0.72250  1.0000
  Fe  Fe261     1.0  0.73047  0.03302  0.95871  1.0000
  S   S519      1.0  0.71797  0.07054  0.94995  1.0000
  H   H3993     1.0  0.67743  0.46070  0.95465  1.0000
  Fe  Fe262     1.0  0.77381  0.02814  0.93692  1.0000
  S   S520      1.0  0.76413  0.06578  0.92727  1.0000
  S   S521      1.0  0.80836  0.01146  0.92561  1.0000
  Fe  Fe263     1.0  0.75626  0.07453  0.94777  1.0000
  S   S522      1.0  0.76526  0.10573  0.95472  1.0000
  Fe  Fe264     1.0  0.72715  0.05762  0.93040  1.0000
  S   S523      1.0  0.70873  0.06784  0.91222  1.0000
  S   S524      1.0  0.76827  0.03745  0.95725  1.0000
  S   S525      1.0  0.73729  0.01964  0.93931  1.0000
  H   H3994     1.0  0.82389  0.03827  0.94367  1.0000
  C   C2238     1.0  0.66290  0.46343  0.79580  1.0000
  H   H3995     1.0  0.73371  0.46591  0.77090  1.0000
  H   H3996     1.0  0.75385  0.05516  0.73168  1.0000
  C   C2239     1.0  0.82153  0.17947  0.94882  1.0000
  H   H3997     1.0  0.82576  0.16850  0.91757  1.0000
  H   H3998     1.0  0.84119  0.41076  0.95634  1.0000
  H   H3999     1.0  0.66284  0.05015  0.88209  1.0000
  H   H4000     1.0  0.74398  0.41242  0.73543  1.0000
  H   H4001     1.0  0.67417  0.08154  0.74555  1.0000
  C   C2240     1.0  0.69486  0.19867  0.72329  1.0000
  H   H4002     1.0  0.68620  0.06444  0.86071  1.0000
  C   C2241     1.0  0.65688  0.47570  0.73071  1.0000
  C   C2242     1.0  0.68232  0.02639  0.81035  1.0000
  H   H4003     1.0  0.85366  0.24634  0.91614  1.0000
  H   H4004     1.0  0.76861  0.00433  0.91150  1.0000
  H   H4005     1.0  0.67489  0.01548  0.75206  1.0000
  H   H4006     1.0  0.67205  0.05362  0.84990  1.0000
  C   C2243     1.0  0.72345  0.47092  0.76266  1.0000
  H   H4007     1.0  0.84848  0.04339  0.72891  1.0000
  H   H4008     1.0  0.69862  0.47055  0.79526  1.0000
  C   C2244     1.0  0.65956  0.42663  0.78855  1.0000
  H   H4009     1.0  0.67366  0.11858  0.89196  1.0000
  H   H4010     1.0  0.73347  0.03427  0.73770  1.0000
  H   H4011     1.0  0.69146  0.22707  0.73468  1.0000
  H   H4012     1.0  0.66646  0.09989  0.95667  1.0000
  H   H4013     1.0  0.83514  0.22036  0.93519  1.0000
  C   C2245     1.0  0.83164  0.09193  0.96410  1.0000
  H   H4014     1.0  0.88885  0.97809  0.95234  1.0000
  H   H4015     1.0  0.71333  0.02763  0.81852  1.0000
  H   H4016     1.0  0.70992  0.11093  0.73450  1.0000
  H   H4017     1.0  0.76705  0.44152  0.72373  1.0000
  H   H4018     1.0  0.73341  0.47490  0.82938  1.0000
  H   H4019     1.0  0.67194  0.03114  0.96262  1.0000
  C   C2246     1.0  0.74768  0.04173  0.74014  1.0000
  H   H4020     1.0  0.81258  0.21221  0.96603  1.0000
  C   C2247     1.0  0.87170  0.10841  0.93317  1.0000
  C   C2248     1.0  0.68583  0.05552  0.90863  1.0000
  H   H4021     1.0  0.80521  0.18836  0.92646  1.0000
  H   H4022     1.0  0.69186  0.01104  0.80575  1.0000
  H   H4023     1.0  0.67144  0.41425  0.80763  1.0000
  C   C2249     1.0  0.68987  0.44959  0.77578  1.0000
  C   C2250     1.0  0.98247  0.34251  0.96870  1.0000
  H   H4024     1.0  0.71370  0.40031  0.72534  1.0000
  H   H4025     1.0  0.88295  0.10733  0.94067  1.0000
  H   H4026     1.0  0.66175  0.08059  0.77250  1.0000
  H   H4027     1.0  0.67108  0.10461  0.87205  1.0000
  H   H4028     1.0  0.82394  0.01073  0.74120  1.0000
  C   C2251     1.0  0.68002  0.18874  0.75439  1.0000
  H   H4029     1.0  0.66526  0.09043  0.78664  1.0000
  H   H4030     1.0  0.69695  0.06861  0.84317  1.0000
  H   H4031     1.0  0.86789  0.05490  0.92551  1.0000
  H   H4032     1.0  0.75617  0.99481  0.88621  1.0000
  H   H4033     1.0  0.85972  0.18132  0.91890  1.0000
  C   C2252     1.0  0.65615  0.09997  0.94889  1.0000
  H   H4034     1.0  0.69101  0.06885  0.72403  1.0000
  H   H4035     1.0  0.87647  0.14307  0.92285  1.0000
  C   C2253     1.0  0.69429  0.02656  0.82196  1.0000
  H   H4036     1.0  0.80316  0.98024  0.87233  1.0000
  H   H4037     1.0  0.67990  0.20237  0.77212  1.0000
  C   C2254     1.0  0.68082  0.06811  0.85085  1.0000
  H   H4038     1.0  0.67411  0.37787  0.78989  1.0000
  H   H4039     1.0  0.76604  0.99812  0.73086  1.0000
  C   C2255     1.0  0.82789  0.99248  0.95807  1.0000
  H   H4040     1.0  0.78967  0.15459  0.94281  1.0000
  C   C2256     1.0  0.71944  0.12330  0.72676  1.0000
  H   H4041     1.0  0.80995  0.16685  0.95471  1.0000
  C   C2257     1.0  0.69694  0.47333  0.76801  1.0000
  N   N124      1.0  0.66996  0.05253  0.78886  1.0000
  C   C2258     1.0  0.82196  0.19447  0.96976  1.0000
  H   H4042     1.0  0.78164  0.03003  0.74624  1.0000
  N   N125      1.0  0.66547  0.45120  0.78411  1.0000
  C   C2259     1.0  0.81681  0.17087  0.92775  1.0000
  C   C2260     1.0  0.86149  0.13402  0.92826  1.0000
  C   C2261     1.0  0.69014  0.15821  0.73440  1.0000
  H   H4043     1.0  0.67171  0.14303  0.87841  1.0000
  H   H4044     1.0  0.69148  0.43800  0.76839  1.0000
  H   H4045     1.0  0.81007  0.13405  0.93368  1.0000
  H   H4046     1.0  0.69433  0.40848  0.79367  1.0000
  H   H4047     1.0  0.66675  0.22367  0.75955  1.0000
  H   H4048     1.0  0.71635  0.10738  0.76089  1.0000
  H   H4049     1.0  0.86829  0.22154  0.90830  1.0000
  C   C2262     1.0  0.67921  0.47131  0.81482  1.0000
  H   H4050     1.0  0.70367  0.44087  0.78180  1.0000
  H   H4051     1.0  0.76101  0.00968  0.75209  1.0000
  H   H4052     1.0  0.67093  0.04423  0.92878  1.0000
  C   C2263     1.0  0.66867  0.20489  0.76446  1.0000
  H   H4053     1.0  0.69960  0.03179  0.77810  1.0000
  H   H4054     1.0  0.83590  0.13484  0.94643  1.0000
  C   C2264     1.0  0.81119  0.08964  0.95966  1.0000
  C   C2265     1.0  0.69791  0.08012  0.77353  1.0000
  C   C2266     1.0  0.79000  0.12363  0.96902  1.0000
  H   H4055     1.0  0.84985  0.13389  0.92120  1.0000
  C   C2267     1.0  0.66001  0.99807  0.96722  1.0000
  H   H4056     1.0  0.69054  0.11842  0.77198  1.0000
  H   H4057     1.0  0.80847  0.44507  0.95471  1.0000
  C   C2268     1.0  0.75634  0.00522  0.90457  1.0000
  C   C2269     1.0  0.85736  0.01309  0.94237  1.0000
  H   H4058     1.0  0.66949  0.06420  0.94667  1.0000
  C   C2270     1.0  0.84204  0.21327  0.92589  1.0000
  C   C2271     1.0  0.68316  0.01477  0.76078  1.0000
  C   C2272     1.0  0.66421  0.09169  0.84895  1.0000
  H   H4059     1.0  0.79788  0.98818  0.75409  1.0000
  H   H4060     1.0  0.69627  0.06456  0.88753  1.0000
  H   H4061     1.0  0.81168  0.07598  0.95411  1.0000
  H   H4062     1.0  0.84464  0.04480  0.92025  1.0000
  H   H4063     1.0  0.69779  0.19313  0.74987  1.0000
  H   H4064     1.0  0.72891  0.45746  0.75612  1.0000
  C   C2273     1.0  0.79035  0.10579  0.96184  1.0000
  H   H4065     1.0  0.70164  0.01791  0.75713  1.0000
  H   H4066     1.0  0.86141  0.14663  0.94603  1.0000
  H   H4067     1.0  0.66884  0.05069  0.76222  1.0000
  H   H4068     1.0  0.67779  0.14677  0.74090  1.0000
  H   H4069     1.0  0.69276  0.01006  0.82927  1.0000
  H   H4070     1.0  0.70275  0.04922  0.79622  1.0000
  C   C2274     1.0  0.66925  0.43723  0.74345  1.0000
  C   C2275     1.0  0.69759  0.46418  0.73378  1.0000
  H   H4071     1.0  0.66640  0.10661  0.93914  1.0000
  H   H4072     1.0  0.87594  0.22499  0.92358  1.0000
  C   C2276     1.0  0.67526  0.40917  0.79769  1.0000
  C   C2277     1.0  0.81534  0.43881  0.96384  1.0000
  C   C2278     1.0  0.65916  0.18212  0.72282  1.0000
  C   C2279     1.0  0.85206  0.18656  0.92869  1.0000
  H   H4073     1.0  0.70597  0.42969  0.74534  1.0000
  H   H4074     1.0  0.66058  0.02497  0.94955  1.0000
  C   C2280     1.0  0.86122  0.22730  0.91799  1.0000
  C   C2281     1.0  0.84799  0.14639  0.93997  1.0000
  C   C2282     1.0  0.67250  0.07644  0.78048  1.0000
  C   C2283     1.0  0.88014  0.01682  0.96495  1.0000
  H   H4075     1.0  0.74017  0.05051  0.74883  1.0000
  N   N126      1.0  0.83463  0.17083  0.93631  1.0000
  H   H4076     1.0  0.96819  0.33500  0.96637  1.0000
  H   H4077     1.0  0.68336  0.99687  0.76683  1.0000
  C   C2284     1.0  0.84891  0.05312  0.92787  1.0000
  C   C2285     1.0  0.68361  0.04941  0.80003  1.0000
  C   C2286     1.0  0.72944  0.38762  0.72805  1.0000
  H   H4078     1.0  0.85045  0.99005  0.91080  1.0000
  C   C2287     1.0  0.84727  0.98211  0.87580  1.0000
  H   H4079     1.0  0.68736  0.10791  0.75755  1.0000
  C   C2288     1.0  0.68523  0.46095  0.80210  1.0000
  C   C2289     1.0  0.84318  0.03849  0.94161  1.0000
  C   C2290     1.0  0.76817  0.02216  0.74339  1.0000
  H   H4080     1.0  0.66670  0.46153  0.82229  1.0000
  C   C2291     1.0  0.66767  0.09136  0.73679  1.0000
  H   H4081     1.0  0.67748  0.06457  0.80545  1.0000
  C   C2292     1.0  0.81875  0.98166  0.92404  1.0000
  C   C2293     1.0  0.66910  0.04569  0.91865  1.0000
  H   H4082     1.0  0.65984  0.41860  0.77977  1.0000
  H   H4083     1.0  0.82363  0.98775  0.94924  1.0000
  N   N127      1.0  0.85304  0.99695  0.95552  1.0000
  H   H4084     1.0  0.84792  0.07996  0.96186  1.0000
  N   N128      1.0  0.80276  0.99340  0.73268  1.0000
  C   C2294     1.0  0.72180  0.37367  0.74177  1.0000
  H   H4085     1.0  0.78372  0.00216  0.88778  1.0000
  C   C2295     1.0  0.79779  0.41412  0.72424  1.0000
  H   H4086     1.0  0.77122  0.17212  0.92289  1.0000
  C   C2296     1.0  0.78251  0.15447  0.92366  1.0000
  H   H4087     1.0  0.70538  0.06752  0.76661  1.0000
  H   H4088     1.0  0.77086  0.14094  0.92762  1.0000
  N   N129      1.0  0.67722  0.18308  0.73099  1.0000
  H   H4089     1.0  0.84167  0.02294  0.96845  1.0000
  C   C2297     1.0  0.66429  0.04923  0.89226  1.0000
  H   H4090     1.0  0.85027  0.19454  0.95328  1.0000
  C   C2298     1.0  0.80007  0.15228  0.93294  1.0000
  C   C2299     1.0  0.68919  0.22510  0.72475  1.0000
  H   H4091     1.0  0.79118  0.40629  0.73459  1.0000
  H   H4092     1.0  0.70986  0.07800  0.78074  1.0000
  H   H4093     1.0  0.66382  0.02375  0.81442  1.0000
  H   H4094     1.0  0.67776  0.01547  0.78746  1.0000
  H   H4095     1.0  0.83875  0.99933  0.87081  1.0000
  C   C2300     1.0  0.83151  0.11021  0.97093  1.0000
  C   C2301     1.0  0.66914  0.03345  0.76885  1.0000
  C   C2302     1.0  0.83709  0.18305  0.95833  1.0000
  H   H4096     1.0  0.68129  0.37202  0.80629  1.0000
  H   H4097     1.0  0.71262  0.19199  0.72614  1.0000
  H   H4098     1.0  0.65542  0.44274  0.95546  1.0000
  H   H4099     1.0  0.71639  0.38544  0.74925  1.0000
  C   C2303     1.0  0.69225  0.44247  0.74122  1.0000
  H   H4100     1.0  0.69358  0.44235  0.80455  1.0000
  C   C2304     1.0  0.68012  0.03280  0.78112  1.0000
  C   C2305     1.0  0.67012  0.38411  0.79953  1.0000
  H   H4101     1.0  0.66628  0.47240  0.91508  1.0000
  H   H4102     1.0  0.84669  0.16589  0.96268  1.0000
  H   H4103     1.0  0.75007  0.02409  0.90083  1.0000
  C   C2306     1.0  0.68336  0.05713  0.89540  1.0000
  C   C2307     1.0  0.69797  0.10500  0.76552  1.0000
  C   C2308     1.0  0.76893  0.99276  0.89300  1.0000
  H   H4104     1.0  0.83807  0.07098  0.92755  1.0000
  H   H4105     1.0  0.80634  0.04472  0.72705  1.0000
  H   H4106     1.0  0.86749  0.18414  0.93380  1.0000
  H   H4107     1.0  0.73409  0.12756  0.73059  1.0000
  H   H4108     1.0  0.82042  0.98085  0.89307  1.0000
  C   C2309     1.0  0.77907  0.00888  0.73164  1.0000
  H   H4109     1.0  0.68244  0.17029  0.75982  1.0000
  H   H4110     1.0  0.73638  0.35952  0.74469  1.0000
  H   H4111     1.0  0.79196  0.15152  0.91367  1.0000
  H   H4112     1.0  0.80919  0.19621  0.94649  1.0000
  H   H4113     1.0  0.70409  0.15794  0.74021  1.0000
  C   C2310     1.0  0.66441  0.19089  0.74377  1.0000
  H   H4114     1.0  0.87649  0.01423  0.93924  1.0000
  H   H4115     1.0  0.84739  0.04776  0.94877  1.0000
  H   H4116     1.0  0.85721  0.09813  0.93761  1.0000
  H   H4117     1.0  0.69759  0.99074  0.95901  1.0000
  H   H4118     1.0  0.82755  0.21666  0.92008  1.0000
  H   H4119     1.0  0.76424  0.38668  0.73197  1.0000
  H   H4120     1.0  0.88265  0.10037  0.92475  1.0000
  C   C2311     1.0  0.83386  0.41931  0.96480  1.0000
  H   H4121     1.0  0.85284  0.00561  0.93449  1.0000
  H   H4122     1.0  0.69549  0.46973  0.81898  1.0000
  H   H4123     1.0  0.68563  0.04168  0.82699  1.0000
  C   C2312     1.0  0.85627  0.00797  0.96665  1.0000
  H   H4124     1.0  0.81533  0.00889  0.95969  1.0000
  S   S526      1.0  0.66362  0.40948  0.75270  1.0000
  C   C2313     1.0  0.81526  0.42982  0.72480  1.0000
  H   H4125     1.0  0.67353  0.10567  0.84998  1.0000
  H   H4126     1.0  0.83979  0.99685  0.72791  1.0000
  C   C2314     1.0  0.82241  0.00738  0.73138  1.0000
  H   H4127     1.0  0.70638  0.36542  0.74167  1.0000
  H   H4128     1.0  0.66077  0.09532  0.83863  1.0000
  H   H4129     1.0  0.80606  0.44539  0.72935  1.0000
  H   H4130     1.0  0.74076  0.99711  0.91000  1.0000
  H   H4131     1.0  0.65505  0.20929  0.74199  1.0000
  C   C2315     1.0  0.66191  0.12962  0.88515  1.0000
  S   S527      1.0  0.72042  0.98838  0.73239  1.0000
  C   C2316     1.0  0.67741  0.08425  0.72456  1.0000
  H   H4132     1.0  0.86056  0.98533  0.88110  1.0000
  C   C2317     1.0  0.65697  0.02438  0.96041  1.0000
  C   C2318     1.0  0.68120  0.98341  0.95983  1.0000
  H   H4133     1.0  0.82876  0.41969  0.73077  1.0000
  H   H4134     1.0  0.88323  0.02984  0.95574  1.0000
  C   C2319     1.0  0.65461  0.11397  0.87729  1.0000
  C   C2320     1.0  0.75023  0.40047  0.72800  1.0000
  H   H4135     1.0  0.67084  0.23325  0.72360  1.0000
  H   H4136     1.0  0.66807  0.45805  0.93971  1.0000
  C   C2321     1.0  0.66210  0.45924  0.95034  1.0000
  H   H4137     1.0  0.71539  0.46793  0.73207  1.0000
  H   H4138     1.0  0.67825  0.98313  0.94975  1.0000
  H   H4139     1.0  0.91036  0.98166  0.85288  1.0000
  H   H4140     1.0  0.89510  0.00190  0.96469  1.0000
  H   H4141     1.0  0.77398  0.13623  0.97078  1.0000
  H   H4142     1.0  0.67933  0.55239  0.14523  1.0000
  H   H4143     1.0  0.68947  0.61273  0.10993  1.0000
  H   H4144     1.0  0.72479  0.86851  0.19156  1.0000
  Fe  Fe265     1.0  0.79409  0.54060  0.19612  1.0000
  S   S528      1.0  0.75659  0.55563  0.20338  1.0000
  S   S529      1.0  0.82546  0.54875  0.20326  1.0000
  Fe  Fe266     1.0  0.77819  0.50738  0.18079  1.0000
  S   S530      1.0  0.73979  0.52044  0.18750  1.0000
  H   H4145     1.0  0.78689  0.93376  0.19620  1.0000
  Fe  Fe267     1.0  0.75015  0.55653  0.18278  1.0000
  S   S531      1.0  0.73667  0.58789  0.16790  1.0000
  C   C2322     1.0  0.70543  0.87254  0.12068  1.0000
  S   S532      1.0  0.78842  0.54351  0.17522  1.0000
  S   S533      1.0  0.78830  0.50294  0.20082  1.0000
  H   H4146     1.0  0.81770  0.60755  0.18526  1.0000
  H   H4147     1.0  0.75471  0.93524  0.22106  1.0000
  C   C2323     1.0  0.84789  0.57373  0.21499  1.0000
  C   C2324     1.0  0.66840  0.48111  0.03491  1.0000
  H   H4148     1.0  0.71130  0.91171  0.19023  1.0000
  C   C2325     1.0  0.82656  0.57230  0.21125  1.0000
  H   H4149     1.0  0.69304  0.59370  0.14170  1.0000
  H   H4150     1.0  0.79085  0.95645  0.97998  1.0000
  C   C2326     1.0  0.66314  0.63304  0.16782  1.0000
  H   H4151     1.0  0.69054  0.56305  0.01212  1.0000
  C   C2327     1.0  0.70380  0.62247  0.15729  1.0000
  C   C2328     1.0  0.71583  0.55004  0.14624  1.0000
  S   S534      1.0  0.67657  0.52851  0.97600  1.0000
  N   N130      1.0  0.68002  0.84867  0.11266  1.0000
  H   H4152     1.0  0.67889  0.65169  0.14931  1.0000
  C   C2329     1.0  0.68922  0.59970  0.17831  1.0000
  C   C2330     1.0  0.70777  0.60393  0.16785  1.0000
  H   H4153     1.0  0.66078  0.59418  0.98943  1.0000
  C   C2331     1.0  0.75528  0.54227  0.00070  1.0000
  H   H4154     1.0  0.69210  0.58552  0.18651  1.0000
  H   H4155     1.0  0.70531  0.48597  0.13389  1.0000
  H   H4156     1.0  0.71866  0.53057  0.14929  1.0000
  H   H4157     1.0  0.69285  0.67155  0.11556  1.0000
  C   C2332     1.0  0.70744  0.48274  0.10703  1.0000
  H   H4158     1.0  0.71199  0.55809  0.15530  1.0000
  H   H4159     1.0  0.74600  0.48309  0.03045  1.0000
  H   H4160     1.0  0.73240  0.55517  0.14003  1.0000
  C   C2333     1.0  0.78111  0.95689  0.17808  1.0000
  H   H4161     1.0  0.77141  0.53558  0.99398  1.0000
  H   H4162     1.0  0.77655  0.92098  0.18476  1.0000
  C   C2334     1.0  0.72183  0.67033  0.17014  1.0000
  H   H4163     1.0  0.70776  0.58802  0.12595  1.0000
  H   H4164     1.0  0.82345  0.97781  0.97939  1.0000
  H   H4165     1.0  0.69918  0.54824  0.13019  1.0000
  H   H4166     1.0  0.70345  0.49839  0.11193  1.0000
  H   H4167     1.0  0.65734  0.83523  0.10317  1.0000
  H   H4168     1.0  0.71476  0.90585  0.10916  1.0000
  C   C2335     1.0  0.68157  0.63696  0.15726  1.0000
  N   N131      1.0  0.73126  0.48247  0.01323  1.0000
  H   H4169     1.0  0.70043  0.55310  0.98951  1.0000
  N   N132      1.0  0.74738  0.64114  0.18607  1.0000
  H   H4170     1.0  0.69556  0.80300  0.12946  1.0000
  H   H4171     1.0  0.79023  0.58828  0.21146  1.0000
  C   C2336     1.0  0.65992  0.54579  0.01805  1.0000
  C   C2337     1.0  0.67119  0.53457  0.99229  1.0000
  N   N133      1.0  0.66942  0.59607  0.12797  1.0000
  C   C2338     1.0  0.70687  0.49079  0.02041  1.0000
  H   H4172     1.0  0.72600  0.88396  0.17479  1.0000
  H   H4173     1.0  0.74146  0.55147  0.99473  1.0000
  H   H4174     1.0  0.69383  0.90867  0.12426  1.0000
  H   H4175     1.0  0.72455  0.89733  0.12494  1.0000
  H   H4176     1.0  0.78008  0.97322  0.18204  1.0000
  C   C2339     1.0  0.67044  0.83598  0.12629  1.0000
  H   H4177     1.0  0.65541  0.57846  0.15653  1.0000
  C   C2340     1.0  0.70155  0.83359  0.10623  1.0000
  C   C2341     1.0  0.67439  0.61758  0.11778  1.0000
  H   H4178     1.0  0.74228  0.49087  0.09793  1.0000
  H   H4179     1.0  0.77109  0.68132  0.17649  1.0000
  H   H4180     1.0  0.70576  0.64942  0.10541  1.0000
  C   C2342     1.0  0.71322  0.84421  0.09216  1.0000
  C   C2343     1.0  0.81005  0.60320  0.17740  1.0000
  H   H4181     1.0  0.70592  0.69444  0.15449  1.0000
  H   H4182     1.0  0.77556  0.61866  0.19548  1.0000
  C   C2344     1.0  0.77422  0.93694  0.18924  1.0000
  C   C2345     1.0  0.73630  0.82846  0.08751  1.0000
  H   H4183     1.0  0.77169  0.91090  0.21440  1.0000
  H   H4184     1.0  0.82381  0.60286  0.16839  1.0000
  H   H4185     1.0  0.71570  0.82908  0.11233  1.0000
  H   H4186     1.0  0.78902  0.66003  0.18711  1.0000
  H   H4187     1.0  0.66997  0.82538  0.15367  1.0000
  H   H4188     1.0  0.71815  0.62591  0.14922  1.0000
  H   H4189     1.0  0.70075  0.86543  0.13135  1.0000
  H   H4190     1.0  0.79354  0.62197  0.22158  1.0000
  H   H4191     1.0  0.78277  0.61758  0.16574  1.0000
  H   H4192     1.0  0.72218  0.86217  0.11642  1.0000
  H   H4193     1.0  0.74158  0.60599  0.20900  1.0000
  H   H4194     1.0  0.70153  0.84573  0.08485  1.0000
  H   H4195     1.0  0.71745  0.86185  0.09192  1.0000
  H   H4196     1.0  0.74829  0.95900  0.20098  1.0000
  C   C2346     1.0  0.67637  0.57409  0.10814  1.0000
  H   H4197     1.0  0.78858  0.70053  0.18991  1.0000
  H   H4198     1.0  0.92316  0.82463  0.21245  1.0000
  C   C2347     1.0  0.84970  0.59244  0.22107  1.0000
  C   C2348     1.0  0.71311  0.93240  0.21167  1.0000
  Fe  Fe268     1.0  0.75055  0.51786  0.20736  1.0000
  C   C2349     1.0  0.70401  0.60692  0.21322  1.0000
  H   H4199     1.0  0.67549  0.66408  0.10522  1.0000
  H   H4200     1.0  0.73922  0.91718  0.18033  1.0000
  H   H4201     1.0  0.74929  0.82700  0.09411  1.0000
  H   H4202     1.0  0.73301  0.81058  0.08734  1.0000
  H   H4203     1.0  0.74407  0.83620  0.07734  1.0000
  H   H4204     1.0  0.67447  0.58965  0.10012  1.0000
  C   C2350     1.0  0.70741  0.95375  0.21896  1.0000
  C   C2351     1.0  0.68857  0.81883  0.13418  1.0000
  H   H4205     1.0  0.73471  0.67305  0.19443  1.0000
  C   C2352     1.0  0.72549  0.61933  0.20791  1.0000
  C   C2353     1.0  0.75100  0.65968  0.19311  1.0000
  C   C2354     1.0  0.70988  0.89765  0.11967  1.0000
  C   C2355     1.0  0.68366  0.95965  0.17537  1.0000
  H   H4206     1.0  0.69473  0.63151  0.12903  1.0000
  C   C2356     1.0  0.66887  0.55394  0.10373  1.0000
  H   H4207     1.0  0.93953  0.68123  0.21839  1.0000
  H   H4208     1.0  0.66307  0.49992  0.10753  1.0000
  H   H4209     1.0  0.69530  0.56922  0.10914  1.0000
  H   H4210     1.0  0.65898  0.62490  0.11267  1.0000
  C   C2357     1.0  0.68496  0.87246  0.11348  1.0000
  H   H4211     1.0  0.92070  0.80014  0.20522  1.0000
  H   H4212     1.0  0.70759  0.50362  0.02668  1.0000
  H   H4213     1.0  0.70964  0.64601  0.19372  1.0000
  H   H4214     1.0  0.68797  0.88344  0.10347  1.0000
  H   H4215     1.0  0.79961  0.95186  0.17316  1.0000
  H   H4216     1.0  0.75653  0.49759  0.99710  1.0000
  H   H4217     1.0  0.75400  0.65164  0.20333  1.0000
  H   H4218     1.0  0.70515  0.59206  0.20796  1.0000
  H   H4219     1.0  0.87598  0.48507  0.03997  1.0000
  H   H4220     1.0  0.73680  0.94992  0.18894  1.0000
  H   H4221     1.0  0.86323  0.56045  0.21301  1.0000
  H   H4222     1.0  0.75985  0.89319  0.19947  1.0000
  H   H4223     1.0  0.73774  0.69097  0.15189  1.0000
  C   C2358     1.0  0.66121  0.85254  0.10416  1.0000
  H   H4224     1.0  0.95636  0.71844  0.21624  1.0000
  C   C2359     1.0  0.68063  0.63803  0.12293  1.0000
  C   C2360     1.0  0.72524  0.63168  0.19334  1.0000
  H   H4225     1.0  0.67992  0.55061  0.09414  1.0000
  C   C2361     1.0  0.74107  0.90192  0.20133  1.0000
  C   C2362     1.0  0.77220  0.67261  0.18682  1.0000
  H   H4226     1.0  0.68736  0.61942  0.21195  1.0000
  S   S535      1.0  0.79184  0.47977  0.16728  1.0000
  C   C2363     1.0  0.68970  0.47936  0.14042  1.0000
  H   H4227     1.0  0.75293  0.87400  0.18154  1.0000
  H   H4228     1.0  0.76176  0.60383  0.18690  1.0000
  C   C2364     1.0  0.76792  0.62081  0.18636  1.0000
  H   H4229     1.0  0.75944  0.65849  0.16608  1.0000
  H   H4230     1.0  0.69693  0.81638  0.10564  1.0000
  H   H4231     1.0  0.70537  0.66254  0.17342  1.0000
  H   H4232     1.0  0.72082  0.68462  0.17574  1.0000
  H   H4233     1.0  0.92461  0.72197  0.22036  1.0000
  H   H4234     1.0  0.76046  0.51422  0.01696  1.0000
  H   H4235     1.0  0.70369  0.82709  0.13461  1.0000
  H   H4236     1.0  0.73192  0.88877  0.20877  1.0000
  C   C2365     1.0  0.66067  0.57994  0.12125  1.0000
  H   H4237     1.0  0.71512  0.48858  0.98859  1.0000
  H   H4238     1.0  0.66911  0.88252  0.11886  1.0000
  H   H4239     1.0  0.66644  0.50299  0.12848  1.0000
  H   H4240     1.0  0.74234  0.63655  0.16704  1.0000
  C   C2366     1.0  0.74048  0.50340  0.00417  1.0000
  C   C2367     1.0  0.68540  0.54719  0.99635  1.0000
  H   H4241     1.0  0.69529  0.50079  0.01326  1.0000
  C   C2368     1.0  0.74384  0.65106  0.17200  1.0000
  H   H4242     1.0  0.70328  0.93788  0.20324  1.0000
  C   C2369     1.0  0.68346  0.49204  0.15230  1.0000
  C   C2370     1.0  0.68748  0.97578  0.18267  1.0000
  C   C2371     1.0  0.72239  0.68156  0.15559  1.0000
  C   C2372     1.0  0.69521  0.55794  0.13860  1.0000
  C   C2373     1.0  0.69175  0.58493  0.13349  1.0000
  C   C2374     1.0  0.78852  0.62158  0.17437  1.0000
  H   H4243     1.0  0.79433  0.63896  0.17142  1.0000
  H   H4244     1.0  0.80513  0.58537  0.18069  1.0000
  C   C2375     1.0  0.67719  0.81028  0.14837  1.0000
  C   C2376     1.0  0.74849  0.94340  0.19647  1.0000
  H   H4245     1.0  0.97721  0.74701  0.21733  1.0000
  H   H4246     1.0  0.69941  0.49029  0.15683  1.0000
  C   C2377     1.0  0.67969  0.55289  0.00915  1.0000
  C   C2378     1.0  0.74638  0.52201  0.01097  1.0000
  H   H4247     1.0  0.65808  0.48616  0.02672  1.0000
  H   H4248     1.0  0.67122  0.53759  0.11114  1.0000
  C   C2379     1.0  0.68924  0.65685  0.11154  1.0000
  H   H4249     1.0  0.75973  0.55521  0.00574  1.0000
  C   C2380     1.0  0.80878  0.60850  0.21977  1.0000
  H   H4250     1.0  0.72132  0.61899  0.18791  1.0000
  C   C2381     1.0  0.80685  0.58953  0.21395  1.0000
  C   C2382     1.0  0.66857  0.48391  0.13286  1.0000
  C   C2383     1.0  0.75311  0.91874  0.21792  1.0000
  N   N134      1.0  0.73896  0.92413  0.20685  1.0000
  H   H4251     1.0  0.70091  0.48800  0.09744  1.0000
  H   H4252     1.0  0.65737  0.82501  0.12566  1.0000
  C   C2384     1.0  0.66064  0.95618  0.17514  1.0000
  H   H4253     1.0  0.67696  0.51105  0.14924  1.0000
  C   C2385     1.0  0.73384  0.88134  0.18387  1.0000
  H   H4254     1.0  0.72739  0.51299  0.99780  1.0000
  H   H4255     1.0  0.66735  0.49672  0.03956  1.0000
  H   H4256     1.0  0.69863  0.94980  0.16982  1.0000
  H   H4257     1.0  0.83300  0.94663  0.21333  1.0000
  H   H4258     1.0  0.73055  0.52969  0.01747  1.0000
  C   C2386     1.0  0.66705  0.61437  0.17833  1.0000
  H   H4259     1.0  0.72349  0.66794  0.14949  1.0000
  C   C2387     1.0  0.91980  0.80616  0.21469  1.0000
  C   C2388     1.0  0.73055  0.90490  0.18853  1.0000
  H   H4260     1.0  0.69057  0.79815  0.15374  1.0000
  H   H4261     1.0  0.71141  0.96981  0.21184  1.0000
  C   C2389     1.0  0.65639  0.48310  0.11190  1.0000
  H   H4262     1.0  0.65802  0.56309  0.12792  1.0000
  H   H4263     1.0  0.66477  0.64685  0.12891  1.0000
  H   H4264     1.0  0.84762  0.50609  0.22015  1.0000
  H   H4265     1.0  0.66274  0.80059  0.14847  1.0000
  S   S536      1.0  0.78884  0.97578  0.20898  1.0000
  H   H4266     1.0  0.66967  0.48414  0.15988  1.0000
  H   H4267     1.0  0.70469  0.91771  0.21812  1.0000
  S   S537      1.0  0.65717  0.93497  0.16605  1.0000
  H   H4268     1.0  0.95587  0.79195  0.21638  1.0000
  H   H4269     1.0  0.66730  0.86150  0.09397  1.0000
  C   C2390     1.0  0.77310  0.69166  0.19454  1.0000
  H   H4270     1.0  0.72463  0.63250  0.21426  1.0000
  H   H4271     1.0  0.77503  0.68377  0.20493  1.0000
  H   H4272     1.0  0.66995  0.96048  0.21741  1.0000
  H   H4273     1.0  0.66273  0.96541  0.08591  1.0000
  H   H4274     1.0  0.93708  0.75898  0.21573  1.0000
  H   H4275     1.0  0.65506  0.61687  0.14353  1.0000
  H   H4276     1.0  0.66027  0.84886  0.13267  1.0000
  H   H4277     1.0  0.75683  0.70514  0.19450  1.0000
  H   H4278     1.0  0.76935  0.96041  0.17060  1.0000
  H   H4279     1.0  0.90172  0.80589  0.22057  1.0000
  H   H4280     1.0  0.65479  0.48281  0.06500  1.0000
  H   H4281     1.0  0.65589  0.61776  0.97581  1.0000
  C   C2391     1.0  0.93821  0.79050  0.22250  1.0000
  Fe  Fe269     1.0  0.75829  0.53075  0.44022  1.0000
  S   S538      1.0  0.77708  0.54804  0.42046  1.0000
  S   S539      1.0  0.72061  0.52509  0.44277  1.0000
  S   S540      1.0  0.75257  0.54463  0.45940  1.0000
  Fe  Fe270     1.0  0.88549  0.50471  0.36684  1.0000
  H   H4282     1.0  0.87104  0.70439  0.31126  1.0000
  Fe  Fe271     1.0  0.89601  0.54180  0.34266  1.0000
  S   S541      1.0  0.91859  0.51502  0.33119  1.0000
  S   S542      1.0  0.89893  0.57925  0.33271  1.0000
  H   H4283     1.0  0.97522  0.96556  0.31554  1.0000
  H   H4284     1.0  0.91359  0.62920  0.32306  1.0000
  S   S543      1.0  0.86616  0.52081  0.34974  1.0000
  S   S544      1.0  0.91311  0.52839  0.36070  1.0000
  Fe  Fe272     1.0  0.88229  0.87853  0.28805  1.0000
  S   S545      1.0  0.88259  0.90629  0.26986  1.0000
  S   S546      1.0  0.88423  0.88564  0.30821  1.0000
  Fe  Fe273     1.0  0.88480  0.83828  0.27245  1.0000
  S   S547      1.0  0.88560  0.86353  0.25305  1.0000
  S   S548      1.0  0.88997  0.79786  0.27625  1.0000
  Fe  Fe274     1.0  0.91095  0.87995  0.26053  1.0000
  S   S549      1.0  0.94568  0.88991  0.24885  1.0000
  Fe  Fe275     1.0  0.85705  0.88768  0.26426  1.0000
  S   S550      1.0  0.82074  0.90706  0.25998  1.0000
  S   S551      1.0  0.91206  0.85320  0.27899  1.0000
  S   S552      1.0  0.85486  0.86130  0.28333  1.0000
  Fe  Fe276     1.0  0.85920  0.64721  0.26977  1.0000
  S   S553      1.0  0.87588  0.61986  0.25716  1.0000
  S   S554      1.0  0.83824  0.63787  0.29010  1.0000
  Fe  Fe277     1.0  0.87170  0.68838  0.24812  1.0000
  S   S555      1.0  0.88855  0.66413  0.23347  1.0000
  S   S556      1.0  0.86927  0.72834  0.24231  1.0000
  Fe  Fe278     1.0  0.85792  0.64411  0.24122  1.0000
  C   C2392     1.0  0.83424  0.53269  0.39225  1.0000
  Fe  Fe279     1.0  0.90506  0.64189  0.25057  1.0000
  S   S557      1.0  0.94385  0.62523  0.24869  1.0000
  S   S558      1.0  0.83972  0.67050  0.25441  1.0000
  S   S559      1.0  0.88968  0.66713  0.26467  1.0000
  H   H4285     1.0  0.86424  0.53538  0.45458  1.0000
  H   H4286     1.0  0.94930  0.83837  0.25206  1.0000
  C   C2393     1.0  0.81274  0.72871  0.26948  1.0000
  H   H4287     1.0  0.80172  0.49952  0.42459  1.0000
  C   C2394     1.0  0.82851  0.92978  0.23382  1.0000
  H   H4288     1.0  0.78362  0.96312  0.44290  1.0000
  C   C2395     1.0  0.80207  0.69571  0.31631  1.0000
  H   H4289     1.0  0.88456  0.50040  0.29768  1.0000
  H   H4290     1.0  0.98256  0.57890  0.34228  1.0000
  H   H4291     1.0  0.94630  0.58662  0.33454  1.0000
  H   H4292     1.0  0.77185  0.48971  0.41407  1.0000
  C   C2396     1.0  0.77060  0.93225  0.43355  1.0000
  H   H4293     1.0  0.97165  0.94447  0.37153  1.0000
  H   H4294     1.0  0.83283  0.93095  0.39119  1.0000
  H   H4295     1.0  0.89685  0.94998  0.27437  1.0000
  C   C2397     1.0  0.81289  0.92707  0.24582  1.0000
  H   H4296     1.0  0.96102  0.62648  0.33190  1.0000
  H   H4297     1.0  0.86208  0.97180  0.29787  1.0000
  H   H4298     1.0  0.83635  0.77315  0.31424  1.0000
  H   H4299     1.0  0.74891  0.55779  0.25469  1.0000
  C   C2398     1.0  0.92921  0.58019  0.27845  1.0000
  C   C2399     1.0  0.88108  0.91482  0.31100  1.0000
  C   C2400     1.0  0.87186  0.93402  0.30217  1.0000
  C   C2401     1.0  0.86912  0.95703  0.30474  1.0000
  C   C2402     1.0  0.93012  0.48145  0.29691  1.0000
  C   C2403     1.0  0.88502  0.94196  0.32491  1.0000
  C   C2404     1.0  0.88764  0.91888  0.32238  1.0000
  H   H4300     1.0  0.86678  0.93108  0.29342  1.0000
  C   C2405     1.0  0.75858  0.89857  0.24121  1.0000
  H   H4301     1.0  0.88988  0.94490  0.33375  1.0000
  H   H4302     1.0  0.89466  0.90408  0.32929  1.0000
  C   C2406     1.0  0.88354  0.77901  0.26676  1.0000
  C   C2407     1.0  0.88900  0.75446  0.27078  1.0000
  C   C2408     1.0  0.88480  0.73873  0.26340  1.0000
  C   C2409     1.0  0.87472  0.74739  0.25201  1.0000
  C   C2410     1.0  0.86940  0.77192  0.24795  1.0000
  C   C2411     1.0  0.87381  0.78768  0.25527  1.0000
  H   H4303     1.0  0.89698  0.74761  0.27951  1.0000
  H   H4304     1.0  0.88950  0.71993  0.26647  1.0000
  H   H4305     1.0  0.86177  0.77880  0.23909  1.0000
  H   H4306     1.0  0.86962  0.80651  0.25203  1.0000
  C   C2412     1.0  0.88185  0.59346  0.32056  1.0000
  C   C2413     1.0  0.89309  0.60362  0.30816  1.0000
  C   C2414     1.0  0.87973  0.61695  0.29870  1.0000
  C   C2415     1.0  0.85509  0.62049  0.30167  1.0000
  C   C2416     1.0  0.84379  0.61055  0.31409  1.0000
  C   C2417     1.0  0.85716  0.59691  0.32351  1.0000
  H   H4307     1.0  0.91215  0.60137  0.30589  1.0000
  H   H4308     1.0  0.88845  0.62495  0.28920  1.0000
  H   H4309     1.0  0.82469  0.61348  0.31645  1.0000
  H   H4310     1.0  0.84840  0.58956  0.33317  1.0000
  C   C2418     1.0  0.96615  0.89401  0.25807  1.0000
  H   H4311     1.0  0.80007  0.70662  0.32406  1.0000
  C   C2419     1.0  0.80234  0.53272  0.41143  1.0000
  C   C2420     1.0  0.81076  0.50895  0.41571  1.0000
  C   C2421     1.0  0.83090  0.49720  0.40844  1.0000
  C   C2422     1.0  0.84269  0.50894  0.39665  1.0000
  H   H4312     1.0  0.69919  0.59564  0.46162  1.0000
  H   H4313     1.0  0.92318  0.72461  0.24268  1.0000
  H   H4314     1.0  0.77518  0.48145  0.28632  1.0000
  C   C2423     1.0  0.92319  0.95573  0.28454  1.0000
  C   C2424     1.0  0.83934  0.53493  0.43792  1.0000
  H   H4315     1.0  0.66634  0.51780  0.41519  1.0000
  H   H4316     1.0  0.96872  0.68798  0.26448  1.0000
  H   H4317     1.0  0.80180  0.96585  0.39596  1.0000
  C   C2425     1.0  0.81613  0.54657  0.44580  1.0000
  H   H4318     1.0  0.81619  0.95702  0.45554  1.0000
  H   H4319     1.0  0.78582  0.48132  0.39862  1.0000
  C   C2426     1.0  0.79830  0.58616  0.25783  1.0000
  H   H4320     1.0  0.95683  0.95168  0.33826  1.0000
  C   C2427     1.0  0.80911  0.57234  0.43964  1.0000
  N   N135      1.0  0.84079  0.70840  0.30151  1.0000
  H   H4321     1.0  0.79045  0.51642  0.38870  1.0000
  C   C2428     1.0  0.94470  0.75573  0.24767  1.0000
  C   C2429     1.0  0.82098  0.94507  0.22267  1.0000
  H   H4322     1.0  0.83510  0.53236  0.42850  1.0000
  H   H4323     1.0  0.85135  0.54829  0.43504  1.0000
  C   C2430     1.0  0.95649  0.96327  0.31729  1.0000
  C   C2431     1.0  0.80186  0.93981  0.41431  1.0000
  H   H4324     1.0  0.81417  0.77994  0.30364  1.0000
  H   H4325     1.0  0.79622  0.91523  0.28801  1.0000
  C   C2432     1.0  0.84389  0.75269  0.29830  1.0000
  H   H4326     1.0  0.84093  0.75606  0.28792  1.0000
  H   H4327     1.0  0.81781  0.54600  0.45618  1.0000
  H   H4328     1.0  0.80158  0.53712  0.44573  1.0000
  N   N136      1.0  0.74796  0.49371  0.40039  1.0000
  H   H4329     1.0  0.81972  0.53372  0.23410  1.0000
  S   S560      1.0  0.73184  0.50179  0.22745  1.0000
  C   C2433     1.0  0.95568  0.74941  0.27053  1.0000
  H   H4330     1.0  0.78286  0.57645  0.24349  1.0000
  C   C2434     1.0  0.86012  0.51714  0.45659  1.0000
  H   H4331     1.0  0.71761  0.95112  0.22708  1.0000
  H   H4332     1.0  0.94441  0.59403  0.31747  1.0000
  H   H4333     1.0  0.91208  0.97235  0.28707  1.0000
  H   H4334     1.0  0.88857  0.96186  0.24948  1.0000
  C   C2435     1.0  0.94302  0.68740  0.22700  1.0000
  H   H4335     1.0  0.79150  0.57955  0.44487  1.0000
  H   H4336     1.0  0.82218  0.58301  0.44048  1.0000
  H   H4337     1.0  0.80802  0.57390  0.42904  1.0000
  H   H4338     1.0  0.92994  0.68190  0.23581  1.0000
  C   C2436     1.0  0.83022  0.61014  0.22334  1.0000
  H   H4339     1.0  0.72536  0.90755  0.23456  1.0000
  H   H4340     1.0  0.82089  0.95160  0.29469  1.0000
  H   H4341     1.0  0.95992  0.52461  0.30342  1.0000
  H   H4342     1.0  0.74527  0.88366  0.22783  1.0000
  C   C2437     1.0  0.81454  0.51853  0.24169  1.0000
  H   H4343     1.0  0.92134  0.50397  0.27919  1.0000
  H   H4344     1.0  0.80939  0.53795  0.26260  1.0000
  H   H4345     1.0  0.75997  0.96142  0.41063  1.0000
  C   C2438     1.0  0.88838  0.51876  0.42699  1.0000
  H   H4346     1.0  0.80786  0.50205  0.27355  1.0000
  C   C2439     1.0  0.95489  0.81948  0.25601  1.0000
  H   H4347     1.0  0.75532  0.59551  0.46677  1.0000
  H   H4348     1.0  0.96944  0.96543  0.35646  1.0000
  H   H4349     1.0  0.67920  0.48707  0.41752  1.0000
  C   C2440     1.0  0.94136  0.71415  0.22416  1.0000
  C   C2441     1.0  0.97767  0.89428  0.27899  1.0000
  N   N137      1.0  0.78398  0.95084  0.42481  1.0000
  C   C2442     1.0  0.79495  0.96263  0.43300  1.0000
  C   C2443     1.0  0.97973  0.55814  0.32165  1.0000
  H   H4350     1.0  0.71888  0.48015  0.25465  1.0000
  S   S561      1.0  0.77185  0.49374  0.44897  1.0000
  H   H4351     1.0  0.87385  0.94373  0.24292  1.0000
  H   H4352     1.0  0.84629  0.95419  0.44690  1.0000
  H   H4353     1.0  0.76231  0.88573  0.44192  1.0000
  H   H4354     1.0  0.93955  0.66418  0.26275  1.0000
  C   C2444     1.0  0.95485  0.59570  0.32482  1.0000
  H   H4355     1.0  0.77216  0.55902  0.38569  1.0000
  C   C2445     1.0  0.95075  0.62242  0.32515  1.0000
  H   H4356     1.0  0.85293  0.48374  0.23443  1.0000
  H   H4357     1.0  0.93052  0.48231  0.30735  1.0000
  C   C2446     1.0  0.73285  0.56011  0.23796  1.0000
  H   H4358     1.0  0.96444  0.92811  0.32881  1.0000
  H   H4359     1.0  0.95175  0.77215  0.24686  1.0000
  H   H4360     1.0  0.97348  0.89204  0.28966  1.0000
  C   C2447     1.0  0.80363  0.96143  0.27703  1.0000
  H   H4361     1.0  0.91923  0.94106  0.29278  1.0000
  C   C2448     1.0  0.79125  0.67360  0.32272  1.0000
  H   H4362     1.0  0.96125  0.80972  0.24764  1.0000
  H   H4363     1.0  0.93924  0.81246  0.26227  1.0000
  C   C2449     1.0  0.75190  0.51884  0.39509  1.0000
  H   H4364     1.0  0.82647  0.49326  0.44106  1.0000
  H   H4365     1.0  0.93264  0.51772  0.29001  1.0000
  Fe  Fe280     1.0  0.71627  0.53481  0.46292  1.0000
  N   N138      1.0  0.95766  0.96842  0.29194  1.0000
  H   H4366     1.0  0.92053  0.49246  0.42631  1.0000
  C   C2450     1.0  0.72684  0.49439  0.41139  1.0000
  H   H4367     1.0  0.83735  0.68223  0.31938  1.0000
  H   H4368     1.0  0.93660  0.79777  0.23162  1.0000
  H   H4369     1.0  0.96867  0.51956  0.36767  1.0000
  H   H4370     1.0  0.70544  0.52949  0.40788  1.0000
  H   H4371     1.0  0.90601  0.57125  0.26766  1.0000
  Fe  Fe281     1.0  0.89029  0.49248  0.33957  1.0000
  H   H4372     1.0  0.74129  0.57511  0.23198  1.0000
  C   C2451     1.0  0.74457  0.48282  0.38920  1.0000
  C   C2452     1.0  0.76643  0.96911  0.41781  1.0000
  C   C2453     1.0  0.74692  0.47830  0.23781  1.0000
  H   H4373     1.0  0.86317  0.74956  0.29835  1.0000
  H   H4374     1.0  0.94583  0.55592  0.31655  1.0000
  H   H4375     1.0  0.95558  0.63233  0.31505  1.0000
  H   H4376     1.0  0.81846  0.97169  0.40708  1.0000
  C   C2454     1.0  0.78523  0.91109  0.44136  1.0000
  H   H4377     1.0  0.84567  0.51684  0.46536  1.0000
  H   H4378     1.0  0.79331  0.92937  0.40949  1.0000
  H   H4379     1.0  0.77242  0.67869  0.32709  1.0000
  H   H4380     1.0  0.84619  0.91969  0.23303  1.0000
  H   H4381     1.0  0.81592  0.92682  0.41864  1.0000
  C   C2455     1.0  0.80090  0.49065  0.26862  1.0000
  H   H4382     1.0  0.84408  0.95842  0.38715  1.0000
  C   C2456     1.0  0.91427  0.56310  0.27650  1.0000
  H   H4383     1.0  0.83794  0.94814  0.26047  1.0000
  H   H4384     1.0  0.79159  0.70580  0.30875  1.0000
  C   C2457     1.0  0.68122  0.95820  0.22504  1.0000
  H   H4385     1.0  0.76480  0.96582  0.23637  1.0000
  H   H4386     1.0  0.79209  0.66247  0.31522  1.0000
  C   C2458     1.0  0.77371  0.54808  0.37801  1.0000
  C   C2459     1.0  0.86705  0.70173  0.30179  1.0000
  H   H4387     1.0  0.79992  0.90199  0.43479  1.0000
  H   H4388     1.0  0.79234  0.91713  0.44886  1.0000
  C   C2460     1.0  0.94969  0.95531  0.30562  1.0000
  H   H4389     1.0  0.70129  0.50991  0.39779  1.0000
  C   C2461     1.0  0.92060  0.50569  0.28957  1.0000
  H   H4390     1.0  0.81850  0.50283  0.45660  1.0000
  H   H4391     1.0  0.81601  0.48091  0.26256  1.0000
  H   H4392     1.0  0.85450  0.96174  0.26809  1.0000
  H   H4393     1.0  0.76997  0.52132  0.23630  1.0000
  H   H4394     1.0  0.90520  0.49619  0.41247  1.0000
  C   C2462     1.0  0.77412  0.52216  0.38432  1.0000
  C   C2463     1.0  0.83742  0.71048  0.28740  1.0000
  C   C2464     1.0  0.78279  0.50523  0.25989  1.0000
  H   H4395     1.0  0.73656  0.52925  0.39061  1.0000
  C   C2465     1.0  0.81217  0.71985  0.28429  1.0000
  H   H4396     1.0  0.78413  0.93394  0.30034  1.0000
  H   H4397     1.0  0.89718  0.51651  0.30629  1.0000
  C   C2466     1.0  0.87829  0.67594  0.30023  1.0000
  H   H4398     1.0  0.95278  0.71039  0.24287  1.0000
  C   C2467     1.0  0.89491  0.55787  0.28880  1.0000
  C   C2468     1.0  0.90529  0.67269  0.29762  1.0000
  H   H4399     1.0  0.90290  0.55541  0.29786  1.0000
  C   C2469     1.0  0.76950  0.48077  0.40617  1.0000
  H   H4400     1.0  0.84946  0.72176  0.28064  1.0000
  N   N139      1.0  0.98016  0.58381  0.32157  1.0000
  C   C2470     1.0  0.67743  0.62229  0.47237  1.0000
  H   H4401     1.0  0.73875  0.53134  0.25389  1.0000
  C   C2471     1.0  0.96118  0.89077  0.27188  1.0000
  C   C2472     1.0  0.83246  0.73144  0.30657  1.0000
  H   H4402     1.0  0.92646  0.54707  0.27408  1.0000
  H   H4403     1.0  0.91855  0.62215  0.33997  1.0000
  H   H4404     1.0  0.87272  0.67067  0.29199  1.0000
  H   H4405     1.0  0.87286  0.66349  0.30938  1.0000
  H   H4406     1.0  0.81026  0.91213  0.30213  1.0000
  H   H4407     1.0  0.83339  0.95630  0.42589  1.0000
  H   H4408     1.0  0.86631  0.59346  0.22371  1.0000
  C   C2473     1.0  0.83657  0.94537  0.39540  1.0000
  H   H4409     1.0  0.82338  0.93254  0.43794  1.0000
  H   H4410     1.0  0.98441  0.72622  0.23130  1.0000
  H   H4411     1.0  0.91177  0.67737  0.30580  1.0000
  H   H4412     1.0  0.91271  0.65398  0.29690  1.0000
  H   H4413     1.0  0.91173  0.68383  0.28814  1.0000
  H   H4414     1.0  0.98279  0.77958  0.22939  1.0000
  H   H4415     1.0  0.83067  0.67390  0.30544  1.0000
  C   C2474     1.0  0.91034  0.50547  0.41939  1.0000
  H   H4416     1.0  0.81306  0.57987  0.26348  1.0000
  C   C2475     1.0  0.81425  0.54457  0.39969  1.0000
  H   H4417     1.0  0.86369  0.49585  0.42752  1.0000
  H   H4418     1.0  0.82191  0.74427  0.26612  1.0000
  H   H4419     1.0  0.96723  0.56513  0.30243  1.0000
  H   H4420     1.0  0.84218  0.79000  0.29785  1.0000
  C   C2476     1.0  0.95268  0.94516  0.32995  1.0000
  S   S562      1.0  0.72740  0.96646  0.46831  1.0000
  H   H4421     1.0  0.94195  0.72459  0.26306  1.0000
  H   H4422     1.0  0.80113  0.60339  0.25153  1.0000
  H   H4423     1.0  0.97030  0.51524  0.31897  1.0000
  C   C2477     1.0  0.82072  0.95194  0.43511  1.0000
  H   H4424     1.0  0.97834  0.60035  0.30129  1.0000
  H   H4425     1.0  0.95647  0.93606  0.30605  1.0000
  C   C2478     1.0  0.94988  0.95716  0.28221  1.0000
  C   C2479     1.0  0.89524  0.51473  0.29625  1.0000
  H   H4426     1.0  0.89846  0.50449  0.45367  1.0000
  H   H4427     1.0  0.79443  0.73397  0.26737  1.0000
  H   H4428     1.0  0.83577  0.72916  0.31688  1.0000
  H   H4429     1.0  0.92190  0.51813  0.41351  1.0000
  H   H4430     1.0  0.67422  0.97175  0.45995  1.0000
  H   H4431     1.0  0.75710  0.94001  0.44130  1.0000
  H   H4432     1.0  0.97199  0.72806  0.25574  1.0000
  H   H4433     1.0  0.75496  0.90095  0.45594  1.0000
  C   C2480     1.0  0.84096  0.49089  0.22709  1.0000
  H   H4434     1.0  0.84327  0.54196  0.38321  1.0000
  H   H4435     1.0  0.77717  0.49289  0.25486  1.0000
  C   C2481     1.0  0.70404  0.51095  0.40778  1.0000
  H   H4436     1.0  0.89401  0.52831  0.43356  1.0000
  H   H4437     1.0  0.78755  0.97043  0.28283  1.0000
  H   H4438     1.0  0.93694  0.57362  0.28759  1.0000
  H   H4439     1.0  0.78139  0.58898  0.26482  1.0000
  Fe  Fe282     1.0  0.76420  0.50702  0.46835  1.0000
  C   C2482     1.0  0.79744  0.56862  0.24912  1.0000
  H   H4440     1.0  0.93399  0.94229  0.33242  1.0000
  H   H4441     1.0  0.91946  0.96504  0.26375  1.0000
  H   H4442     1.0  0.91521  0.76424  0.22975  1.0000
  N   N140      1.0  0.79100  0.52583  0.25003  1.0000
  H   H4443     1.0  0.81432  0.56707  0.24203  1.0000
  C   C2483     1.0  0.94140  0.72391  0.23681  1.0000
  H   H4444     1.0  0.95435  0.96683  0.27197  1.0000
  H   H4445     1.0  0.94389  0.58209  0.26992  1.0000
  N   N141      1.0  0.88242  0.53741  0.28942  1.0000
  C   C2484     1.0  0.87963  0.53413  0.27597  1.0000
  Fe  Fe283     1.0  0.93479  0.50069  0.34946  1.0000
  C   C2485     1.0  0.85789  0.54190  0.29748  1.0000
  C   C2486     1.0  0.80068  0.92504  0.29489  1.0000
  H   H4446     1.0  0.75866  0.55454  0.37256  1.0000
  C   C2487     1.0  0.86287  0.55428  0.26874  1.0000
  C   C2488     1.0  0.85659  0.54260  0.31231  1.0000
  H   H4447     1.0  0.86201  0.52475  0.31783  1.0000
  C   C2489     1.0  0.82767  0.96174  0.44588  1.0000
  H   H4448     1.0  0.82877  0.51341  0.24780  1.0000
  C   C2490     1.0  0.86668  0.55384  0.25394  1.0000
  C   C2491     1.0  0.83134  0.55116  0.31881  1.0000
  H   H4449     1.0  0.87260  0.51751  0.27682  1.0000
  H   H4450     1.0  0.89693  0.53169  0.26932  1.0000
  H   H4451     1.0  0.93007  0.95701  0.30790  1.0000
  C   C2492     1.0  0.81396  0.95748  0.40309  1.0000
  H   H4452     1.0  0.84752  0.52817  0.29707  1.0000
  H   H4453     1.0  0.84800  0.55911  0.29326  1.0000
  H   H4454     1.0  0.88201  0.57459  0.28901  1.0000
  H   H4455     1.0  0.77960  0.54875  0.23266  1.0000
  H   H4456     1.0  0.92591  0.93367  0.26980  1.0000
  C   C2493     1.0  0.78258  0.95595  0.23560  1.0000
  H   H4457     1.0  0.84421  0.55229  0.27292  1.0000
  H   H4458     1.0  0.86534  0.57181  0.27004  1.0000
  H   H4459     1.0  0.86824  0.55436  0.31354  1.0000
  C   C2494     1.0  0.74804  0.54585  0.24800  1.0000
  H   H4460     1.0  0.75545  0.91524  0.24513  1.0000
  C   C2495     1.0  0.76971  0.89290  0.44889  1.0000
  C   C2496     1.0  0.95415  0.73762  0.25915  1.0000
  C   C2497     1.0  0.95776  0.65991  0.25819  1.0000
  C   C2498     1.0  0.77290  0.53544  0.24109  1.0000
  H   H4461     1.0  0.93839  0.76010  0.27390  1.0000
  N   N142      1.0  0.85158  0.51206  0.44497  1.0000
  H   H4462     1.0  0.73616  0.49653  0.38174  1.0000
  H   H4463     1.0  0.86354  0.53682  0.25220  1.0000
  H   H4464     1.0  0.85419  0.56834  0.24920  1.0000
  H   H4465     1.0  0.88494  0.55657  0.24920  1.0000
  H   H4466     1.0  0.82458  0.56908  0.31378  1.0000
  H   H4467     1.0  0.81948  0.53885  0.31844  1.0000
  H   H4468     1.0  0.83105  0.55188  0.32933  1.0000
  H   H4469     1.0  0.75304  0.52768  0.40332  1.0000
  H   H4470     1.0  0.95970  0.93890  0.28216  1.0000
  H   H4471     1.0  0.87709  0.71347  0.29385  1.0000
  H   H4472     1.0  0.80795  0.56300  0.39629  1.0000
  H   H4473     1.0  0.94446  0.88595  0.27711  1.0000
  H   H4474     1.0  0.96707  0.82706  0.27234  1.0000
  C   C2499     1.0  0.74398  0.90135  0.23033  1.0000
  S   S563      1.0  0.86827  0.49327  0.38815  1.0000
  C   C2500     1.0  0.81575  0.49832  0.23403  1.0000
  H   H4475     1.0  0.96938  0.76091  0.26736  1.0000
  C   C2501     1.0  0.96472  0.64120  0.25116  1.0000
  H   H4476     1.0  0.88317  0.97000  0.23271  1.0000
  H   H4477     1.0  0.68423  0.50605  0.42787  1.0000
  H   H4478     1.0  0.73253  0.96724  0.43146  1.0000
  H   H4479     1.0  0.77766  0.93816  0.25588  1.0000
  H   H4480     1.0  0.68589  0.63653  0.46627  1.0000
  H   H4481     1.0  0.87950  0.53199  0.41956  1.0000
  H   H4482     1.0  0.84283  0.69312  0.28409  1.0000
  H   H4483     1.0  0.78045  0.87807  0.45459  1.0000
  H   H4484     1.0  0.80081  0.66311  0.33069  1.0000
  C   C2502     1.0  0.83381  0.49543  0.44962  1.0000
  Fe  Fe284     1.0  0.73386  0.48833  0.45232  1.0000
  C   C2503     1.0  0.79383  0.54417  0.25751  1.0000
  H   H4485     1.0  0.91837  0.59785  0.27894  1.0000
  H   H4486     1.0  0.88201  0.48572  0.43958  1.0000
  H   H4487     1.0  0.97784  0.79789  0.26881  1.0000
  C   C2504     1.0  0.82863  0.68916  0.31054  1.0000
  H   H4488     1.0  0.79042  0.55012  0.37094  1.0000
  C   C2505     1.0  0.97184  0.52795  0.30953  1.0000
  H   H4489     1.0  0.84999  0.93815  0.40191  1.0000
  C   C2506     1.0  0.93430  0.76452  0.22552  1.0000
  H   H4490     1.0  0.96068  0.73572  0.27896  1.0000
  C   C2507     1.0  0.81640  0.94298  0.28731  1.0000
  C   C2508     1.0  0.78994  0.94027  0.24665  1.0000
  H   H4491     1.0  0.80162  0.70530  0.28726  1.0000
  H   H4492     1.0  0.80438  0.50417  0.22633  1.0000
  H   H4493     1.0  0.76654  0.51143  0.26671  1.0000
  H   H4494     1.0  0.73021  0.54886  0.23131  1.0000
  C   C2509     1.0  0.92470  0.63160  0.32990  1.0000
  H   H4495     1.0  0.71522  0.56717  0.24322  1.0000
  H   H4496     1.0  0.81001  0.48250  0.24068  1.0000
  H   H4497     1.0  0.82209  0.71475  0.26373  1.0000
  H   H4498     1.0  0.67671  0.94331  0.23300  1.0000
  C   C2510     1.0  0.83341  0.77525  0.30391  1.0000
  H   H4499     1.0  0.92540  0.76075  0.25088  1.0000
  H   H4500     1.0  0.80293  0.73474  0.28930  1.0000
  C   C2511     1.0  0.96490  0.55326  0.31212  1.0000
  H   H4501     1.0  0.77856  0.54681  0.26565  1.0000
  H   H4502     1.0  0.73109  0.50009  0.41999  1.0000
  H   H4503     1.0  0.81308  0.73693  0.30737  1.0000
  C   C2512     1.0  0.88246  0.50083  0.46100  1.0000
  H   H4504     1.0  0.75316  0.88449  0.24948  1.0000
  H   H4505     1.0  0.97290  0.54919  0.33180  1.0000
  N   N143      1.0  0.94942  0.74751  0.23454  1.0000
  H   H4506     1.0  0.76076  0.92528  0.42759  1.0000
  S   S564      1.0  0.97545  0.49271  0.34610  1.0000
  C   C2513     1.0  0.97433  0.67351  0.25911  1.0000
  C   C2514     1.0  0.87585  0.96213  0.24293  1.0000
  H   H4507     1.0  0.83286  0.93291  0.28252  1.0000
  C   C2515     1.0  0.85192  0.97662  0.24753  1.0000
  H   H4508     1.0  0.92229  0.65069  0.33024  1.0000
  C   C2516     1.0  0.87564  0.96110  0.31609  1.0000
  H   H4509     1.0  0.77777  0.89377  0.23745  1.0000
  C   C2517     1.0  0.79799  0.95818  0.22350  1.0000
  H   H4510     1.0  0.77533  0.51197  0.37636  1.0000
  C   C2518     1.0  0.87126  0.50182  0.43495  1.0000
  C   C2519     1.0  0.68496  0.59917  0.46971  1.0000
  C   C2520     1.0  0.68216  0.50505  0.41773  1.0000
  H   H4511     1.0  0.88155  0.48194  0.46200  1.0000
  H   H4512     1.0  0.67724  0.97457  0.22936  1.0000
  C   C2521     1.0  0.84078  0.96566  0.26165  1.0000
  C   C2522     1.0  0.91602  0.95080  0.27233  1.0000
  S   S565      1.0  0.83158  0.63483  0.23037  1.0000
  H   H4513     1.0  0.79725  0.95150  0.27089  1.0000
  H   H4514     1.0  0.70334  0.59979  0.22391  1.0000
  C   C2523     1.0  0.97425  0.81667  0.26426  1.0000
  H   H4515     1.0  0.96103  0.67886  0.22882  1.0000
  C   C2524     1.0  0.98162  0.95579  0.36335  1.0000
  C   C2525     1.0  0.97532  0.74460  0.22828  1.0000
  H   H4516     1.0  0.84031  0.97671  0.24037  1.0000
  H   H4517     1.0  0.83731  0.47884  0.41192  1.0000
  C   C2526     1.0  0.98435  0.96489  0.28919  1.0000
  S   S566      1.0  0.70297  0.69560  0.56796  1.0000
  Fe  Fe285     1.0  0.73675  0.90644  0.61710  1.0000
  S   S567      1.0  0.76633  0.89612  0.60071  1.0000
  S   S568      1.0  0.74469  0.90933  0.63708  1.0000
  Fe  Fe286     1.0  0.69906  0.91214  0.60015  1.0000
  S   S569      1.0  0.72541  0.90298  0.58267  1.0000
  Fe  Fe287     1.0  0.74198  0.87362  0.59703  1.0000
  S   S570      1.0  0.75361  0.83965  0.58847  1.0000
  Fe  Fe288     1.0  0.74721  0.92590  0.58769  1.0000
  S   S571      1.0  0.75980  0.95537  0.57193  1.0000
  S   S572      1.0  0.71390  0.88146  0.61444  1.0000
  S   S573      1.0  0.71942  0.93757  0.60419  1.0000
  Fe  Fe289     1.0  0.73557  0.65265  0.61106  1.0000
  S   S574      1.0  0.76528  0.67160  0.61086  1.0000
  S   S575      1.0  0.72705  0.61975  0.62575  1.0000
  Fe  Fe290     1.0  0.72239  0.68395  0.58537  1.0000
  S   S576      1.0  0.75103  0.70531  0.58353  1.0000
  C   C2527     1.0  0.65607  0.93357  0.54262  1.0000
  Fe  Fe291     1.0  0.77365  0.67045  0.58908  1.0000
  S   S577      1.0  0.80958  0.66194  0.57665  1.0000
  Fe  Fe292     1.0  0.73982  0.70498  0.60526  1.0000
  S   S578      1.0  0.73278  0.73646  0.61593  1.0000
  S   S579      1.0  0.74579  0.64917  0.58959  1.0000
  S   S580      1.0  0.70932  0.68594  0.60685  1.0000
  H   H4518     1.0  0.67540  0.68386  0.63217  1.0000
  Fe  Fe293     1.0  0.74927  0.55890  0.69862  1.0000
  S   S581      1.0  0.77969  0.54463  0.70970  1.0000
  S   S582      1.0  0.75460  0.59201  0.68326  1.0000
  Fe  Fe294     1.0  0.77530  0.50928  0.70644  1.0000
  H   H4519     1.0  0.68911  0.96736  0.55488  1.0000
  H   H4520     1.0  0.66783  0.57376  0.51698  1.0000
  S   S583      1.0  0.74631  0.52368  0.69446  1.0000
  H   H4521     1.0  0.87938  0.49459  0.61463  1.0000
  H   H4522     1.0  0.82311  0.92380  0.62659  1.0000
  C   C2528     1.0  0.66142  0.64788  0.56776  1.0000
  Fe  Fe295     1.0  0.86814  0.54503  0.55255  1.0000
  S   S584      1.0  0.88117  0.56567  0.53281  1.0000
  S   S585      1.0  0.83958  0.55546  0.56932  1.0000
  Fe  Fe296     1.0  0.89899  0.49980  0.54620  1.0000
  S   S586      1.0  0.91374  0.51646  0.52555  1.0000
  Fe  Fe297     1.0  0.91753  0.54556  0.53562  1.0000
  S   S587      1.0  0.95070  0.56309  0.53014  1.0000
  Fe  Fe298     1.0  0.87616  0.53497  0.52432  1.0000
  S   S588      1.0  0.85575  0.54559  0.50679  1.0000
  S   S589      1.0  0.90450  0.52788  0.55618  1.0000
  S   S590      1.0  0.86147  0.51554  0.54407  1.0000
  H   H4523     1.0  0.79413  0.53546  0.66907  1.0000
  H   H4524     1.0  0.69589  0.50557  0.49983  1.0000
  C   C2529     1.0  0.66997  0.97349  0.49744  1.0000
  H   H4525     1.0  0.95850  0.53687  0.55629  1.0000
  C   C2530     1.0  0.80688  0.51012  0.49022  1.0000
  C   C2531     1.0  0.68396  0.51277  0.50827  1.0000
  C   C2532     1.0  0.83486  0.50762  0.50521  1.0000
  C   C2533     1.0  0.83681  0.53141  0.50080  1.0000
  C   C2534     1.0  0.82352  0.54449  0.49113  1.0000
  C   C2535     1.0  0.80846  0.53403  0.48598  1.0000
  H   H4526     1.0  0.87361  0.57965  0.58377  1.0000
  H   H4527     1.0  0.68159  0.70374  0.54518  1.0000
  H   H4528     1.0  0.82479  0.56292  0.48765  1.0000
  C   C2536     1.0  0.82987  0.94936  0.57256  1.0000
  S   S591      1.0  0.78884  0.49556  0.48382  1.0000
  C   C2537     1.0  0.81280  0.97168  0.69875  1.0000
  C   C2538     1.0  0.82036  0.92507  0.61632  1.0000
  C   C2539     1.0  0.79792  0.94299  0.61343  1.0000
  H   H4529     1.0  0.69432  0.72012  0.67545  1.0000
  C   C2540     1.0  0.67815  0.58474  0.52018  1.0000
  C   C2541     1.0  0.69494  0.75653  0.66704  1.0000
  H   H4530     1.0  0.76702  0.51677  0.66753  1.0000
  C   C2542     1.0  0.80676  0.94430  0.57483  1.0000
  C   C2543     1.0  0.78862  0.96134  0.57018  1.0000
  H   H4531     1.0  0.92144  0.68838  0.55836  1.0000
  H   H4532     1.0  0.69449  0.76637  0.53750  1.0000
  H   H4533     1.0  0.73819  0.51478  0.64654  1.0000
  C   C2544     1.0  0.74588  0.96233  0.50094  1.0000
  H   H4534     1.0  0.76424  0.92227  0.55230  1.0000
  H   H4535     1.0  0.65475  0.68305  0.53828  1.0000
  C   C2545     1.0  0.72690  0.64581  0.53910  1.0000
  C   C2546     1.0  0.81769  0.63241  0.57449  1.0000
  C   C2547     1.0  0.80617  0.61491  0.58292  1.0000
  C   C2548     1.0  0.81302  0.59135  0.58119  1.0000
  C   C2549     1.0  0.83135  0.58518  0.57099  1.0000
  C   C2550     1.0  0.84271  0.60267  0.56243  1.0000
  C   C2551     1.0  0.83595  0.62627  0.56422  1.0000
  H   H4536     1.0  0.79229  0.61946  0.59095  1.0000
  H   H4537     1.0  0.80416  0.57786  0.58781  1.0000
  H   H4538     1.0  0.85661  0.59797  0.55445  1.0000
  H   H4539     1.0  0.84474  0.63983  0.55762  1.0000
  H   H4540     1.0  0.70637  0.76564  0.57721  1.0000
  C   C2552     1.0  0.81931  0.56634  0.67416  1.0000
  C   C2553     1.0  0.80539  0.59501  0.62059  1.0000
  H   H4541     1.0  0.69016  0.55821  0.50010  1.0000
  H   H4542     1.0  0.82824  0.55734  0.63499  1.0000
  C   C2554     1.0  0.73524  0.61183  0.64161  1.0000
  C   C2555     1.0  0.75061  0.62360  0.64532  1.0000
  C   C2556     1.0  0.75630  0.61733  0.65812  1.0000
  C   C2557     1.0  0.74712  0.59885  0.66724  1.0000
  C   C2558     1.0  0.73233  0.58655  0.66341  1.0000
  C   C2559     1.0  0.72634  0.59311  0.65066  1.0000
  H   H4543     1.0  0.75820  0.63740  0.63826  1.0000
  H   H4544     1.0  0.76801  0.62672  0.66096  1.0000
  H   H4545     1.0  0.72514  0.57232  0.67035  1.0000
  H   H4546     1.0  0.71453  0.58381  0.64784  1.0000
  H   H4547     1.0  0.80311  0.92708  0.57989  1.0000
  C   C2560     1.0  0.90409  0.68348  0.56350  1.0000
  H   H4548     1.0  0.73915  0.87133  0.50599  1.0000
  H   H4549     1.0  0.73292  0.66314  0.53591  1.0000
  C   C2561     1.0  0.74676  0.81135  0.59621  1.0000
  C   C2562     1.0  0.73543  0.80682  0.60936  1.0000
  C   C2563     1.0  0.73113  0.78386  0.61522  1.0000
  C   C2564     1.0  0.73789  0.76524  0.60798  1.0000
  C   C2565     1.0  0.74886  0.76987  0.59477  1.0000
  C   C2566     1.0  0.75336  0.79276  0.58895  1.0000
  H   H4550     1.0  0.73027  0.82093  0.61506  1.0000
  H   H4551     1.0  0.72260  0.78050  0.62543  1.0000
  H   H4552     1.0  0.75422  0.75575  0.58908  1.0000
  H   H4553     1.0  0.76219  0.79604  0.57879  1.0000
  H   H4554     1.0  0.90266  0.49400  0.47698  1.0000
  H   H4555     1.0  0.69750  0.90142  0.65450  1.0000
  C   C2567     1.0  0.72400  0.95579  0.63811  1.0000
  C   C2568     1.0  0.73538  0.93478  0.64465  1.0000
  C   C2569     1.0  0.73999  0.93412  0.65736  1.0000
  H   H4556     1.0  0.68232  0.65351  0.58125  1.0000
  H   H4557     1.0  0.69817  0.65864  0.52793  1.0000
  H   H4558     1.0  0.72083  0.95660  0.62825  1.0000
  H   H4559     1.0  0.71476  0.64642  0.54861  1.0000
  N   N144      1.0  0.79803  0.96817  0.61450  1.0000
  H   H4560     1.0  0.89856  0.50213  0.59905  1.0000
  N   N145      1.0  0.72214  0.69690  0.65447  1.0000
  C   C2570     1.0  0.71850  0.72229  0.65625  1.0000
  C   C2571     1.0  0.74461  0.69126  0.64474  1.0000
  C   C2572     1.0  0.70143  0.69402  0.64875  1.0000
  C   C2573     1.0  0.72255  0.67997  0.66741  1.0000
  C   C2574     1.0  0.74159  0.68100  0.67540  1.0000
  H   H4561     1.0  0.71341  0.97428  0.53302  1.0000
  C   C2575     1.0  0.70298  0.67009  0.64429  1.0000
  C   C2576     1.0  0.76529  0.70458  0.64421  1.0000
  C   C2577     1.0  0.78775  0.69490  0.63537  1.0000
  C   C2578     1.0  0.73875  0.66429  0.68869  1.0000
  H   H4562     1.0  0.87648  0.48826  0.64104  1.0000
  H   H4563     1.0  0.77677  0.96300  0.50856  1.0000
  H   H4564     1.0  0.71855  0.73405  0.64641  1.0000
  H   H4565     1.0  0.73335  0.72586  0.66017  1.0000
  H   H4566     1.0  0.75145  0.67206  0.64647  1.0000
  H   H4567     1.0  0.74093  0.69536  0.63446  1.0000
  H   H4568     1.0  0.69882  0.70813  0.63998  1.0000
  C   C2579     1.0  0.86308  0.47967  0.59503  1.0000
  H   H4569     1.0  0.70495  0.68206  0.67390  1.0000
  H   H4570     1.0  0.72579  0.66147  0.66573  1.0000
  H   H4571     1.0  0.74052  0.69896  0.67743  1.0000
  H   H4572     1.0  0.75942  0.67506  0.66996  1.0000
  C   C2580     1.0  0.83300  0.49282  0.58101  1.0000
  H   H4573     1.0  0.82320  0.96195  0.62786  1.0000
  H   H4574     1.0  0.70590  0.65496  0.65236  1.0000
  H   H4575     1.0  0.71757  0.66781  0.63582  1.0000
  H   H4576     1.0  0.76051  0.72353  0.64000  1.0000
  H   H4577     1.0  0.76962  0.70348  0.65410  1.0000
  H   H4578     1.0  0.80246  0.70380  0.63588  1.0000
  H   H4579     1.0  0.79288  0.67563  0.63856  1.0000
  H   H4580     1.0  0.78504  0.69856  0.62493  1.0000
  H   H4581     1.0  0.72132  0.66944  0.69481  1.0000
  H   H4582     1.0  0.74031  0.64583  0.68718  1.0000
  H   H4583     1.0  0.75286  0.66494  0.69416  1.0000
  H   H4584     1.0  0.67769  0.74238  0.55478  1.0000
  C   C2581     1.0  0.97545  0.55661  0.53849  1.0000
  C   C2582     1.0  0.65510  0.58571  0.48775  1.0000
  H   H4585     1.0  0.67789  0.49783  0.51570  1.0000
  C   C2583     1.0  0.80030  0.51206  0.56763  1.0000
  C   C2584     1.0  0.93010  0.50532  0.62114  1.0000
  N   N146      1.0  0.71823  0.56284  0.50930  1.0000
  C   C2585     1.0  0.70365  0.57175  0.52146  1.0000
  C   C2586     1.0  0.74107  0.54827  0.51288  1.0000
  C   C2587     1.0  0.72265  0.58378  0.49863  1.0000
  C   C2588     1.0  0.70554  0.54750  0.50431  1.0000
  H   H4586     1.0  0.70995  0.88879  0.50564  1.0000
  C   C2589     1.0  0.75942  0.56216  0.51505  1.0000
  C   C2590     1.0  0.77952  0.54549  0.52108  1.0000
  S   S592      1.0  0.72211  0.55660  0.71734  1.0000
  H   H4587     1.0  0.71252  0.58434  0.52444  1.0000
  H   H4588     1.0  0.70248  0.55708  0.53007  1.0000
  H   H4589     1.0  0.73737  0.53521  0.52206  1.0000
  H   H4590     1.0  0.75010  0.53731  0.50521  1.0000
  H   H4591     1.0  0.73060  0.59634  0.50227  1.0000
  H   H4592     1.0  0.71714  0.53978  0.49590  1.0000
  H   H4593     1.0  0.71204  0.51418  0.51818  1.0000
  C   C2591     1.0  0.97441  0.54378  0.55135  1.0000
  C   C2592     1.0  0.67363  0.58084  0.47733  1.0000
  H   H4594     1.0  0.76736  0.57194  0.50546  1.0000
  H   H4595     1.0  0.75131  0.57500  0.52173  1.0000
  C   C2593     1.0  0.68021  0.77440  0.53168  1.0000
  C   C2594     1.0  0.79502  0.96951  0.53136  1.0000
  H   H4596     1.0  0.79404  0.55523  0.52080  1.0000
  C   C2595     1.0  0.69556  0.73114  0.66546  1.0000
  H   H4597     1.0  0.75230  0.95347  0.52079  1.0000
  N   N147      1.0  0.76205  0.62346  0.55113  1.0000
  C   C2596     1.0  0.76253  0.64700  0.55460  1.0000
  C   C2597     1.0  0.75216  0.60768  0.56348  1.0000
  C   C2598     1.0  0.78736  0.61244  0.54679  1.0000
  C   C2599     1.0  0.74833  0.62546  0.54011  1.0000
  C   C2600     1.0  0.77624  0.66392  0.54375  1.0000
  C   C2601     1.0  0.79138  0.58648  0.54463  1.0000
  C   C2602     1.0  0.72604  0.61527  0.56960  1.0000
  C   C2603     1.0  0.71931  0.59981  0.58296  1.0000
  C   C2604     1.0  0.77030  0.68905  0.54665  1.0000
  C   C2605     1.0  0.81601  0.57943  0.53687  1.0000
  H   H4598     1.0  0.77103  0.64437  0.56348  1.0000
  H   H4599     1.0  0.74442  0.65652  0.55750  1.0000
  H   H4600     1.0  0.75291  0.58966  0.56156  1.0000
  H   H4601     1.0  0.76325  0.60566  0.57124  1.0000
  H   H4602     1.0  0.79837  0.61297  0.55415  1.0000
  H   H4603     1.0  0.79519  0.62286  0.53736  1.0000
  H   H4604     1.0  0.76007  0.62791  0.53029  1.0000
  H   H4605     1.0  0.74184  0.60862  0.54081  1.0000
  H   H4606     1.0  0.79558  0.65813  0.54344  1.0000
  H   H4607     1.0  0.77230  0.66419  0.53383  1.0000
  H   H4608     1.0  0.77820  0.58362  0.53917  1.0000
  H   H4609     1.0  0.79010  0.57441  0.55434  1.0000
  H   H4610     1.0  0.72254  0.63371  0.57123  1.0000
  H   H4611     1.0  0.71419  0.61327  0.56305  1.0000
  H   H4612     1.0  0.73023  0.60140  0.59012  1.0000
  H   H4613     1.0  0.70045  0.60562  0.58704  1.0000
  H   H4614     1.0  0.72166  0.58106  0.58188  1.0000
  H   H4615     1.0  0.77480  0.68943  0.55638  1.0000
  H   H4616     1.0  0.78069  0.70069  0.53891  1.0000
  H   H4617     1.0  0.75118  0.69605  0.54678  1.0000
  H   H4618     1.0  0.81778  0.58938  0.52658  1.0000
  H   H4619     1.0  0.82972  0.58286  0.54175  1.0000
  H   H4620     1.0  0.81919  0.56031  0.53645  1.0000
  H   H4621     1.0  0.75254  0.94420  0.49884  1.0000
  C   C2606     1.0  0.98062  0.60392  0.56299  1.0000
  H   H4622     1.0  0.67708  0.80041  0.51376  1.0000
  H   H4623     1.0  0.96337  0.48459  0.61509  1.0000
  S   S593      1.0  0.86390  0.97757  0.56311  1.0000
  H   H4624     1.0  0.68480  0.69611  0.65606  1.0000
  H   H4625     1.0  0.89035  0.69210  0.55736  1.0000
  H   H4626     1.0  0.78832  0.93971  0.64004  1.0000
  H   H4627     1.0  0.81542  0.50445  0.65859  1.0000
  H   H4628     1.0  0.73706  0.95357  0.67322  1.0000
  C   C2607     1.0  0.84364  0.51334  0.64229  1.0000
  C   C2608     1.0  0.94320  0.61162  0.55312  1.0000
  H   H4629     1.0  0.95492  0.63532  0.56303  1.0000
  H   H4630     1.0  0.84590  0.51779  0.63133  1.0000
  C   C2609     1.0  0.67583  0.68827  0.55159  1.0000
  H   H4631     1.0  0.89598  0.57680  0.56106  1.0000
  C   C2610     1.0  0.72844  0.88907  0.50658  1.0000
  C   C2611     1.0  0.81824  0.90044  0.61464  1.0000
  C   C2612     1.0  0.80988  0.55477  0.63537  1.0000
  C   C2613     1.0  0.88598  0.50496  0.47432  1.0000
  C   C2614     1.0  0.95461  0.49278  0.62375  1.0000
  C   C2615     1.0  0.69757  0.75455  0.57301  1.0000
  H   H4632     1.0  0.93887  0.62025  0.52615  1.0000
  H   H4633     1.0  0.69651  0.88084  0.64422  1.0000
  H   H4634     1.0  0.98149  0.58453  0.56528  1.0000
  H   H4635     1.0  0.81083  0.55567  0.68325  1.0000
  H   H4636     1.0  0.81078  0.50323  0.64258  1.0000
  C   C2616     1.0  0.66276  0.93680  0.64564  1.0000
  S   S594      1.0  0.68621  0.50759  0.71810  1.0000
  C   C2617     1.0  0.82175  0.96897  0.52869  1.0000
  H   H4637     1.0  0.76431  0.96690  0.59823  1.0000
  H   H4638     1.0  0.68440  0.53268  0.52307  1.0000
  N   N148      1.0  0.91695  0.62023  0.55405  1.0000
  C   C2618     1.0  0.90546  0.65673  0.56616  1.0000
  H   H4639     1.0  0.75247  0.96338  0.53975  1.0000
  C   C2619     1.0  0.91953  0.62631  0.52852  1.0000
  H   H4640     1.0  0.88794  0.65288  0.57172  1.0000
  H   H4641     1.0  0.91871  0.64901  0.57266  1.0000
  H   H4642     1.0  0.92348  0.57222  0.56713  1.0000
  H   H4643     1.0  0.80248  0.89441  0.62137  1.0000
  C   C2620     1.0  0.79492  0.57979  0.63326  1.0000
  H   H4644     1.0  0.83421  0.88779  0.61704  1.0000
  C   C2621     1.0  0.66178  0.95195  0.49938  1.0000
  H   H4645     1.0  0.67565  0.87504  0.59435  1.0000
  H   H4646     1.0  0.72402  0.64274  0.51912  1.0000
  H   H4647     1.0  0.80624  0.58674  0.61187  1.0000
  H   H4648     1.0  0.79429  0.58894  0.64159  1.0000
  C   C2622     1.0  0.74017  0.51626  0.65662  1.0000
  N   N149      1.0  0.71343  0.88633  0.54499  1.0000
  C   C2623     1.0  0.72916  0.90271  0.54646  1.0000
  C   C2624     1.0  0.68797  0.89834  0.54747  1.0000
  C   C2625     1.0  0.71624  0.86491  0.55575  1.0000
  C   C2626     1.0  0.71957  0.87851  0.53169  1.0000
  C   C2627     1.0  0.72898  0.89651  0.51960  1.0000
  C   C2628     1.0  0.75537  0.89154  0.54706  1.0000
  C   C2629     1.0  0.70149  0.84551  0.55628  1.0000
  C   C2630     1.0  0.68097  0.92132  0.53781  1.0000
  H   H4649     1.0  0.81395  0.97448  0.59380  1.0000
  C   C2631     1.0  0.66616  0.96725  0.62578  1.0000
  C   C2632     1.0  0.77103  0.91029  0.54496  1.0000
  C   C2633     1.0  0.70717  0.82462  0.56720  1.0000
  H   H4650     1.0  0.72209  0.91004  0.55570  1.0000
  H   H4651     1.0  0.72897  0.91836  0.53851  1.0000
  H   H4652     1.0  0.67575  0.88652  0.54690  1.0000
  H   H4653     1.0  0.68323  0.90228  0.55773  1.0000
  H   H4654     1.0  0.71210  0.87037  0.56566  1.0000
  H   H4655     1.0  0.73485  0.85564  0.55470  1.0000
  H   H4656     1.0  0.73347  0.86249  0.53190  1.0000
  H   H4657     1.0  0.70391  0.87290  0.52950  1.0000
  H   H4658     1.0  0.74758  0.89767  0.51981  1.0000
  H   H4659     1.0  0.79320  0.52562  0.57403  1.0000
  H   H4660     1.0  0.75683  0.88070  0.55698  1.0000
  H   H4661     1.0  0.76249  0.88004  0.53952  1.0000
  H   H4662     1.0  0.70525  0.83894  0.54677  1.0000
  H   H4663     1.0  0.68235  0.85209  0.55848  1.0000
  H   H4664     1.0  0.69296  0.93419  0.53670  1.0000
  H   H4665     1.0  0.68085  0.91713  0.52798  1.0000
  H   H4666     1.0  0.90816  0.61201  0.57549  1.0000
  H   H4667     1.0  0.86415  0.51724  0.58785  1.0000
  C   C2634     1.0  0.81151  0.48919  0.57557  1.0000
  H   H4668     1.0  0.79759  0.48287  0.58366  1.0000
  H   H4669     1.0  0.79255  0.48084  0.62826  1.0000
  H   H4670     1.0  0.89306  0.55196  0.58277  1.0000
  H   H4671     1.0  0.91938  0.49231  0.62030  1.0000
  H   H4672     1.0  0.78927  0.90169  0.54631  1.0000
  H   H4673     1.0  0.77178  0.92059  0.53481  1.0000
  H   H4674     1.0  0.69485  0.81201  0.56838  1.0000
  H   H4675     1.0  0.72558  0.81539  0.56473  1.0000
  H   H4676     1.0  0.70508  0.83057  0.57682  1.0000
  C   C2635     1.0  0.65329  0.65630  0.55568  1.0000
  C   C2636     1.0  0.91130  0.64678  0.55304  1.0000
  H   H4677     1.0  0.92082  0.51502  0.62925  1.0000
  Fe  Fe299     1.0  0.72180  0.51988  0.71424  1.0000
  C   C2637     1.0  0.68377  0.68004  0.56369  1.0000
  H   H4678     1.0  0.82340  0.59759  0.62114  1.0000
  H   H4679     1.0  0.65620  0.74394  0.56913  1.0000
  H   H4680     1.0  0.78635  0.95143  0.66140  1.0000
  H   H4681     1.0  0.82967  0.95925  0.69943  1.0000
  H   H4682     1.0  0.67644  0.94340  0.64915  1.0000
  H   H4683     1.0  0.70566  0.59402  0.49593  1.0000
  H   H4684     1.0  0.80982  0.49259  0.60388  1.0000
  C   C2638     1.0  0.90851  0.62039  0.51789  1.0000
  H   H4685     1.0  0.91582  0.62977  0.50803  1.0000
  H   H4686     1.0  0.88402  0.61605  0.56722  1.0000
  H   H4687     1.0  0.88901  0.62584  0.51968  1.0000
  H   H4688     1.0  0.73580  0.90192  0.49815  1.0000
  H   H4689     1.0  0.94575  0.60952  0.57411  1.0000
  H   H4690     1.0  0.91626  0.64576  0.52763  1.0000
  S   S595      1.0  0.68180  0.55153  0.47439  1.0000
  H   H4691     1.0  0.68961  0.74181  0.58127  1.0000
  H   H4692     1.0  0.78679  0.53091  0.51542  1.0000
  H   H4693     1.0  0.75701  0.60767  0.48089  1.0000
  H   H4694     1.0  0.81619  0.94951  0.65241  1.0000
  H   H4695     1.0  0.66294  0.57485  0.54098  1.0000
  H   H4696     1.0  0.94749  0.59254  0.55258  1.0000
  C   C2639     1.0  0.69002  0.79294  0.52052  1.0000
  H   H4697     1.0  0.85168  0.52591  0.64574  1.0000
  H   H4698     1.0  0.67966  0.73104  0.66130  1.0000
  C   C2640     1.0  0.69689  0.52655  0.51452  1.0000
  H   H4699     1.0  0.71873  0.91448  0.51941  1.0000
  H   H4700     1.0  0.67623  0.76064  0.52706  1.0000
  H   H4701     1.0  0.66650  0.78084  0.57246  1.0000
  H   H4702     1.0  0.91410  0.59480  0.54240  1.0000
  H   H4703     1.0  0.90136  0.57389  0.58985  1.0000
  H   H4704     1.0  0.81678  0.90038  0.60426  1.0000
  H   H4705     1.0  0.81349  0.51907  0.55930  1.0000
  H   H4706     1.0  0.92600  0.65510  0.54646  1.0000
  C   C2641     1.0  0.79793  0.95946  0.65254  1.0000
  H   H4707     1.0  0.77317  0.53787  0.53151  1.0000
  H   H4708     1.0  0.78555  0.50867  0.56351  1.0000
  C   C2642     1.0  0.67999  0.66869  0.63999  1.0000
  H   H4709     1.0  0.68063  0.97201  0.62950  1.0000
  H   H4710     1.0  0.66829  0.52432  0.50464  1.0000
  H   H4711     1.0  0.95296  0.62024  0.54372  1.0000
  H   H4712     1.0  0.66849  0.91782  0.49368  1.0000
  H   H4713     1.0  0.88952  0.61803  0.54361  1.0000
  H   H4714     1.0  0.73325  0.50140  0.66374  1.0000
  H   H4715     1.0  0.83233  0.56475  0.65375  1.0000
  H   H4716     1.0  0.68206  0.65217  0.63601  1.0000
  C   C2643     1.0  0.82016  0.49706  0.49988  1.0000
  H   H4717     1.0  0.84496  0.49724  0.51259  1.0000
  H   H4718     1.0  0.72941  0.53301  0.65925  1.0000
  C   C2644     1.0  0.78878  0.95844  0.64009  1.0000
  H   H4719     1.0  0.74508  0.75265  0.71550  1.0000
  H   H4720     1.0  0.79817  0.54445  0.47872  1.0000
  C   C2645     1.0  0.95487  0.61616  0.56410  1.0000
  C   C2646     1.0  0.90311  0.60839  0.56661  1.0000
  C   C2647     1.0  0.80434  0.96971  0.62749  1.0000
  H   H4721     1.0  0.79398  0.61258  0.61921  1.0000
  N   N150      1.0  0.80144  0.53820  0.64774  1.0000
  H   H4722     1.0  0.78228  0.93632  0.62002  1.0000
  C   C2648     1.0  0.90486  0.58127  0.56835  1.0000
  H   H4723     1.0  0.71468  0.76651  0.71914  1.0000
  H   H4724     1.0  0.67821  0.76265  0.67348  1.0000
  H   H4725     1.0  0.88699  0.52377  0.47392  1.0000
  H   H4726     1.0  0.66240  0.85083  0.58150  1.0000
  C   C2649     1.0  0.67463  0.93448  0.49226  1.0000
  C   C2650     1.0  0.68587  0.89536  0.64923  1.0000
  C   C2651     1.0  0.80030  0.54797  0.66011  1.0000
  H   H4727     1.0  0.89541  0.65406  0.54827  1.0000
  H   H4728     1.0  0.77569  0.53229  0.63711  1.0000
  H   H4729     1.0  0.77046  0.96824  0.64094  1.0000
  H   H4730     1.0  0.78449  0.47850  0.68041  1.0000
  C   C2652     1.0  0.73795  0.57793  0.48544  1.0000
  H   H4731     1.0  0.80774  0.58367  0.67214  1.0000
  C   C2653     1.0  0.67647  0.65984  0.57183  1.0000
  H   H4732     1.0  0.70999  0.75775  0.67164  1.0000
  H   H4733     1.0  0.66204  0.80075  0.54372  1.0000
  H   H4734     1.0  0.77663  0.57899  0.63230  1.0000
  H   H4735     1.0  0.87893  0.52502  0.60677  1.0000
  H   H4736     1.0  0.70455  0.62709  0.53223  1.0000
  H   H4737     1.0  0.83063  0.95163  0.53335  1.0000
  C   C2654     1.0  0.65525  0.86940  0.58071  1.0000
  H   H4738     1.0  0.78674  0.56415  0.66047  1.0000
  H   H4739     1.0  0.69131  0.92076  0.63151  1.0000
  H   H4740     1.0  0.89931  0.69016  0.57302  1.0000
  C   C2655     1.0  0.82367  0.55343  0.66245  1.0000
  H   H4741     1.0  0.77573  0.49777  0.65545  1.0000
  C   C2656     1.0  0.66269  0.88309  0.58805  1.0000
  C   C2657     1.0  0.71264  0.64331  0.52895  1.0000
  C   C2658     1.0  0.70274  0.96077  0.48073  1.0000
  H   H4742     1.0  0.91279  0.60116  0.51771  1.0000
  H   H4743     1.0  0.84395  0.93608  0.57604  1.0000
  H   H4744     1.0  0.79580  0.94195  0.60329  1.0000
  H   H4745     1.0  0.83632  0.93013  0.60943  1.0000
  H   H4746     1.0  0.93180  0.51806  0.61170  1.0000
  H   H4747     1.0  0.83637  0.56943  0.67594  1.0000
  C   C2659     1.0  0.73341  0.95432  0.66344  1.0000
  H   H4748     1.0  0.67355  0.60278  0.53699  1.0000
  C   C2660     1.0  0.81696  0.51419  0.64822  1.0000
  H   H4749     1.0  0.74886  0.91794  0.66251  1.0000
  C   C2661     1.0  0.90916  0.61401  0.54253  1.0000
  H   H4750     1.0  0.81052  0.54683  0.62651  1.0000
  C   C2662     1.0  0.76612  0.51536  0.65733  1.0000
  H   H4751     1.0  0.67847  0.60147  0.51298  1.0000
  H   H4752     1.0  0.83586  0.53672  0.66491  1.0000
  C   C2663     1.0  0.77661  0.53542  0.64710  1.0000
  C   C2664     1.0  0.75734  0.96645  0.51190  1.0000
  H   H4753     1.0  0.75420  0.56507  0.48695  1.0000
  H   H4754     1.0  0.82830  0.51046  0.58400  1.0000
  H   H4755     1.0  0.79787  0.96160  0.70142  1.0000
  H   H4756     1.0  0.76405  0.55197  0.64854  1.0000
  C   C2665     1.0  0.88083  0.50673  0.60497  1.0000
  C   C2666     1.0  0.89245  0.57118  0.58205  1.0000
  H   H4757     1.0  0.79142  0.95563  0.52679  1.0000
  H   H4758     1.0  0.94411  0.48489  0.64459  1.0000
  H   H4759     1.0  0.69578  0.76839  0.65726  1.0000
  H   H4760     1.0  0.72640  0.96429  0.50403  1.0000
  H   H4761     1.0  0.70650  0.78470  0.51470  1.0000
  C   C2667     1.0  0.66482  0.75516  0.56028  1.0000
  H   H4762     1.0  0.84423  0.51168  0.60313  1.0000
  H   H4763     1.0  0.87114  0.49992  0.48220  1.0000
  C   C2668     1.0  0.66460  0.59100  0.53342  1.0000
  C   C2669     1.0  0.86165  0.50512  0.59750  1.0000
  H   H4764     1.0  0.65581  0.63224  0.57406  1.0000
  C   C2670     1.0  0.74539  0.60007  0.47637  1.0000
  H   H4765     1.0  0.72746  0.57038  0.48020  1.0000
  H   H4766     1.0  0.71125  0.74471  0.56623  1.0000
  H   H4767     1.0  0.93054  0.48822  0.56837  1.0000
  H   H4768     1.0  0.69410  0.80741  0.52455  1.0000
  C   C2671     1.0  0.69503  0.93892  0.48295  1.0000
  H   H4769     1.0  0.78960  0.96475  0.54220  1.0000
  H   H4770     1.0  0.72963  0.61348  0.47443  1.0000
  H   H4771     1.0  0.75786  0.95186  0.72250  1.0000
  C   C2672     1.0  0.65772  0.78555  0.54041  1.0000
  H   H4772     1.0  0.84799  0.49425  0.57255  1.0000
  C   C2673     1.0  0.66059  0.67655  0.54764  1.0000
  C   C2674     1.0  0.67865  0.77012  0.56553  1.0000
  H   H4773     1.0  0.65496  0.93858  0.55239  1.0000
  H   H4774     1.0  0.71819  0.95041  0.55572  1.0000
  H   H4775     1.0  0.83584  0.48201  0.62016  1.0000
  C   C2675     1.0  0.65896  0.62710  0.48285  1.0000
  S   S596      1.0  0.80896  0.48368  0.70100  1.0000
  H   H4776     1.0  0.68771  0.78212  0.55736  1.0000
  H   H4777     1.0  0.67534  0.95386  0.61958  1.0000
  C   C2676     1.0  0.71726  0.97591  0.64419  1.0000
  H   H4778     1.0  0.85704  0.48399  0.65673  1.0000
  C   C2677     1.0  0.85769  0.48872  0.64586  1.0000
  H   H4779     1.0  0.75017  0.97500  0.49169  1.0000
  H   H4780     1.0  0.96460  0.50650  0.62449  1.0000
  S   S597      1.0  0.66116  0.92388  0.59732  1.0000
  H   H4781     1.0  0.70954  0.97735  0.56233  1.0000
  C   C2678     1.0  0.67610  0.91553  0.63901  1.0000
  H   H4782     1.0  0.66460  0.90854  0.63413  1.0000
  C   C2679     1.0  0.83486  0.97151  0.56575  1.0000
  C   C2680     1.0  0.72197  0.97536  0.65687  1.0000
  C   C2681     1.0  0.70801  0.96852  0.55424  1.0000
  H   H4783     1.0  0.76035  0.97357  0.62124  1.0000
  H   H4784     1.0  0.82855  0.97154  0.51790  1.0000
  H   H4785     1.0  0.83431  0.96867  0.60476  1.0000
  H   H4786     1.0  0.72694  0.48348  0.68769  1.0000
  H   H4787     1.0  0.67122  0.88835  0.65653  1.0000
  H   H4788     1.0  0.70455  0.92554  0.47726  1.0000
  H   H4789     1.0  0.66524  0.66855  0.64855  1.0000
  H   H4790     1.0  0.94011  0.48108  0.59090  1.0000
  S   S598      1.0  0.72761  0.49744  0.47273  1.0000
  C   C2682     1.0  0.81623  0.97796  0.60344  1.0000
  H   H4791     1.0  0.81910  0.47857  0.50328  1.0000
  C   C2683     1.0  0.69036  0.97788  0.48818  1.0000
  H   H4792     1.0  0.67191  0.97693  0.59799  1.0000
  C   C2684     1.0  0.80854  0.97762  0.72240  1.0000
  H   H4793     1.0  0.79770  0.97803  0.65339  1.0000
  C   C2685     1.0  0.80168  0.92820  0.89429  1.0000
  H   H4794     1.0  0.68740  0.91049  0.79297  1.0000
  S   S599      1.0  0.75060  0.50277  0.72586  1.0000
  H   H4795     1.0  0.71704  0.66834  0.74594  1.0000
  H   H4796     1.0  0.75886  0.59146  0.73431  1.0000
  Fe  Fe300     1.0  0.73613  0.51621  0.93482  1.0000
  S   S600      1.0  0.71882  0.54969  0.94228  1.0000
  S   S601      1.0  0.73049  0.51656  0.91374  1.0000
  Fe  Fe301     1.0  0.75470  0.55108  0.94631  1.0000
  S   S602      1.0  0.76636  0.58711  0.94023  1.0000
  H   H4797     1.0  0.93210  0.62483  0.88946  1.0000
  S   S603      1.0  0.77263  0.51838  0.93821  1.0000
  H   H4798     1.0  0.97924  0.82634  0.87818  1.0000
  Fe  Fe302     1.0  0.87720  0.90614  0.87182  1.0000
  S   S604      1.0  0.86061  0.87996  0.88776  1.0000
  S   S605      1.0  0.85723  0.92640  0.85558  1.0000
  Fe  Fe303     1.0  0.92305  0.89723  0.88363  1.0000
  S   S606      1.0  0.90959  0.87021  0.90057  1.0000
  S   S607      1.0  0.96014  0.90651  0.87731  1.0000
  Fe  Fe304     1.0  0.89609  0.85685  0.88538  1.0000
  S   S608      1.0  0.90485  0.82111  0.87923  1.0000
  Fe  Fe305     1.0  0.87509  0.89609  0.90144  1.0000
  S   S609      1.0  0.84961  0.90477  0.91994  1.0000
  S   S610      1.0  0.91170  0.88223  0.86840  1.0000
  S   S611      1.0  0.88953  0.92397  0.88552  1.0000
  Fe  Fe306     1.0  0.87371  0.64485  0.89947  1.0000
  S   S612      1.0  0.88918  0.64513  0.87793  1.0000
  S   S613      1.0  0.86894  0.60895  0.91182  1.0000
  Fe  Fe307     1.0  0.87139  0.69822  0.89647  1.0000
  S   S614      1.0  0.88664  0.70170  0.87491  1.0000
  S   S615      1.0  0.85996  0.73008  0.90666  1.0000
  Fe  Fe308     1.0  0.86207  0.67747  0.87429  1.0000
  S   S616      1.0  0.83678  0.68959  0.85973  1.0000
  Fe  Fe309     1.0  0.91238  0.66930  0.88095  1.0000
  S   S617      1.0  0.95141  0.66717  0.87172  1.0000
  S   S618      1.0  0.84516  0.67571  0.89560  1.0000
  S   S619      1.0  0.89856  0.66711  0.90265  1.0000
  H   H4799     1.0  0.77506  0.52881  0.83721  1.0000
  C   C2686     1.0  0.81604  0.93994  0.92955  1.0000
  H   H4800     1.0  0.83846  0.95287  0.89065  1.0000
  S   S620      1.0  0.75293  0.54435  0.74911  1.0000
  Fe  Fe310     1.0  0.74214  0.90658  0.80813  1.0000
  S   S621      1.0  0.77895  0.91163  0.79796  1.0000
  S   S622      1.0  0.71601  0.93987  0.81067  1.0000
  Fe  Fe311     1.0  0.75187  0.85360  0.80725  1.0000
  S   S623      1.0  0.78891  0.85525  0.79648  1.0000
  S   S624      1.0  0.73585  0.82014  0.81535  1.0000
  Fe  Fe312     1.0  0.79071  0.87768  0.81114  1.0000
  S   S625      1.0  0.82153  0.86610  0.82242  1.0000
  Fe  Fe313     1.0  0.77337  0.88915  0.78438  1.0000
  S   S626      1.0  0.78276  0.89931  0.76203  1.0000
  S   S627      1.0  0.75423  0.87458  0.82248  1.0000
  S   S628      1.0  0.73609  0.88552  0.79396  1.0000
  Fe  Fe314     1.0  0.73040  0.64935  0.81207  1.0000
  S   S629      1.0  0.75992  0.62019  0.80693  1.0000
  S   S630      1.0  0.69502  0.64131  0.82363  1.0000
  Fe  Fe315     1.0  0.76011  0.68837  0.79940  1.0000
  S   S631      1.0  0.79128  0.66141  0.79327  1.0000
  S   S632      1.0  0.76964  0.72511  0.79175  1.0000
  Fe  Fe316     1.0  0.76586  0.64361  0.78710  1.0000
  S   S633      1.0  0.77231  0.63587  0.76614  1.0000
  Fe  Fe317     1.0  0.78224  0.64092  0.81364  1.0000
  S   S634      1.0  0.81040  0.62365  0.82618  1.0000
  S   S635      1.0  0.73505  0.67192  0.79190  1.0000
  S   S636      1.0  0.75228  0.66866  0.82014  1.0000
  C   C2687     1.0  0.74542  0.79378  0.80874  1.0000
  C   C2688     1.0  0.76204  0.79276  0.79714  1.0000
  C   C2689     1.0  0.76894  0.77163  0.79204  1.0000
  C   C2690     1.0  0.75963  0.75121  0.79856  1.0000
  C   C2691     1.0  0.74301  0.75217  0.81017  1.0000
  C   C2692     1.0  0.73590  0.77341  0.81520  1.0000
  H   H4801     1.0  0.76932  0.80835  0.79201  1.0000
  H   H4802     1.0  0.78143  0.77119  0.78293  1.0000
  H   H4803     1.0  0.73564  0.73660  0.81526  1.0000
  H   H4804     1.0  0.72296  0.77409  0.82416  1.0000
  C   C2693     1.0  0.75881  0.56989  0.75356  1.0000
  C   C2694     1.0  0.76055  0.59079  0.74445  1.0000
  C   C2695     1.0  0.76467  0.61083  0.74847  1.0000
  C   C2696     1.0  0.76667  0.61034  0.76165  1.0000
  C   C2697     1.0  0.76481  0.58950  0.77077  1.0000
  C   C2698     1.0  0.76125  0.56932  0.76669  1.0000
  H   H4805     1.0  0.76627  0.62682  0.74132  1.0000
  H   H4806     1.0  0.76667  0.58879  0.78089  1.0000
  H   H4807     1.0  0.76078  0.55310  0.77373  1.0000
  H   H4808     1.0  0.70971  0.53654  0.89059  1.0000
  C   C2699     1.0  0.97920  0.88995  0.90034  1.0000
  C   C2700     1.0  0.74743  0.93848  0.76093  1.0000
  C   C2701     1.0  0.76492  0.92370  0.75384  1.0000
  C   C2702     1.0  0.76868  0.92874  0.73994  1.0000
  H   H4809     1.0  0.91199  0.92139  0.84583  1.0000
  C   C2703     1.0  0.97137  0.66843  0.89335  1.0000
  H   H4810     1.0  0.74439  0.93485  0.77163  1.0000
  C   C2704     1.0  0.78413  0.93414  0.86824  1.0000
  C   C2705     1.0  0.66355  0.96643  0.83765  1.0000
  C   C2706     1.0  0.82938  0.66978  0.85140  1.0000
  C   C2707     1.0  0.84500  0.64949  0.84845  1.0000
  C   C2708     1.0  0.83895  0.63516  0.84086  1.0000
  C   C2709     1.0  0.81752  0.64134  0.83601  1.0000
  C   C2710     1.0  0.80198  0.66154  0.83909  1.0000
  C   C2711     1.0  0.80777  0.67552  0.84686  1.0000
  H   H4811     1.0  0.86183  0.64502  0.85184  1.0000
  H   H4812     1.0  0.85109  0.61953  0.83852  1.0000
  H   H4813     1.0  0.78535  0.66637  0.83562  1.0000
  H   H4814     1.0  0.79547  0.69099  0.84924  1.0000
  H   H4815     1.0  0.88749  0.97290  0.84670  1.0000
  S   S637      1.0  0.74649  0.53195  0.96722  1.0000
  H   H4816     1.0  0.95362  0.67013  0.89890  1.0000
  C   C2712     1.0  0.84521  0.90941  0.84742  1.0000
  C   C2713     1.0  0.85133  0.88486  0.84940  1.0000
  C   C2714     1.0  0.84325  0.87178  0.84196  1.0000
  C   C2715     1.0  0.82875  0.88306  0.83261  1.0000
  C   C2716     1.0  0.82191  0.90753  0.83097  1.0000
  C   C2717     1.0  0.83030  0.92068  0.83828  1.0000
  H   H4817     1.0  0.86294  0.87600  0.85636  1.0000
  H   H4818     1.0  0.84879  0.85289  0.84320  1.0000
  H   H4819     1.0  0.81085  0.91638  0.82374  1.0000
  H   H4820     1.0  0.82555  0.93968  0.83666  1.0000
  C   C2718     1.0  0.89016  0.79726  0.88679  1.0000
  C   C2719     1.0  0.87563  0.79641  0.89919  1.0000
  C   C2720     1.0  0.86593  0.77589  0.90517  1.0000
  C   C2721     1.0  0.87088  0.75625  0.89879  1.0000
  C   C2722     1.0  0.88491  0.75757  0.88629  1.0000
  C   C2723     1.0  0.89433  0.77800  0.88027  1.0000
  H   H4821     1.0  0.87230  0.81127  0.90429  1.0000
  H   H4822     1.0  0.85503  0.77502  0.91487  1.0000
  H   H4823     1.0  0.88879  0.74280  0.88127  1.0000
  H   H4824     1.0  0.90522  0.77873  0.87058  1.0000
  C   C2724     1.0  0.89406  0.87996  0.81930  1.0000
  C   C2725     1.0  0.95113  0.57570  0.92314  1.0000
  H   H4825     1.0  0.79978  0.85057  0.88488  1.0000
  N   N151      1.0  0.67524  0.55211  0.78018  1.0000
  H   H4826     1.0  0.71377  0.75187  0.74294  1.0000
  H   H4827     1.0  0.98621  0.81369  0.86335  1.0000
  H   H4828     1.0  0.80648  0.92591  0.93485  1.0000
  H   H4829     1.0  0.68381  0.90237  0.81614  1.0000
  H   H4830     1.0  0.66645  0.95855  0.77828  1.0000
  H   H4831     1.0  0.82738  0.85579  0.87414  1.0000
  H   H4832     1.0  0.77202  0.70431  0.76944  1.0000
  C   C2726     1.0  0.79499  0.59253  0.93214  1.0000
  C   C2727     1.0  0.79892  0.61597  0.92823  1.0000
  C   C2728     1.0  0.82138  0.62120  0.92190  1.0000
  C   C2729     1.0  0.84027  0.60300  0.91951  1.0000
  C   C2730     1.0  0.83637  0.57953  0.92342  1.0000
  C   C2731     1.0  0.81379  0.57430  0.92960  1.0000
  H   H4833     1.0  0.78454  0.63016  0.93025  1.0000
  H   H4834     1.0  0.82414  0.63933  0.91910  1.0000
  H   H4835     1.0  0.85086  0.56530  0.92167  1.0000
  H   H4836     1.0  0.81104  0.55617  0.93261  1.0000
  C   C2732     1.0  0.75670  0.54051  0.86800  1.0000
  H   H4837     1.0  0.82674  0.84508  0.89156  1.0000
  H   H4838     1.0  0.80593  0.79453  0.82674  1.0000
  C   C2733     1.0  0.68781  0.61357  0.82369  1.0000
  C   C2734     1.0  0.70188  0.59846  0.81543  1.0000
  C   C2735     1.0  0.69665  0.57592  0.81618  1.0000
  H   H4839     1.0  0.89075  0.78289  0.84404  1.0000
  H   H4840     1.0  0.79331  0.82022  0.87184  1.0000
  H   H4841     1.0  0.71681  0.60410  0.80846  1.0000
  H   H4842     1.0  0.70806  0.56418  0.81001  1.0000
  C   C2736     1.0  0.71647  0.52712  0.78235  1.0000
  C   C2737     1.0  0.70652  0.50980  0.90798  1.0000
  H   H4843     1.0  0.85222  0.80621  0.85461  1.0000
  H   H4844     1.0  0.78635  0.79300  0.85865  1.0000
  H   H4845     1.0  0.66184  0.91624  0.78510  1.0000
  H   H4846     1.0  0.87242  0.96912  0.93460  1.0000
  C   C2738     1.0  0.97678  0.82512  0.91284  1.0000
  C   C2739     1.0  0.69652  0.94272  0.82560  1.0000
  C   C2740     1.0  0.69636  0.92465  0.83661  1.0000
  C   C2741     1.0  0.67945  0.92737  0.84808  1.0000
  C   C2742     1.0  0.83425  0.76263  0.77817  1.0000
  H   H4847     1.0  0.70895  0.90851  0.83622  1.0000
  H   H4848     1.0  0.67899  0.91325  0.85653  1.0000
  C   C2743     1.0  0.66798  0.60620  0.83239  1.0000
  C   C2744     1.0  0.83793  0.93445  0.92140  1.0000
  C   C2745     1.0  0.66270  0.58361  0.83313  1.0000
  C   C2746     1.0  0.73203  0.51456  0.79258  1.0000
  H   H4849     1.0  0.71827  0.75710  0.78603  1.0000
  H   H4850     1.0  0.72484  0.54184  0.77624  1.0000
  H   H4851     1.0  0.79554  0.82565  0.82309  1.0000
  H   H4852     1.0  0.68950  0.60159  0.85420  1.0000
  H   H4853     1.0  0.75005  0.50828  0.78743  1.0000
  H   H4854     1.0  0.95358  0.58496  0.87357  1.0000
  H   H4855     1.0  0.72460  0.49915  0.79880  1.0000
  H   H4856     1.0  0.74951  0.68222  0.76286  1.0000
  N   N152      1.0  0.83510  0.72707  0.81423  1.0000
  C   C2747     1.0  0.86003  0.72904  0.81510  1.0000
  C   C2748     1.0  0.82691  0.74417  0.80249  1.0000
  C   C2749     1.0  0.81933  0.73382  0.82666  1.0000
  C   C2750     1.0  0.83281  0.70224  0.81357  1.0000
  C   C2751     1.0  0.84870  0.69120  0.80195  1.0000
  C   C2752     1.0  0.87001  0.71396  0.82738  1.0000
  C   C2753     1.0  0.79231  0.73606  0.82716  1.0000
  C   C2754     1.0  0.84576  0.74894  0.78991  1.0000
  C   C2755     1.0  0.84887  0.66468  0.80417  1.0000
  C   C2756     1.0  0.89676  0.71270  0.82563  1.0000
  C   C2757     1.0  0.77823  0.74436  0.83980  1.0000
  H   H4857     1.0  0.86105  0.74775  0.81517  1.0000
  H   H4858     1.0  0.87269  0.72461  0.80623  1.0000
  H   H4859     1.0  0.81205  0.73831  0.79959  1.0000
  H   H4860     1.0  0.81950  0.76190  0.80518  1.0000
  H   H4861     1.0  0.82261  0.75096  0.82826  1.0000
  H   H4862     1.0  0.82359  0.72070  0.83548  1.0000
  H   H4863     1.0  0.83578  0.69023  0.82294  1.0000
  H   H4864     1.0  0.81440  0.70136  0.81274  1.0000
  H   H4865     1.0  0.86733  0.69359  0.80062  1.0000
  H   H4866     1.0  0.84164  0.69909  0.79269  1.0000
  H   H4867     1.0  0.86182  0.72192  0.83631  1.0000
  H   H4868     1.0  0.86664  0.69560  0.82928  1.0000
  H   H4869     1.0  0.78748  0.71890  0.82689  1.0000
  H   H4870     1.0  0.78638  0.74910  0.81876  1.0000
  H   H4871     1.0  0.85793  0.75973  0.79170  1.0000
  H   H4872     1.0  0.85650  0.73253  0.78699  1.0000
  H   H4873     1.0  0.85882  0.65741  0.79529  1.0000
  H   H4874     1.0  0.85746  0.65562  0.81278  1.0000
  H   H4875     1.0  0.83059  0.66090  0.80602  1.0000
  H   H4876     1.0  0.90161  0.73059  0.82293  1.0000
  H   H4877     1.0  0.90298  0.70379  0.83502  1.0000
  H   H4878     1.0  0.90592  0.70235  0.81777  1.0000
  H   H4879     1.0  0.78390  0.73255  0.84870  1.0000
  H   H4880     1.0  0.78051  0.76258  0.83987  1.0000
  H   H4881     1.0  0.75913  0.74437  0.84022  1.0000
  C   C2758     1.0  0.81386  0.77384  0.87607  1.0000
  C   C2759     1.0  0.85561  0.77302  0.84844  1.0000
  C   C2760     1.0  0.81822  0.74813  0.87361  1.0000
  C   C2761     1.0  0.80736  0.73196  0.88572  1.0000
  C   C2762     1.0  0.88255  0.76670  0.84654  1.0000
  H   H4882     1.0  0.82440  0.77321  0.88387  1.0000
  H   H4883     1.0  0.79495  0.77832  0.88065  1.0000
  H   H4884     1.0  0.85604  0.78183  0.86743  1.0000
  H   H4885     1.0  0.85078  0.78236  0.83879  1.0000
  H   H4886     1.0  0.84835  0.75639  0.85096  1.0000
  H   H4887     1.0  0.81037  0.74639  0.86521  1.0000
  H   H4888     1.0  0.83750  0.74138  0.87181  1.0000
  H   H4889     1.0  0.81569  0.73160  0.89438  1.0000
  H   H4890     1.0  0.78799  0.73784  0.88819  1.0000
  H   H4891     1.0  0.81035  0.71382  0.88357  1.0000
  H   H4892     1.0  0.88904  0.75650  0.83838  1.0000
  H   H4893     1.0  0.88815  0.75571  0.85569  1.0000
  H   H4894     1.0  0.96129  0.82745  0.90784  1.0000
  H   H4895     1.0  0.76206  0.95871  0.90350  1.0000
  H   H4896     1.0  0.96084  0.71296  0.90464  1.0000
  H   H4897     1.0  0.92625  0.58738  0.90387  1.0000
  C   C2763     1.0  0.96258  0.53252  0.93306  1.0000
  H   H4898     1.0  0.68680  0.84617  0.82593  1.0000
  C   C2764     1.0  0.72773  0.74301  0.73590  1.0000
  H   H4899     1.0  0.94890  0.90898  0.85085  1.0000
  H   H4900     1.0  0.79431  0.54137  0.81390  1.0000
  C   C2765     1.0  0.81589  0.69343  0.75624  1.0000
  H   H4901     1.0  0.75992  0.74928  0.74094  1.0000
  C   C2766     1.0  0.70146  0.56365  0.85909  1.0000
  H   H4902     1.0  0.70307  0.59247  0.86881  1.0000
  H   H4903     1.0  0.72139  0.72807  0.73355  1.0000
  H   H4904     1.0  0.75299  0.51364  0.88577  1.0000
  C   C2767     1.0  0.81912  0.84415  0.88288  1.0000
  H   H4905     1.0  0.66106  0.56864  0.75464  1.0000
  H   H4906     1.0  0.67268  0.58691  0.76818  1.0000
  H   H4907     1.0  0.76705  0.62845  0.84883  1.0000
  C   C2768     1.0  0.84622  0.78901  0.85908  1.0000
  H   H4908     1.0  0.81048  0.77655  0.84965  1.0000
  C   C2769     1.0  0.70034  0.52243  0.89590  1.0000
  H   H4909     1.0  0.74375  0.49082  0.84712  1.0000
  C   C2770     1.0  0.73765  0.96314  0.74031  1.0000
  H   H4910     1.0  0.76733  0.56602  0.91612  1.0000
  H   H4911     1.0  0.93182  0.57650  0.92710  1.0000
  H   H4912     1.0  0.76279  0.72363  0.73412  1.0000
  H   H4913     1.0  0.97556  0.53643  0.93832  1.0000
  H   H4914     1.0  0.72766  0.48806  0.75678  1.0000
  H   H4915     1.0  0.75428  0.75670  0.76823  1.0000
  N   N153      1.0  0.81995  0.79260  0.86428  1.0000
  H   H4916     1.0  0.81667  0.80782  0.88993  1.0000
  H   H4917     1.0  0.84359  0.81316  0.87870  1.0000
  H   H4918     1.0  0.78420  0.96934  0.74793  1.0000
  H   H4919     1.0  0.71642  0.51454  0.77583  1.0000
  H   H4920     1.0  0.75505  0.50541  0.83086  1.0000
  H   H4921     1.0  0.70470  0.70853  0.75210  1.0000
  H   H4922     1.0  0.84813  0.76651  0.76945  1.0000
  C   C2771     1.0  0.98321  0.89907  0.88682  1.0000
  C   C2772     1.0  0.81290  0.81614  0.86890  1.0000
  C   C2773     1.0  0.69101  0.53585  0.78909  1.0000
  C   C2774     1.0  0.78392  0.91151  0.90170  1.0000
  H   H4923     1.0  0.96492  0.93193  0.82823  1.0000
  C   C2775     1.0  0.73878  0.50323  0.83823  1.0000
  H   H4924     1.0  0.84994  0.95542  0.94626  1.0000
  H   H4925     1.0  0.65687  0.61789  0.83873  1.0000
  C   C2776     1.0  0.80527  0.79285  0.85398  1.0000
  C   C2777     1.0  0.82413  0.81867  0.88060  1.0000
  C   C2778     1.0  0.97253  0.79038  0.88115  1.0000
  C   C2779     1.0  0.98545  0.89555  0.84481  1.0000
  H   H4926     1.0  0.67363  0.58714  0.86930  1.0000
  H   H4927     1.0  0.82270  0.75204  0.77558  1.0000
  C   C2780     1.0  0.94650  0.92898  0.80059  1.0000
  C   C2781     1.0  0.94557  0.60915  0.88769  1.0000
  H   H4928     1.0  0.70072  0.56933  0.76504  1.0000
  H   H4929     1.0  0.86552  0.57336  0.87498  1.0000
  C   C2782     1.0  0.90447  0.96652  0.85044  1.0000
  C   C2783     1.0  0.67710  0.56839  0.82503  1.0000
  H   H4930     1.0  0.79940  0.58802  0.90163  1.0000
  H   H4931     1.0  0.69170  0.66972  0.75903  1.0000
  C   C2784     1.0  0.76266  0.59739  0.90094  1.0000
  H   H4932     1.0  0.69229  0.93881  0.77223  1.0000
  H   H4933     1.0  0.94731  0.73430  0.84056  1.0000
  H   H4934     1.0  0.72251  0.78581  0.77683  1.0000
  C   C2785     1.0  0.67188  0.92377  0.79061  1.0000
  H   H4935     1.0  0.90359  0.93901  0.94410  1.0000
  H   H4936     1.0  0.78219  0.51119  0.87584  1.0000
  H   H4937     1.0  0.82358  0.77960  0.78051  1.0000
  H   H4938     1.0  0.68525  0.84905  0.84285  1.0000
  H   H4939     1.0  0.77676  0.80713  0.83446  1.0000
  H   H4940     1.0  0.71073  0.61784  0.78051  1.0000
  H   H4941     1.0  0.73350  0.52684  0.79899  1.0000
  H   H4942     1.0  0.91447  0.94709  0.81133  1.0000
  H   H4943     1.0  0.82777  0.61681  0.86820  1.0000
  H   H4944     1.0  0.76632  0.59865  0.84771  1.0000
  H   H4945     1.0  0.68806  0.55827  0.85473  1.0000
  H   H4946     1.0  0.95492  0.57351  0.89719  1.0000
  H   H4947     1.0  0.97831  0.54922  0.91387  1.0000
  C   C2786     1.0  0.81051  0.96380  0.87860  1.0000
  H   H4948     1.0  0.81782  0.83059  0.86068  1.0000
  H   H4949     1.0  0.70368  0.86560  0.82984  1.0000
  H   H4950     1.0  0.68941  0.53428  0.76350  1.0000
  C   C2787     1.0  0.86549  0.59009  0.87832  1.0000
  H   H4951     1.0  0.81178  0.64372  0.88359  1.0000
  H   H4952     1.0  0.84255  0.61481  0.88947  1.0000
  H   H4953     1.0  0.79242  0.67875  0.89517  1.0000
  H   H4954     1.0  0.87058  0.60356  0.86961  1.0000
  C   C2788     1.0  0.80638  0.96350  0.93082  1.0000
  H   H4955     1.0  0.67336  0.88124  0.80999  1.0000
  C   C2789     1.0  0.71087  0.67069  0.75639  1.0000
  Fe  Fe318     1.0  0.71245  0.52743  0.96241  1.0000
  C   C2790     1.0  0.73226  0.73238  0.76521  1.0000
  C   C2791     1.0  0.75512  0.57451  0.90905  1.0000
  H   H4956     1.0  0.68676  0.62247  0.77142  1.0000
  H   H4957     1.0  0.73527  0.57588  0.85175  1.0000
  N   N154      1.0  0.74906  0.71940  0.75508  1.0000
  C   C2792     1.0  0.80594  0.81399  0.84235  1.0000
  H   H4958     1.0  0.82428  0.81730  0.83847  1.0000
  H   H4959     1.0  0.77121  0.54945  0.86187  1.0000
  H   H4960     1.0  0.93501  0.73505  0.92154  1.0000
  S   S638      1.0  0.67155  0.53979  0.82570  1.0000
  H   H4961     1.0  0.74267  0.55399  0.87219  1.0000
  C   C2793     1.0  0.96069  0.55033  0.92030  1.0000
  H   H4962     1.0  0.81183  0.93038  0.90170  1.0000
  H   H4963     1.0  0.91227  0.64489  0.93327  1.0000
  C   C2794     1.0  0.97511  0.66696  0.87994  1.0000
  C   C2795     1.0  0.94691  0.72714  0.85124  1.0000
  C   C2796     1.0  0.79540  0.80990  0.83102  1.0000
  H   H4964     1.0  0.79530  0.83024  0.84570  1.0000
  H   H4965     1.0  0.77551  0.90579  0.89462  1.0000
  H   H4966     1.0  0.78950  0.96758  0.93708  1.0000
  H   H4967     1.0  0.79731  0.70971  0.74031  1.0000
  H   H4968     1.0  0.97546  0.84102  0.91727  1.0000
  H   H4969     1.0  0.96075  0.79287  0.89067  1.0000
  C   C2797     1.0  0.66809  0.89370  0.81717  1.0000
  C   C2798     1.0  0.77789  0.96631  0.89795  1.0000
  C   C2799     1.0  0.82197  0.60386  0.87702  1.0000
  C   C2800     1.0  0.84118  0.59873  0.88592  1.0000
  H   H4970     1.0  0.78882  0.63582  0.86548  1.0000
  H   H4971     1.0  0.79955  0.59767  0.85797  1.0000
  H   H4972     1.0  0.87885  0.58684  0.88489  1.0000
  H   H4973     1.0  0.93958  0.91348  0.79939  1.0000
  H   H4974     1.0  0.72060  0.96946  0.75978  1.0000
  H   H4975     1.0  0.96314  0.61476  0.88443  1.0000
  H   H4976     1.0  0.93119  0.66361  0.92178  1.0000
  H   H4977     1.0  0.73141  0.51938  0.86637  1.0000
  C   C2801     1.0  0.79776  0.63363  0.88954  1.0000
  C   C2802     1.0  0.77688  0.66983  0.89944  1.0000
  H   H4978     1.0  0.80281  0.62738  0.89948  1.0000
  H   H4979     1.0  0.82273  0.58722  0.87337  1.0000
  H   H4980     1.0  0.77859  0.66057  0.90964  1.0000
  H   H4981     1.0  0.74574  0.61253  0.86033  1.0000
  H   H4982     1.0  0.78212  0.91736  0.73438  1.0000
  H   H4983     1.0  0.75517  0.94729  0.85708  1.0000
  H   H4984     1.0  0.74998  0.60476  0.89406  1.0000
  H   H4985     1.0  0.90027  0.91478  0.81047  1.0000
  C   C2803     1.0  0.93276  0.93922  0.81302  1.0000
  H   H4986     1.0  0.73560  0.76924  0.75607  1.0000
  H   H4987     1.0  0.75899  0.64457  0.89524  1.0000
  H   H4988     1.0  0.81079  0.87993  0.90311  1.0000
  C   C2804     1.0  0.98079  0.59742  0.90665  1.0000
  H   H4989     1.0  0.83350  0.93066  0.76439  1.0000
  C   C2805     1.0  0.72474  0.56452  0.84897  1.0000
  H   H4990     1.0  0.92857  0.72453  0.85585  1.0000
  N   N155      1.0  0.79705  0.61278  0.88335  1.0000
  C   C2806     1.0  0.78230  0.62055  0.87251  1.0000
  H   H4991     1.0  0.87669  0.88283  0.81602  1.0000
  C   C2807     1.0  0.78194  0.60183  0.86415  1.0000
  H   H4992     1.0  0.93736  0.88897  0.81921  1.0000
  H   H4993     1.0  0.81505  0.91868  0.88718  1.0000
  H   H4994     1.0  0.89789  0.94071  0.83354  1.0000
  H   H4995     1.0  0.83731  0.58487  0.89461  1.0000
  H   H4996     1.0  0.77259  0.66277  0.88095  1.0000
  H   H4997     1.0  0.76072  0.68344  0.89995  1.0000
  H   H4998     1.0  0.88294  0.92606  0.93846  1.0000
  H   H4999     1.0  0.97290  0.77616  0.86383  1.0000
  H   H5000     1.0  0.71104  0.57571  0.78573  1.0000
  C   C2808     1.0  0.81929  0.94616  0.76308  1.0000
  C   C2809     1.0  0.74185  0.69600  0.75520  1.0000
  C   C2810     1.0  0.77505  0.65245  0.89087  1.0000
  C   C2811     1.0  0.76411  0.61097  0.85473  1.0000
  H   H5001     1.0  0.76367  0.62728  0.87644  1.0000
  H   H5002     1.0  0.86727  0.94864  0.90857  1.0000
  H   H5003     1.0  0.79109  0.57660  0.88935  1.0000
  C   C2812     1.0  0.91552  0.93421  0.83654  1.0000
  H   H5004     1.0  0.94430  0.76176  0.85546  1.0000
  H   H5005     1.0  0.96556  0.92357  0.80119  1.0000
  C   C2813     1.0  0.74657  0.52699  0.85982  1.0000
  H   H5006     1.0  0.80199  0.94002  0.76677  1.0000
  C   C2814     1.0  0.71508  0.69447  0.75835  1.0000
  C   C2815     1.0  0.66300  0.94826  0.84858  1.0000
  H   H5007     1.0  0.77705  0.58539  0.87051  1.0000
  C   C2816     1.0  0.95976  0.90029  0.84270  1.0000
  C   C2817     1.0  0.67212  0.53897  0.76993  1.0000
  C   C2818     1.0  0.92329  0.95554  0.84006  1.0000
  C   C2819     1.0  0.85024  0.95265  0.91469  1.0000
  C   C2820     1.0  0.67328  0.56822  0.92076  1.0000
  H   H5008     1.0  0.69246  0.95240  0.78606  1.0000
  C   C2821     1.0  0.70246  0.60986  0.77427  1.0000
  C   C2822     1.0  0.77319  0.71413  0.75909  1.0000
  H   H5009     1.0  0.66593  0.89022  0.83860  1.0000
  S   S639      1.0  0.65892  0.48908  0.85413  1.0000
  H   H5010     1.0  0.70798  0.69600  0.76886  1.0000
  C   C2823     1.0  0.73393  0.95810  0.75419  1.0000
  H   H5011     1.0  0.76666  0.96719  0.87382  1.0000
  H   H5012     1.0  0.98240  0.61574  0.90143  1.0000
  C   C2824     1.0  0.95526  0.74416  0.85779  1.0000
  C   C2825     1.0  0.69135  0.58772  0.86305  1.0000
  H   H5013     1.0  0.90768  0.87137  0.81195  1.0000
  C   C2826     1.0  0.78849  0.59287  0.89366  1.0000
  C   C2827     1.0  0.71828  0.76855  0.77617  1.0000
  H   H5014     1.0  0.95435  0.88297  0.84348  1.0000
  H   H5015     1.0  0.82187  0.70968  0.75717  1.0000
  C   C2828     1.0  0.68592  0.57369  0.77318  1.0000
  H   H5016     1.0  0.68194  0.53322  0.93136  1.0000
  H   H5017     1.0  0.66640  0.50498  0.95025  1.0000
  C   C2829     1.0  0.66620  0.54450  0.92768  1.0000
  C   C2830     1.0  0.88497  0.93606  0.94595  1.0000
  H   H5018     1.0  0.92115  0.88901  0.83539  1.0000
  C   C2831     1.0  0.73672  0.75732  0.76569  1.0000
  H   H5019     1.0  0.96163  0.88705  0.90525  1.0000
  H   H5020     1.0  0.68341  0.51969  0.79378  1.0000
  H   H5021     1.0  0.66196  0.53616  0.92015  1.0000
  H   H5022     1.0  0.94109  0.95447  0.81331  1.0000
  H   H5023     1.0  0.79120  0.57084  0.81742  1.0000
  H   H5024     1.0  0.68160  0.59082  0.79060  1.0000
  C   C2832     1.0  0.76185  0.54530  0.83731  1.0000
  C   C2833     1.0  0.75106  0.73398  0.74140  1.0000
  H   H5025     1.0  0.71372  0.73483  0.76368  1.0000
  H   H5026     1.0  0.95466  0.93971  0.77931  1.0000
  H   H5027     1.0  0.74742  0.57336  0.82222  1.0000
  H   H5028     1.0  0.93566  0.65424  0.93863  1.0000
  H   H5029     1.0  0.76116  0.60955  0.90798  1.0000
  C   C2834     1.0  0.69422  0.49163  0.91481  1.0000
  H   H5030     1.0  0.76013  0.51134  0.85785  1.0000
  H   H5031     1.0  0.95881  0.70983  0.85220  1.0000
  C   C2835     1.0  0.97350  0.81486  0.87272  1.0000
  H   H5032     1.0  0.67782  0.57741  0.92790  1.0000
  H   H5033     1.0  0.96556  0.63222  0.92331  1.0000
  H   H5034     1.0  0.71783  0.50353  0.82326  1.0000
  C   C2836     1.0  0.94416  0.72415  0.90222  1.0000
  H   H5035     1.0  0.79199  0.96574  0.96242  1.0000
  H   H5036     1.0  0.73252  0.72160  0.77528  1.0000
  H   H5037     1.0  0.78816  0.68270  0.74962  1.0000
  Fe  Fe319     1.0  0.76207  0.49860  0.95892  1.0000
  H   H5038     1.0  0.82125  0.94324  0.74291  1.0000
  H   H5039     1.0  0.68374  0.96502  0.96529  1.0000
  H   H5040     1.0  0.95907  0.71680  0.87504  1.0000
  H   H5041     1.0  0.93300  0.73795  0.87646  1.0000
  H   H5042     1.0  0.93596  0.71477  0.89667  1.0000
  H   H5043     1.0  0.92164  0.61676  0.91781  1.0000
  H   H5044     1.0  0.75048  0.54426  0.81858  1.0000
  C   C2837     1.0  0.75501  0.94830  0.73320  1.0000
  H   H5045     1.0  0.81307  0.68212  0.76612  1.0000
  C   C2838     1.0  0.69523  0.58665  0.78201  1.0000
  H   H5046     1.0  0.77973  0.73059  0.75906  1.0000
  C   C2839     1.0  0.79623  0.88934  0.90963  1.0000
  H   H5047     1.0  0.66622  0.52196  0.77474  1.0000
  H   H5048     1.0  0.94508  0.53292  0.93965  1.0000
  H   H5049     1.0  0.93992  0.95014  0.84418  1.0000
  C   C2840     1.0  0.94456  0.94736  0.78805  1.0000
  H   H5050     1.0  0.91003  0.73720  0.91343  1.0000
  H   H5051     1.0  0.78335  0.87729  0.91436  1.0000
  C   C2841     1.0  0.72538  0.52712  0.84200  1.0000
  H   H5052     1.0  0.73720  0.77654  0.72488  1.0000
  N   N156      1.0  0.73959  0.54098  0.84702  1.0000
  C   C2842     1.0  0.75866  0.55576  0.82282  1.0000
  C   C2843     1.0  0.94889  0.74869  0.89431  1.0000
  C   C2844     1.0  0.95245  0.73610  0.87301  1.0000
  H   H5053     1.0  0.90155  0.95339  0.85962  1.0000
  H   H5054     1.0  0.76981  0.92024  0.90873  1.0000
  H   H5055     1.0  0.77069  0.55773  0.84047  1.0000
  H   H5056     1.0  0.92420  0.70885  0.92073  1.0000
  C   C2845     1.0  0.92735  0.72656  0.91527  1.0000
  H   H5057     1.0  0.93142  0.76021  0.89375  1.0000
  H   H5058     1.0  0.79342  0.91658  0.87225  1.0000
  C   C2846     1.0  0.79313  0.69953  0.75041  1.0000
  H   H5059     1.0  0.74945  0.68965  0.74568  1.0000
  H   H5060     1.0  0.94450  0.78282  0.87306  1.0000
  N   N157      1.0  0.79097  0.95200  0.88747  1.0000
  C   C2847     1.0  0.68126  0.94476  0.78126  1.0000
  C   C2848     1.0  0.89991  0.90359  0.82037  1.0000
  H   H5061     1.0  0.70966  0.52308  0.84955  1.0000
  H   H5062     1.0  0.88528  0.91195  0.82730  1.0000
  C   C2849     1.0  0.78248  0.55867  0.81397  1.0000
  H   H5063     1.0  0.96880  0.90588  0.82159  1.0000
  H   H5064     1.0  0.70035  0.77148  0.77359  1.0000
  C   C2850     1.0  0.76660  0.52376  0.87953  1.0000
  H   H5065     1.0  0.75487  0.56199  0.90251  1.0000
  H   H5066     1.0  0.89299  0.86803  0.82903  1.0000
  H   H5067     1.0  0.70409  0.55101  0.86822  1.0000
  N   N158      1.0  0.93228  0.92232  0.82600  1.0000
  H   H5068     1.0  0.72045  0.65607  0.76286  1.0000
  H   H5069     1.0  0.69197  0.54427  0.79747  1.0000
  H   H5070     1.0  0.80354  0.89397  0.91753  1.0000
  H   H5071     1.0  0.95749  0.75620  0.90062  1.0000
  S   S640      1.0  0.72723  0.49348  0.95478  1.0000
  N   N159      1.0  0.96354  0.74898  0.88062  1.0000
  C   C2851     1.0  0.96299  0.77449  0.87408  1.0000
  H   H5072     1.0  0.77216  0.53397  0.88581  1.0000
  H   H5073     1.0  0.71548  0.60687  0.76522  1.0000
  C   C2852     1.0  0.92372  0.90010  0.82538  1.0000
  C   C2853     1.0  0.68005  0.96348  0.82616  1.0000
  H   H5074     1.0  0.75806  0.94279  0.88543  1.0000
  H   H5075     1.0  0.83002  0.68353  0.74970  1.0000
  H   H5076     1.0  0.71785  0.53788  0.83336  1.0000
  N   N160      1.0  0.95499  0.59527  0.91149  1.0000
  C   C2854     1.0  0.68670  0.85873  0.83252  1.0000
  C   C2855     1.0  0.82132  0.95737  0.74847  1.0000
  C   C2856     1.0  0.73150  0.76074  0.72307  1.0000
  C   C2857     1.0  0.93062  0.64873  0.93024  1.0000
  H   H5077     1.0  0.77974  0.56624  0.80367  1.0000
  H   H5078     1.0  0.73706  0.57838  0.91479  1.0000
  H   H5079     1.0  0.71936  0.57441  0.83954  1.0000
  C   C2858     1.0  0.93992  0.60004  0.87628  1.0000
  H   H5080     1.0  0.82078  0.95234  0.87151  1.0000
  C   C2859     1.0  0.66589  0.87893  0.83135  1.0000
  C   C2860     1.0  0.76469  0.93019  0.86162  1.0000
  C   C2861     1.0  0.68182  0.51725  0.89080  1.0000
  H   H5081     1.0  0.88092  0.92524  0.95590  1.0000
  H   H5082     1.0  0.75185  0.92045  0.86892  1.0000
  H   H5083     1.0  0.94782  0.61341  0.93561  1.0000
  H   H5084     1.0  0.77267  0.91961  0.85370  1.0000
  H   H5085     1.0  0.68907  0.56529  0.91298  1.0000
  H   H5086     1.0  0.95885  0.57790  0.93150  1.0000
  C   C2862     1.0  0.94783  0.62695  0.92654  1.0000
  H   H5087     1.0  0.94837  0.54492  0.91517  1.0000
  C   C2863     1.0  0.67570  0.48647  0.90972  1.0000
  C   C2864     1.0  0.65486  0.55231  0.76045  1.0000
  H   H5088     1.0  0.67092  0.53223  0.74457  1.0000
  C   C2865     1.0  0.66930  0.49928  0.89771  1.0000
  C   C2866     1.0  0.95707  0.91583  0.82905  1.0000
  H   H5089     1.0  0.82103  0.95895  0.76911  1.0000
  C   C2867     1.0  0.94085  0.61810  0.91520  1.0000
  H   H5090     1.0  0.94250  0.63267  0.90665  1.0000
  H   H5091     1.0  0.95577  0.82331  0.87039  1.0000
  H   H5092     1.0  0.66608  0.94123  0.80753  1.0000
  H   H5093     1.0  0.97614  0.80944  0.92082  1.0000
  H   H5094     1.0  0.92229  0.59444  0.87901  1.0000
  H   H5095     1.0  0.65976  0.50167  0.93516  1.0000
  Fe  Fe320     1.0  0.75235  0.53972  0.72806  1.0000
  H   H5096     1.0  0.93971  0.61433  0.86749  1.0000
  C   C2868     1.0  0.94500  0.59015  0.90040  1.0000
  H   H5097     1.0  0.67683  0.52738  0.88167  1.0000
  H   H5098     1.0  0.97380  0.74544  0.85315  1.0000
  C   C2869     1.0  0.77381  0.94960  0.87910  1.0000
  H   H5099     1.0  0.79687  0.94297  0.86038  1.0000
  C   C2870     1.0  0.72336  0.49175  0.83221  1.0000
  C   C2871     1.0  0.86803  0.95951  0.94483  1.0000
  H   H5100     1.0  0.79553  0.96536  0.72454  1.0000
  C   C2872     1.0  0.79525  0.97057  0.97150  1.0000
  H   H5101     1.0  0.96862  0.51449  0.93070  1.0000
  H   H5102     1.0  0.70736  0.48793  0.83947  1.0000
  H   H5103     1.0  0.65693  0.48274  0.79307  1.0000
  H   H5104     1.0  0.86955  0.96297  0.96493  1.0000
  H   H5105     1.0  0.68761  0.47965  0.75941  1.0000
  H   H5106     1.0  0.67115  0.49020  0.81299  1.0000
  H   H5107     1.0  0.69216  0.48691  0.77439  1.0000
  H   H5108     1.0  0.69918  0.48138  0.92393  1.0000
  H   H5109     1.0  0.67972  0.97710  0.81755  1.0000
  H   H5110     1.0  0.65489  0.56762  0.79685  1.0000
  H   H5111     1.0  0.85655  0.97111  0.86828  1.0000
  H   H5112     1.0  0.92580  0.95288  0.78672  1.0000
  H   H5113     1.0  0.82610  0.96628  0.72282  1.0000
  C   C2873     1.0  0.65593  0.93141  0.80329  1.0000
  C   C2874     1.0  0.82888  0.96943  0.88566  1.0000
  H   H5114     1.0  0.83849  0.96382  0.74527  1.0000
  H   H5115     1.0  0.78900  0.96534  0.90553  1.0000
  H   H5116     1.0  0.65868  0.57955  0.91601  1.0000
  C   C2875     1.0  0.82112  0.97323  0.97006  1.0000
  H   H5117     1.0  0.95198  0.96307  0.78851  1.0000
  C   C2876     1.0  0.87045  0.97433  0.95499  1.0000
  C   C2877     1.0  0.67999  0.48075  0.72830  1.0000
  H   H5118     1.0  0.92598  0.96950  0.83127  1.0000
  H   H5119     1.0  0.83199  0.95580  0.96889  1.0000
  C   C2878     1.0  0.84070  0.97611  0.91602  1.0000
  C   C2879     1.0  0.80037  0.97764  0.74610  1.0000
  C   C2880     1.0  0.65327  0.53710  0.75058  1.0000
  H   H5120     1.0  0.65346  0.55261  0.94694  1.0000
