data_image0
_chemical_formula_structural       CH2CFeHFeS2FeS2FeHFeS3FeS2H3C2HFeS2FeS2H2C2HSHCH3C7H4C2H3C6H4CHCHSH3CH3SC2HNC2HCHCHC2H2CH4CH5C3SH4CH3CHCFeHSH7CH4CH3CHC2H2CHCH8CNHCHCH2CHFeC2HNC11H23CH2CHCFeCH8CH3CH3NC6HC2SCH5CH4FeHCH9CHSHCHSH2CH2C2NCHC3H5CH3CH4C2H2CHFeS2HCH2SH2C2SH2CFeHCH2CH4CSHC3H3CH3NFeS2HSCH2CFeS2FeS2FeS2FeS2FeCFeS3CHCH2CHC6H5CH4C3H2FeC6H4SH3C3H2FeCSH8SHCH2CH3CH2NC11H19SH4CHCHCH2CHCH4CHCSNC6HC2HC2H16CH9CH3FeCHCH4CH8CH2C3HCHSC2H2C2HC2HC2H2C2H4CH3CH2CHCH3CHCH5CHC2H7FeH2CH2CHCH4CHCSH3NCH4NHCH2C3HC2NC2FeHCH2SCFeS2FeS2FeSFeS3HCSFeH2FeS2FeS2CH5CHC3HFeS2HC2H6C6H4CH4C6H4C3HCHCH5CH2C2HCH4CH6CHCHNC2H3C3HFeH11CH3CH3CHCH3CH5CHC8H2CH4CH2C3H5CHCH5CH5NH3C4H2CH2CHCH2NH4CSH2CHC4H2CSH3CHSCH6CH3NC2HCHCHC2H4NHSHCHCHCFeH2CH3SHCH3CSH3FeCSCH2SCH2CFeC5H2C2FeC3FeS2FeS2HCH3NFeS2FeS2FeSFeS3FeS2C8H4CHFeHC7H5C2HCH3SHCH4CH2C3H10CH2CHCH7C3HSHCHC2HCH4CHCHSFeC3NC12H16CH10CHCSHCH5CHCH3C4H3SHCHNHSH2C2H2CH2FeC2H11CH5NC12H23CH6CH4C2HCH4CHCH2NFeH3CHSHCH2CSHCH2CHCSH2C2H4CFeS2FeS2FeS2FeSFeS3FeS2FeS2C3H3C7H4C6H4CH2C2H4C4H4CHFeH4CHCH5C2HC2HC3H2FeH2CH3C2H2CH5CNH2CH3C2HC2H4CH5CHCH2C2HC2NH2C2SH5NHCH6CH11CH3SH3CNC2SC2HC5H4CH4CH6C2HFeHC2H5CH2CH4SH4CH7CHCH4C2H2CH3CSCHC4HS2HCHCH3CH4CH2CHFe2HSC2HCHFeH5C4SCH4C2HFeS2FeS2FeS2C2HCFeS2FeS2FeSFeS3H2C3H2C6H6C6H8SH3CH3C2H3CH2CH4CH4NHCHC5H4C2H10CH6CH3C2HNC2H7C3H10SNC8HCHCH14C2Fe2CH3CH5NCH2CH3C2HC2H3C2H6SC2HCH2C2HC3H2CH2SH3CHCHC3H3CH2CNH2S2H7SH9NC5HCHC2H2CH10C2H5CH2C3HCHC3HC3HCH2CH6NCSH6CHCH8CH5C2HFeHSFeSHFeS2FeSFeHS2HNH4FeS2H6FeS2HC3H2C6H4C6H5CHSH2CH2SCH2SHC2H2C2H3CHNH3NCH7CFeH4SH5CHC2H2CHCH2SHCHC2SCH7NC5H2C3H2CH4CH4CHCH5CH3CH3SH6NC11H25SHC3HC4HC2HCHCHCH2FeSH2C2SH3C2HCH2CHCH4C2NHC6H2C2H5FeC3H5CHC2H4CHCHC2H3CH2C2FeS2FeCSHFeHCH2FeS2FeS2FeS2FeSFeS3CS2H2C7H4NH2CHCH2C6H4C2H5CH3SH2C3HC2H3NCSC2SHCH2CHCH2CH11C2H4C2HNH9CHC2HC2H2CH3CNH2C2H4CSH4C2H4NC11H32C3HCH4CH2NHCH6FeH5CH3SHC2HCHC3H8C3HCHCHCH5CH2CHNH2C2HC2HC2HCH2C2SH2CFeH5C3HFeS2FeS2FeS2FeS2FeSFeS3H6FeHSC2HC2H3CHCH2C2H2CH2CH3C8H6C6H5SHNH6CH2C2HC2SNCHCHC3SC4H6NHC2H4CH5CH7NC7H5SH6CH7C2H2CHC2H2C5H2CH3CHC2H4CH7C3H2C3NH2CH2SH3CH4CHCHCHC4H3C2H2CH7C3NH6CHCH2CHCH2CH10NH2SH4CHCHCHC3HSC2HC3H5CHCHNFeCH6CH4CHFeH6CSFeS2H6FeHSH2C2HSFeHSFeS2FeS2FeSFeS3CHSH7CHC2H4CH4C2H2CH2C6H6NH2C6H4CSH3FeH2FeHC2HNC6SCHC2H17SH4NH5CH2C2HCHC2SH2CFeC2H3C2H3C2H4SHCH2CH2CH2CH5CHCH5C2HC2HSH3C2HCH2CHC2H6CH2C4HCH2CH7SH2CH2NHCH3CH2C3H3CH2C2HCH3CHCH2CHC2H2C2H2FeHC2HCH3C3H6C2H2C3HCHCH2CH5SHNH4C3SC2HCH2CH2FeS2CFeS3H3C2FeS2FeS2FeS2FeHFeS4CH3C6H4CH2CH4C6H4CHCHCHCHCH5SH2SH3CNH3CHCH4C2H4C2H2CH2C2HNH9CHCNH4CH7CHCHCH2CHC2H5SH7C2HCH4CH4CH6C2NC3SC6HCH15SCFeH3CHCH4NCHC5H2C3H2FeCH3CH6CH2SH7C2H2NC4HC3HC2H6CH6CH2CHC2HCH2C3H6C2HFeHC2H3C2HCH2SCHFeHC3SHSH2C3H4CH6FeHSFeS2FeS2FeS2FeSFeHS2H4CHFeS2C2H2C6H7C6H5CHC2H2CH2CNC2HCHC2H2CH6CH4CH2C2H5FeCH2C2H3CH2C5HC2H2C2FeHC2FeH5CH3C2H2CHSHCHCH3NHC6H2C3H2SH12C2H5CH2CHNHCH4CH2CSH4CHCH4CH2NHC3HCSCH2SH4CHC2HSH3CHCH3C3H6CH2CH5CH2CSCH3NFeCH2SC2H2CNCH3CH2C2HSH2SH2CH2CHNFeHC3H4C3H3CH2C2H2C2H3CHCH2C2H5CHCHFeS2HFeS2FeS2FeSHFeSFeS3H6FeS2H3C6H4SCH4C7H7C2H3SH6C2H2CH2C2H4CNC6HCNC2SH14SHCH9CH12SH2FeSHC2H4SH2CH3CHCHCH4FeCHCHC2HC4H2CH2CNCHC5HC2FeH2CSH4C2H5SH4CH2C2HCH3C3FeH3C3H4C4H7CNC12H7CH3CHC2H3C2H2CHCH2NCH5FeSCHCHCFeSH3CHCFeS2FeS2FeSFeS3FeS2FeS2HCNC8H4C6H4CH2NH2C2H6C2HCH3FeH2C3H6CSH3CH3CSCHSCH2C2HCH2C3H3CHSH4CH2C3H3CH10C2H2C5N2C12H20SH12CHCH8CH2SHCH3C2HCHCH3C2HCHCH4FeH4CHCHCH5C3H2C4HCHCHCFeH3SH3SH5CH4FeSH5CH3CH2C2H4C2HC2H5CHFeS2FeHSFeS2FeS2FeS2FeSFeS3HCH3C6H4S2H2NHC6H10FeHCH4SC2HSCHC3H4CH5CHC2HC2H2C2FeHNH2CH4CNC11H24CHCHCNC11NH13CH15CHSCHNC2SNC2H3CSH2CH5CHCH3FeH2C2SHCSHCHSHC3HC2H2CHCHCSC2HFeCH4SH2CH6CHFeHCH2C3HC3H3CH4CHCHC3H2CH3CHCH3SHCHC2HCH3FeHCH3CHFeS2FeSCFeS2FeSFeS3CS2HCH4FeS2CHFeHFeH2CH2C6H4C3HNHFeC6H6CH2C2HCH3S2H2SCHCH2CH2C2H4CH3FeH3CHCH2CH3C2NH6FeNC12H28NC8HC3H14SCHC2H10CH2SHSH2CH2CHC2HNSCFeHCH2C3H2CHCHSCH2C5HCH3CHSHCH2CH2SH6C2H2C2H4CHSHCH3CHCHCH2CHCH3CHC2HC2HSHCH4C2FeSH2
_chemical_formula_sum              "C1656 H2944 Fe184 S368 N92"
_cell_length_a       59.3494
_cell_length_b       60.0882
_cell_length_c       59.4661
_cell_angle_alpha    89.1687
_cell_angle_beta     88.4925
_cell_angle_gamma    88.7193

_space_group_name_H-M_alt    "P 1"
_space_group_IT_number       1

loop_
  _space_group_symop_operation_xyz
  'x, y, z'

loop_
  _atom_site_type_symbol
  _atom_site_label
  _atom_site_symmetry_multiplicity
  _atom_site_fract_x
  _atom_site_fract_y
  _atom_site_fract_z
  _atom_site_occupancy
  C   C1        1.0  0.24752  0.22682  0.23559  1.0000
  H   H1        1.0  0.42622  0.18291  0.28085  1.0000
  H   H2        1.0  0.44634  0.20047  0.29361  1.0000
  C   C2        1.0  0.10808  0.19553  0.28062  1.0000
  Fe  Fe1       1.0  0.00022  0.12111  0.32560  1.0000
  H   H3        1.0  0.02434  0.17166  0.31203  1.0000
  Fe  Fe2       1.0  0.20966  0.16137  0.17611  1.0000
  S   S1        1.0  0.20115  0.17271  0.21137  1.0000
  S   S2        1.0  0.24010  0.13819  0.16897  1.0000
  Fe  Fe3       1.0  0.17202  0.19056  0.15584  1.0000
  S   S3        1.0  0.16028  0.20355  0.18977  1.0000
  S   S4        1.0  0.15510  0.19477  0.12170  1.0000
  Fe  Fe4       1.0  0.19748  0.20708  0.19652  1.0000
  H   H4        1.0  0.40553  0.02644  0.29071  1.0000
  Fe  Fe5       1.0  0.16472  0.16829  0.20260  1.0000
  S   S5        1.0  0.14438  0.14842  0.22912  1.0000
  S   S6        1.0  0.20874  0.19633  0.16172  1.0000
  S   S7        1.0  0.17377  0.15479  0.16828  1.0000
  Fe  Fe6       1.0  0.01674  0.12347  0.27627  1.0000
  S   S8        1.0  0.02850  0.10364  0.30609  1.0000
  S   S9        1.0  0.03828  0.14346  0.25093  1.0000
  H   H5        1.0  0.29982  0.02111  0.02423  1.0000
  H   H6        1.0  0.02044  0.01767  0.24355  1.0000
  H   H7        1.0  0.02593  0.03211  0.21723  1.0000
  C   C3        1.0  0.00560  0.15699  0.37775  1.0000
  C   C4        1.0  0.01796  0.19721  0.27031  1.0000
  H   H8        1.0  0.03127  0.19178  0.25797  1.0000
  Fe  Fe7       1.0  0.46567  0.20151  0.36836  1.0000
  S   S10       1.0  0.42917  0.21035  0.35922  1.0000
  S   S11       1.0  0.47098  0.16648  0.38178  1.0000
  Fe  Fe8       1.0  0.27978  0.01606  0.12066  1.0000
  S   S12       1.0  0.25014  0.04082  0.12706  1.0000
  S   S13       1.0  0.31083  0.02047  0.09810  1.0000
  H   H9        1.0  0.07722  0.20791  0.35556  1.0000
  H   H10       1.0  0.40808  0.21078  0.30644  1.0000
  C   C5        1.0  0.41517  0.00176  0.19306  1.0000
  C   C6        1.0  0.40821  0.00011  0.15277  1.0000
  H   H11       1.0  0.22794  0.10396  0.24052  1.0000
  S   S14       1.0  0.49469  0.19837  0.34343  1.0000
  H   H12       1.0  0.43653  0.11509  0.25288  1.0000
  C   C7        1.0  0.20388  0.16328  0.05400  1.0000
  H   H13       1.0  0.46778  0.06666  0.33409  1.0000
  H   H14       1.0  0.24404  0.20986  0.23113  1.0000
  H   H15       1.0  0.21012  0.01129  0.17386  1.0000
  C   C8        1.0  0.22581  0.11438  0.22512  1.0000
  C   C9        1.0  0.24227  0.11079  0.15802  1.0000
  C   C10       1.0  0.26350  0.09987  0.15719  1.0000
  C   C11       1.0  0.26629  0.07848  0.14785  1.0000
  C   C12       1.0  0.24783  0.06775  0.13913  1.0000
  C   C13       1.0  0.22658  0.07868  0.14001  1.0000
  C   C14       1.0  0.22374  0.09996  0.14955  1.0000
  H   H16       1.0  0.27797  0.10807  0.16366  1.0000
  H   H17       1.0  0.28275  0.07034  0.14727  1.0000
  H   H18       1.0  0.21225  0.07062  0.13308  1.0000
  H   H19       1.0  0.20731  0.10804  0.15017  1.0000
  C   C15       1.0  0.15390  0.21807  0.10283  1.0000
  C   C16       1.0  0.14412  0.21557  0.08170  1.0000
  H   H20       1.0  0.16861  0.12302  0.13062  1.0000
  H   H21       1.0  0.13747  0.19964  0.07733  1.0000
  H   H22       1.0  0.14994  0.11928  0.10769  1.0000
  C   C17       1.0  0.11480  0.14729  0.23485  1.0000
  C   C18       1.0  0.10676  0.13273  0.25188  1.0000
  C   C19       1.0  0.08346  0.13114  0.25696  1.0000
  C   C20       1.0  0.06787  0.14429  0.24516  1.0000
  C   C21       1.0  0.07593  0.15897  0.22826  1.0000
  C   C22       1.0  0.09921  0.16042  0.22306  1.0000
  H   H23       1.0  0.11864  0.12257  0.26120  1.0000
  H   H24       1.0  0.07756  0.11975  0.26997  1.0000
  H   H25       1.0  0.06405  0.16923  0.21902  1.0000
  H   H26       1.0  0.10507  0.17172  0.20995  1.0000
  C   C23       1.0  0.33954  0.23138  0.30809  1.0000
  H   H27       1.0  0.04239  0.21774  0.33039  1.0000
  C   C24       1.0  0.01601  0.03268  0.23331  1.0000
  H   H28       1.0  0.47630  0.10457  0.34727  1.0000
  S   S15       1.0  0.36668  0.00437  0.13265  1.0000
  H   H29       1.0  0.27730  0.21785  0.25404  1.0000
  H   H30       1.0  0.23943  0.11012  0.21263  1.0000
  H   H31       1.0  0.35884  0.00870  0.18176  1.0000
  C   C25       1.0  0.33021  0.21950  0.32913  1.0000
  H   H32       1.0  0.39042  0.08648  0.20344  1.0000
  H   H33       1.0  0.35184  0.00703  0.01520  1.0000
  H   H34       1.0  0.46619  0.10331  0.28336  1.0000
  S   S16       1.0  0.48645  0.21642  0.39523  1.0000
  C   C26       1.0  0.43364  0.10186  0.26586  1.0000
  C   C27       1.0  0.45692  0.11148  0.41169  1.0000
  H   H35       1.0  0.24379  0.15361  0.12090  1.0000
  N   N1        1.0  0.22059  0.15336  0.09330  1.0000
  C   C28       1.0  0.21187  0.17617  0.10001  1.0000
  C   C29       1.0  0.20597  0.13607  0.10469  1.0000
  H   H36       1.0  0.48098  0.24257  0.31817  1.0000
  C   C30       1.0  0.22173  0.15033  0.06809  1.0000
  H   H37       1.0  0.46339  0.05965  0.23905  1.0000
  C   C31       1.0  0.39751  0.07880  0.23863  1.0000
  H   H38       1.0  0.25566  0.16256  0.09460  1.0000
  C   C32       1.0  0.18090  0.13601  0.09824  1.0000
  C   C33       1.0  0.22755  0.19575  0.09366  1.0000
  H   H39       1.0  0.08889  0.22470  0.06719  1.0000
  H   H40       1.0  0.28777  0.11018  0.10407  1.0000
  C   C34       1.0  0.14315  0.23344  0.06601  1.0000
  H   H41       1.0  0.44248  0.06152  0.28734  1.0000
  H   H42       1.0  0.01352  0.12828  0.46177  1.0000
  H   H43       1.0  0.21244  0.11900  0.10097  1.0000
  H   H44       1.0  0.20657  0.13793  0.12331  1.0000
  C   C35       1.0  0.04995  0.22548  0.37262  1.0000
  H   H45       1.0  0.22673  0.23182  0.09072  1.0000
  H   H46       1.0  0.23841  0.15554  0.06100  1.0000
  H   H47       1.0  0.22077  0.13231  0.06409  1.0000
  H   H48       1.0  0.12046  0.18663  0.29140  1.0000
  H   H49       1.0  0.45491  0.20268  0.46677  1.0000
  C   C36       1.0  0.44607  0.21900  0.46915  1.0000
  C   C37       1.0  0.20428  0.15543  0.02965  1.0000
  C   C38       1.0  0.42962  0.03759  0.26482  1.0000
  S   S17       1.0  0.01543  0.04107  0.29443  1.0000
  H   H50       1.0  0.38246  0.22298  0.35798  1.0000
  H   H51       1.0  0.11204  0.19113  0.26283  1.0000
  H   H52       1.0  0.20885  0.17670  0.11854  1.0000
  H   H53       1.0  0.17503  0.10193  0.10988  1.0000
  C   C39       1.0  0.24402  0.15027  0.10247  1.0000
  H   H54       1.0  0.17251  0.15246  0.10080  1.0000
  H   H55       1.0  0.42792  0.21722  0.46560  1.0000
  H   H56       1.0  0.41383  0.06626  0.28120  1.0000
  C   C40       1.0  0.43048  0.06184  0.27324  1.0000
  H   H57       1.0  0.01479  0.20932  0.30406  1.0000
  C   C41       1.0  0.05917  0.20520  0.35983  1.0000
  Fe  Fe9       1.0  0.49466  0.01551  0.26899  1.0000
  H   H58       1.0  0.19504  0.17993  0.09305  1.0000
  S   S18       1.0  0.48890  0.16850  0.44406  1.0000
  H   H59       1.0  0.38995  0.05713  0.21076  1.0000
  H   H60       1.0  0.46411  0.09748  0.21952  1.0000
  H   H61       1.0  0.42744  0.13516  0.29805  1.0000
  H   H62       1.0  0.18653  0.16146  0.06090  1.0000
  H   H63       1.0  0.47699  0.15064  0.48782  1.0000
  H   H64       1.0  0.42772  0.09131  0.22292  1.0000
  H   H65       1.0  0.09967  0.24000  0.14187  1.0000
  C   C42       1.0  0.28027  0.12721  0.10565  1.0000
  H   H66       1.0  0.02439  0.14289  0.40522  1.0000
  H   H67       1.0  0.25515  0.12208  0.08098  1.0000
  H   H68       1.0  0.45139  0.14226  0.27996  1.0000
  H   H69       1.0  0.44642  0.03196  0.25826  1.0000
  C   C43       1.0  0.00506  0.01356  0.29948  1.0000
  H   H70       1.0  0.28153  0.13238  0.12344  1.0000
  H   H71       1.0  0.32635  0.20196  0.32537  1.0000
  H   H72       1.0  0.20751  0.22076  0.11178  1.0000
  C   C44       1.0  0.46172  0.07498  0.24919  1.0000
  H   H73       1.0  0.38518  0.00711  0.21370  1.0000
  C   C45       1.0  0.42349  0.07761  0.23496  1.0000
  C   C46       1.0  0.26200  0.24227  0.32074  1.0000
  H   H74       1.0  0.07607  0.21368  0.31125  1.0000
  H   H75       1.0  0.05215  0.24092  0.36239  1.0000
  C   C47       1.0  0.16790  0.11898  0.11252  1.0000
  H   H76       1.0  0.43487  0.02190  0.29757  1.0000
  C   C48       1.0  0.41348  0.21618  0.28926  1.0000
  H   H77       1.0  0.32665  0.23053  0.29505  1.0000
  H   H78       1.0  0.49306  0.11797  0.43382  1.0000
  H   H79       1.0  0.45486  0.10359  0.42860  1.0000
  H   H80       1.0  0.05783  0.19063  0.37150  1.0000
  H   H81       1.0  0.02079  0.17653  0.42914  1.0000
  H   H82       1.0  0.36957  0.03101  0.01485  1.0000
  H   H83       1.0  0.17947  0.13106  0.08044  1.0000
  H   H84       1.0  0.16965  0.24112  0.12449  1.0000
  C   C49       1.0  0.26639  0.23142  0.24859  1.0000
  N   N2        1.0  0.43729  0.07912  0.25584  1.0000
  H   H85       1.0  0.24733  0.11415  0.10935  1.0000
  C   C50       1.0  0.47329  0.09373  0.23517  1.0000
  H   H86       1.0  0.22125  0.15764  0.02171  1.0000
  C   C51       1.0  0.39188  0.23747  0.35280  1.0000
  H   H87       1.0  0.24147  0.19632  0.10579  1.0000
  H   H88       1.0  0.48135  0.11366  0.38457  1.0000
  C   C52       1.0  0.39175  0.00505  0.19671  1.0000
  H   H89       1.0  0.20131  0.21888  0.08217  1.0000
  Fe  Fe10      1.0  0.32906  0.99950  0.12447  1.0000
  C   C53       1.0  0.36222  0.22052  0.30009  1.0000
  C   C54       1.0  0.44534  0.13099  0.29369  1.0000
  H   H90       1.0  0.43914  0.20527  0.26462  1.0000
  N   N3        1.0  0.17716  0.07915  0.20087  1.0000
  C   C55       1.0  0.16386  0.09825  0.19052  1.0000
  C   C56       1.0  0.20037  0.08659  0.20722  1.0000
  C   C57       1.0  0.18016  0.06144  0.18315  1.0000
  C   C58       1.0  0.16491  0.06897  0.22092  1.0000
  C   C59       1.0  0.15791  0.08497  0.24015  1.0000
  C   C60       1.0  0.13951  0.09311  0.18355  1.0000
  C   C61       1.0  0.19636  0.04157  0.18890  1.0000
  C   C62       1.0  0.20266  0.11089  0.21521  1.0000
  C   C63       1.0  0.14287  0.07338  0.25777  1.0000
  C   C64       1.0  0.12748  0.11395  0.17436  1.0000
  C   C65       1.0  0.19832  0.02520  0.16946  1.0000
  H   H91       1.0  0.17315  0.10478  0.17538  1.0000
  H   H92       1.0  0.16228  0.11255  0.20203  1.0000
  H   H93       1.0  0.20750  0.07521  0.22030  1.0000
  H   H94       1.0  0.21238  0.08533  0.19254  1.0000
  H   H95       1.0  0.18651  0.06903  0.16705  1.0000
  H   H96       1.0  0.16372  0.05402  0.17933  1.0000
  H   H97       1.0  0.14958  0.06036  0.21552  1.0000
  H   H98       1.0  0.17550  0.05567  0.22878  1.0000
  H   H99       1.0  0.14830  0.09969  0.23392  1.0000
  H   H100      1.0  0.17306  0.09047  0.24886  1.0000
  H   H101      1.0  0.13956  0.08046  0.17016  1.0000
  H   H102      1.0  0.12929  0.08706  0.19819  1.0000
  H   H103      1.0  0.19011  0.03224  0.20395  1.0000
  H   H104      1.0  0.21364  0.04722  0.19212  1.0000
  H   H105      1.0  0.20095  0.12249  0.20061  1.0000
  H   H106      1.0  0.18970  0.11572  0.22803  1.0000
  H   H107      1.0  0.22746  0.13211  0.22968  1.0000
  H   H108      1.0  0.15161  0.05843  0.26489  1.0000
  H   H109      1.0  0.13870  0.08501  0.27170  1.0000
  H   H110      1.0  0.12683  0.06839  0.25025  1.0000
  H   H111      1.0  0.12650  0.12720  0.18722  1.0000
  H   H112      1.0  0.13641  0.12037  0.15906  1.0000
  H   H113      1.0  0.11000  0.10990  0.16988  1.0000
  C   C66       1.0  0.48885  0.16371  0.49045  1.0000
  H   H114      1.0  0.36702  0.07538  0.21962  1.0000
  H   H115      1.0  0.20512  0.03355  0.15401  1.0000
  C   C67       1.0  0.39349  0.21630  0.27282  1.0000
  H   H116      1.0  0.23514  0.19383  0.07653  1.0000
  C   C68       1.0  0.00137  0.19550  0.40529  1.0000
  Fe  Fe11      1.0  0.00322  0.07785  0.29699  1.0000
  C   C69       1.0  0.38558  0.07419  0.21674  1.0000
  H   H117      1.0  0.45367  0.12970  0.41314  1.0000
  H   H118      1.0  0.41574  0.10424  0.27149  1.0000
  H   H119      1.0  0.45560  0.13380  0.30873  1.0000
  H   H120      1.0  0.10979  0.21378  0.28238  1.0000
  H   H121      1.0  0.10180  0.23020  0.02799  1.0000
  H   H122      1.0  0.19183  0.16539  0.01988  1.0000
  H   H123      1.0  0.31445  0.22808  0.33503  1.0000
  H   H124      1.0  0.42793  0.06205  0.22566  1.0000
  C   C70       1.0  0.48627  0.09729  0.33371  1.0000
  H   H125      1.0  0.44424  0.10458  0.40045  1.0000
  H   H126      1.0  0.04115  0.21516  0.28997  1.0000
  H   H127      1.0  0.39157  0.06639  0.25128  1.0000
  C   C71       1.0  0.33072  0.21357  0.23386  1.0000
  H   H128      1.0  0.29009  0.13873  0.09462  1.0000
  H   H129      1.0  0.00950  0.21245  0.26353  1.0000
  H   H130      1.0  0.19973  0.13762  0.02895  1.0000
  N   N4        1.0  0.05610  0.18517  0.32152  1.0000
  C   C72       1.0  0.03864  0.18096  0.30418  1.0000
  C   C73       1.0  0.06138  0.16365  0.33393  1.0000
  C   C74       1.0  0.04553  0.20114  0.33841  1.0000
  C   C75       1.0  0.07736  0.19516  0.31146  1.0000
  C   C76       1.0  0.08411  0.18853  0.28692  1.0000
  C   C77       1.0  0.37670  0.00587  0.17859  1.0000
  H   H131      1.0  0.20742  0.18134  0.05362  1.0000
  C   C78       1.0  0.07216  0.14453  0.31992  1.0000
  C   C79       1.0  0.07528  0.12351  0.33443  1.0000
  S   S19       1.0  0.99866  0.22041  0.42142  1.0000
  C   C80       1.0  0.48138  0.07577  0.32605  1.0000
  H   H132      1.0  0.05912  0.22717  0.38853  1.0000
  H   H133      1.0  0.04534  0.16980  0.29081  1.0000
  H   H134      1.0  0.07346  0.16639  0.34752  1.0000
  H   H135      1.0  0.04576  0.15734  0.34239  1.0000
  H   H136      1.0  0.02865  0.19523  0.34421  1.0000
  C   C81       1.0  0.25562  0.12711  0.09884  1.0000
  H   H137      1.0  0.09192  0.19110  0.32236  1.0000
  H   H138      1.0  0.41732  0.03595  0.25127  1.0000
  H   H139      1.0  0.07262  0.19678  0.27479  1.0000
  H   H140      1.0  0.08323  0.17045  0.28421  1.0000
  Fe  Fe12      1.0  0.99985  0.23335  0.45788  1.0000
  H   H141      1.0  0.47208  0.07147  0.26421  1.0000
  C   C82       1.0  0.01518  0.15742  0.39919  1.0000
  H   H142      1.0  0.37357  0.22125  0.31457  1.0000
  H   H143      1.0  0.06159  0.14030  0.30558  1.0000
  H   H144      1.0  0.08919  0.14913  0.31356  1.0000
  H   H145      1.0  0.05893  0.11837  0.34219  1.0000
  H   H146      1.0  0.08202  0.10970  0.32382  1.0000
  H   H147      1.0  0.08733  0.12641  0.34800  1.0000
  H   H148      1.0  0.40007  0.22097  0.25574  1.0000
  H   H149      1.0  0.47411  0.10924  0.24496  1.0000
  H   H150      1.0  0.10950  0.22123  0.12004  1.0000
  C   C83       1.0  0.35933  0.02025  0.00426  1.0000
  H   H151      1.0  0.44251  0.09618  0.30123  1.0000
  S   S20       1.0  0.48641  0.03873  0.29908  1.0000
  H   H152      1.0  0.25144  0.23167  0.33203  1.0000
  C   C84       1.0  0.08358  0.22820  0.03193  1.0000
  H   H153      1.0  0.08643  0.21357  0.13851  1.0000
  S   S21       1.0  0.29852  0.99715  0.14782  1.0000
  H   H154      1.0  0.07951  0.21042  0.02977  1.0000
  H   H155      1.0  0.00341  0.16786  0.46937  1.0000
  C   C85       1.0  0.34591  0.21013  0.25405  1.0000
  H   H156      1.0  0.41480  0.99828  0.13575  1.0000
  H   H157      1.0  0.34245  0.21981  0.34292  1.0000
  C   C86       1.0  0.35736  0.23214  0.26011  1.0000
  C   C87       1.0  0.38479  0.00333  0.15641  1.0000
  N   N5        1.0  0.37332  0.23076  0.27943  1.0000
  C   C88       1.0  0.43241  0.20020  0.28148  1.0000
  H   H158      1.0  0.45338  0.23104  0.45678  1.0000
  C   C89       1.0  0.48063  0.10679  0.40199  1.0000
  C   C90       1.0  0.44799  0.10669  0.28667  1.0000
  C   C91       1.0  0.07803  0.23508  0.05610  1.0000
  H   H159      1.0  0.36636  0.23794  0.24454  1.0000
  H   H160      1.0  0.38841  0.19868  0.27137  1.0000
  H   H161      1.0  0.35946  0.20246  0.29768  1.0000
  H   H162      1.0  0.31756  0.22657  0.23743  1.0000
  H   H163      1.0  0.06012  0.23117  0.05949  1.0000
  C   C92       1.0  0.01308  0.17647  0.41287  1.0000
  H   H164      1.0  0.35865  0.19705  0.24958  1.0000
  H   H165      1.0  0.33522  0.20385  0.26823  1.0000
  H   H166      1.0  0.07353  0.23837  0.01987  1.0000
  C   C93       1.0  0.30009  0.00892  0.01102  1.0000
  H   H167      1.0  0.03412  0.99784  0.28338  1.0000
  H   H168      1.0  0.39201  0.09561  0.24432  1.0000
  H   H169      1.0  0.07304  0.22545  0.10102  1.0000
  H   H170      1.0  0.46117  0.99672  0.31749  1.0000
  C   C94       1.0  0.21493  0.21814  0.09465  1.0000
  C   C95       1.0  0.41559  0.23629  0.35264  1.0000
  H   H171      1.0  0.26515  0.23368  0.30449  1.0000
  H   H172      1.0  0.32216  0.19782  0.23022  1.0000
  C   C96       1.0  0.44905  0.22736  0.49304  1.0000
  H   H173      1.0  0.13606  0.23112  0.04969  1.0000
  Fe  Fe13      1.0  0.49381  0.18140  0.40734  1.0000
  S   S22       1.0  0.20894  0.23941  0.21230  1.0000
  S   S23       1.0  0.00891  0.13230  0.36137  1.0000
  H   H174      1.0  0.03177  0.22359  0.37696  1.0000
  C   C97       1.0  0.16227  0.23883  0.10827  1.0000
  H   H175      1.0  0.42083  0.23293  0.29040  1.0000
  H   H176      1.0  0.04257  0.16398  0.48044  1.0000
  S   S24       1.0  0.43326  0.00112  0.21683  1.0000
  H   H177      1.0  0.34076  0.21865  0.21869  1.0000
  H   H178      1.0  0.18166  0.01818  0.16591  1.0000
  C   C98       1.0  0.42252  0.02171  0.28387  1.0000
  C   C99       1.0  0.02834  0.20220  0.29288  1.0000
  S   S25       1.0  0.02565  0.23000  0.48540  1.0000
  H   H179      1.0  0.44116  0.99672  0.16765  1.0000
  H   H180      1.0  0.42188  0.00450  0.27736  1.0000
  C   C100      1.0  0.42327  0.99922  0.17089  1.0000
  Fe  Fe14      1.0  0.47021  0.99609  0.22827  1.0000
  H   H181      1.0  0.34553  0.03064  0.99699  1.0000
  C   C101      1.0  0.49363  0.06603  0.30794  1.0000
  H   H182      1.0  0.00876  0.10650  0.42778  1.0000
  H   H183      1.0  0.00528  0.18397  0.27226  1.0000
  C   C102      1.0  0.09437  0.22773  0.12936  1.0000
  H   H184      1.0  0.06228  0.24321  0.12299  1.0000
  H   H185      1.0  0.02075  0.04776  0.24255  1.0000
  H   H186      1.0  0.48337  0.08850  0.40110  1.0000
  H   H187      1.0  0.49139  0.07743  0.43759  1.0000
  C   C103      1.0  0.07768  0.23835  0.11303  1.0000
  S   S26       1.0  0.49404  0.02461  0.23219  1.0000
  H   H188      1.0  0.99573  0.14261  0.44254  1.0000
  C   C104      1.0  0.99655  0.12836  0.45439  1.0000
  C   C105      1.0  0.23323  0.24416  0.22836  1.0000
  C   C106      1.0  0.01795  0.99510  0.29164  1.0000
  H   H189      1.0  0.99631  0.09216  0.45174  1.0000
  H   H190      1.0  0.44016  0.24371  0.49430  1.0000
  H   H191      1.0  0.16527  0.24396  0.25437  1.0000
  C   C107      1.0  0.44320  0.17545  0.54717  1.0000
  H   H192      1.0  0.41254  0.19553  0.54481  1.0000
  H   H193      1.0  0.44201  0.16837  0.53014  1.0000
  H   H194      1.0  0.01607  0.13641  0.49888  1.0000
  N   N6        1.0  0.41795  0.04221  0.74767  1.0000
  Fe  Fe15      1.0  0.02497  0.12150  0.70249  1.0000
  S   S27       1.0  0.03730  0.10232  0.67236  1.0000
  S   S28       1.0  0.04370  0.13588  0.73218  1.0000
  H   H195      1.0  0.01202  0.18323  0.76081  1.0000
  S   S29       1.0  0.02532  0.13937  0.61899  1.0000
  C   C108      1.0  0.34376  0.23413  0.67590  1.0000
  H   H196      1.0  0.00121  0.18552  0.71191  1.0000
  H   H197      1.0  0.04894  0.15783  0.50942  1.0000
  C   C109      1.0  0.38830  0.99460  0.82924  1.0000
  Fe  Fe16      1.0  0.47102  0.19785  0.61634  1.0000
  S   S30       1.0  0.43396  0.20967  0.61473  1.0000
  S   S31       1.0  0.48052  0.16677  0.59697  1.0000
  Fe  Fe17      1.0  0.28131  0.01064  0.85938  1.0000
  S   S32       1.0  0.25232  0.02977  0.84234  1.0000
  S   S33       1.0  0.31095  0.02269  0.87811  1.0000
  Fe  Fe18      1.0  0.16648  0.16723  0.78110  1.0000
  S   S34       1.0  0.20475  0.16724  0.77794  1.0000
  S   S35       1.0  0.14769  0.15446  0.75056  1.0000
  Fe  Fe19      1.0  0.16643  0.19017  0.82710  1.0000
  S   S36       1.0  0.20404  0.19171  0.82677  1.0000
  S   S37       1.0  0.14271  0.20129  0.85611  1.0000
  Fe  Fe20      1.0  0.20198  0.20239  0.79040  1.0000
  C   C110      1.0  0.02545  0.99534  0.68547  1.0000
  Fe  Fe21      1.0  0.20423  0.15633  0.81443  1.0000
  S   S38       1.0  0.23092  0.13435  0.83179  1.0000
  S   S39       1.0  0.16391  0.20313  0.79145  1.0000
  S   S40       1.0  0.16637  0.15397  0.81688  1.0000
  C   C111      1.0  0.36185  0.03112  0.78228  1.0000
  H   H198      1.0  0.40559  0.02376  0.77689  1.0000
  C   C112      1.0  0.24460  0.22479  0.73928  1.0000
  H   H199      1.0  0.42332  0.08142  0.67773  1.0000
  H   H200      1.0  0.23926  0.20777  0.74138  1.0000
  C   C113      1.0  0.43301  0.15838  0.56359  1.0000
  H   H201      1.0  0.43697  0.04285  0.79218  1.0000
  C   C114      1.0  0.24691  0.05893  0.83925  1.0000
  C   C115      1.0  0.22721  0.06636  0.82845  1.0000
  C   C116      1.0  0.22211  0.08932  0.82572  1.0000
  C   C117      1.0  0.23673  0.10516  0.83375  1.0000
  C   C118      1.0  0.25644  0.09771  0.84449  1.0000
  C   C119      1.0  0.26151  0.07478  0.84726  1.0000
  H   H202      1.0  0.21583  0.05427  0.82211  1.0000
  H   H203      1.0  0.20689  0.09475  0.81744  1.0000
  H   H204      1.0  0.26786  0.10978  0.85082  1.0000
  H   H205      1.0  0.27672  0.06937  0.85558  1.0000
  H   H206      1.0  0.38698  0.99562  0.91866  1.0000
  C   C120      1.0  0.32022  0.20761  0.71012  1.0000
  H   H207      1.0  0.02449  0.16805  0.80858  1.0000
  H   H208      1.0  0.31574  0.22425  0.71678  1.0000
  H   H209      1.0  0.11154  0.24206  0.69411  1.0000
  H   H210      1.0  0.14714  0.20427  0.69692  1.0000
  C   C121      1.0  0.46938  0.05624  0.78480  1.0000
  C   C122      1.0  0.14617  0.22063  0.87822  1.0000
  C   C123      1.0  0.12910  0.22281  0.89501  1.0000
  H   H211      1.0  0.20937  0.01228  0.85881  1.0000
  H   H212      1.0  0.11411  0.21299  0.89403  1.0000
  Fe  Fe22      1.0  0.01216  0.12257  0.65197  1.0000
  C   C124      1.0  0.07272  0.14109  0.73676  1.0000
  C   C125      1.0  0.07941  0.14622  0.75861  1.0000
  C   C126      1.0  0.10215  0.15056  0.76315  1.0000
  C   C127      1.0  0.11859  0.14974  0.74586  1.0000
  C   C128      1.0  0.11190  0.14459  0.72400  1.0000
  C   C129      1.0  0.08913  0.14043  0.71943  1.0000
  H   H213      1.0  0.06693  0.14681  0.77217  1.0000
  H   H214      1.0  0.10696  0.15445  0.78005  1.0000
  H   H215      1.0  0.12442  0.14396  0.71046  1.0000
  H   H216      1.0  0.08426  0.13699  0.70246  1.0000
  S   S41       1.0  0.00172  0.14306  0.68193  1.0000
  H   H217      1.0  0.23817  0.19847  0.89791  1.0000
  H   H218      1.0  0.39059  0.01461  0.94071  1.0000
  H   H219      1.0  0.39562  0.99943  0.74233  1.0000
  C   C130      1.0  0.02063  0.18146  0.56419  1.0000
  C   C131      1.0  0.02871  0.16803  0.58215  1.0000
  C   C132      1.0  0.01385  0.15666  0.59700  1.0000
  H   H220      1.0  0.03237  0.19008  0.55311  1.0000
  H   H221      1.0  0.04667  0.16646  0.58462  1.0000
  Fe  Fe23      1.0  0.00921  0.07825  0.68023  1.0000
  C   C133      1.0  0.13118  0.23759  0.91308  1.0000
  S   S42       1.0  0.30074  0.01037  0.94196  1.0000
  H   H222      1.0  0.19452  0.15970  0.72590  1.0000
  H   H223      1.0  0.19206  0.19770  0.74072  1.0000
  H   H224      1.0  0.34799  0.18802  0.69678  1.0000
  H   H225      1.0  0.41537  0.15493  0.55918  1.0000
  H   H226      1.0  0.47566  0.20997  0.53385  1.0000
  H   H227      1.0  0.43459  0.07124  0.75990  1.0000
  H   H228      1.0  0.43040  0.20229  0.56717  1.0000
  H   H229      1.0  0.39008  0.19028  0.70822  1.0000
  S   S43       1.0  0.36764  0.00383  0.84982  1.0000
  H   H230      1.0  0.08614  0.01443  0.69644  1.0000
  C   C134      1.0  0.42036  0.23269  0.62846  1.0000
  H   H231      1.0  0.41452  0.99893  0.96697  1.0000
  H   H232      1.0  0.31265  0.21866  0.62938  1.0000
  C   C135      1.0  0.40133  0.03926  0.76722  1.0000
  H   H233      1.0  0.21420  0.08366  0.90786  1.0000
  H   H234      1.0  0.35403  0.20096  0.72235  1.0000
  H   H235      1.0  0.11791  0.23901  0.92583  1.0000
  C   C136      1.0  0.19140  0.00858  0.86228  1.0000
  H   H236      1.0  0.43312  0.16450  0.58114  1.0000
  H   H237      1.0  0.44835  0.24090  0.64880  1.0000
  N   N7        1.0  0.19149  0.14797  0.89605  1.0000
  C   C137      1.0  0.19801  0.12471  0.88870  1.0000
  C   C138      1.0  0.16940  0.15479  0.88559  1.0000
  C   C139      1.0  0.20927  0.16343  0.88665  1.0000
  C   C140      1.0  0.19005  0.15035  0.92136  1.0000
  C   C141      1.0  0.18294  0.12957  0.93548  1.0000
  C   C142      1.0  0.22222  0.11671  0.89465  1.0000
  C   C143      1.0  0.20423  0.18867  0.88965  1.0000
  C   C144      1.0  0.14877  0.14035  0.89169  1.0000
  C   C145      1.0  0.12807  0.14811  0.87870  1.0000
  C   C146      1.0  0.17806  0.13561  0.96004  1.0000
  C   C147      1.0  0.22464  0.09133  0.89418  1.0000
  H   H238      1.0  0.12289  0.16530  0.88357  1.0000
  H   H239      1.0  0.19676  0.12341  0.87006  1.0000
  H   H240      1.0  0.18604  0.11234  0.89563  1.0000
  H   H241      1.0  0.16425  0.17199  0.89055  1.0000
  H   H242      1.0  0.17149  0.15531  0.86690  1.0000
  H   H243      1.0  0.21209  0.16066  0.86828  1.0000
  H   H244      1.0  0.22581  0.15973  0.89443  1.0000
  H   H245      1.0  0.20662  0.15518  0.92798  1.0000
  H   H246      1.0  0.17831  0.16441  0.92594  1.0000
  H   H247      1.0  0.19668  0.11675  0.93529  1.0000
  H   H248      1.0  0.16779  0.12173  0.92901  1.0000
  H   H249      1.0  0.23453  0.12367  0.88217  1.0000
  H   H250      1.0  0.22701  0.12239  0.91149  1.0000
  H   H251      1.0  0.19768  0.19244  0.90685  1.0000
  H   H252      1.0  0.19147  0.19430  0.87740  1.0000
  H   H253      1.0  0.15196  0.12261  0.88761  1.0000
  H   H254      1.0  0.14422  0.14199  0.90979  1.0000
  H   H255      1.0  0.01509  0.15515  0.77046  1.0000
  H   H256      1.0  0.11379  0.13698  0.88267  1.0000
  S   S44       1.0  0.22085  0.23386  0.77941  1.0000
  H   H257      1.0  0.17360  0.12039  0.96987  1.0000
  H   H258      1.0  0.23257  0.19903  0.86811  1.0000
  H   H259      1.0  0.16367  0.14772  0.96133  1.0000
  H   H260      1.0  0.24254  0.08625  0.89658  1.0000
  C   C148      1.0  0.01368  0.15451  0.50171  1.0000
  H   H261      1.0  0.21936  0.08493  0.87774  1.0000
  C   C149      1.0  0.02524  0.17957  0.79381  1.0000
  H   H262      1.0  0.13445  0.07184  0.76551  1.0000
  C   C150      1.0  0.49545  0.16829  0.51259  1.0000
  H   H263      1.0  0.37878  0.04697  0.91699  1.0000
  H   H264      1.0  0.31430  0.17320  0.72057  1.0000
  C   C151      1.0  0.01070  0.01371  0.68183  1.0000
  H   H265      1.0  0.18817  0.23690  0.74751  1.0000
  C   C152      1.0  0.29978  0.00038  0.97058  1.0000
  H   H266      1.0  0.29248  0.19290  0.72915  1.0000
  H   H267      1.0  0.34961  0.02655  0.93928  1.0000
  H   H268      1.0  0.02063  0.19672  0.79924  1.0000
  H   H269      1.0  0.46123  0.17722  0.55111  1.0000
  C   C153      1.0  0.36699  0.03579  0.90869  1.0000
  H   H270      1.0  0.44304  0.14256  0.56280  1.0000
  C   C154      1.0  0.43048  0.19821  0.54899  1.0000
  S   S45       1.0  0.02171  0.04134  0.68230  1.0000
  N   N8        1.0  0.08073  0.05728  0.72190  1.0000
  C   C155      1.0  0.06197  0.07273  0.73011  1.0000
  C   C156      1.0  0.08481  0.06124  0.69700  1.0000
  C   C157      1.0  0.07252  0.03373  0.72496  1.0000
  C   C158      1.0  0.10227  0.05972  0.73469  1.0000
  C   C159      1.0  0.10693  0.08315  0.74421  1.0000
  C   C160      1.0  0.05311  0.06787  0.75449  1.0000
  H   H271      1.0  0.37318  0.19915  0.66903  1.0000
  C   C161      1.0  0.09359  0.08439  0.68981  1.0000
  C   C162      1.0  0.09650  0.08629  0.66422  1.0000
  H   H272      1.0  0.16367  0.23726  0.68020  1.0000
  C   C163      1.0  0.37420  0.01003  0.98554  1.0000
  C   C164      1.0  0.37586  0.03903  0.76187  1.0000
  H   H273      1.0  0.04721  0.07184  0.71892  1.0000
  H   H274      1.0  0.06692  0.09040  0.72881  1.0000
  H   H275      1.0  0.09761  0.04919  0.69017  1.0000
  H   H276      1.0  0.06902  0.05834  0.68776  1.0000
  H   H277      1.0  0.05563  0.03209  0.71738  1.0000
  H   H278      1.0  0.06998  0.02965  0.74314  1.0000
  H   H279      1.0  0.10269  0.04810  0.74945  1.0000
  H   H280      1.0  0.11709  0.05459  0.72394  1.0000
  H   H281      1.0  0.09548  0.08681  0.75879  1.0000
  H   H282      1.0  0.10433  0.09663  0.73169  1.0000
  H   H283      1.0  0.04036  0.05460  0.75415  1.0000
  H   H284      1.0  0.06681  0.06196  0.76556  1.0000
  H   H285      1.0  0.03474  0.18363  0.50233  1.0000
  H   H286      1.0  0.36615  0.01347  0.78643  1.0000
  H   H287      1.0  0.08176  0.09783  0.69538  1.0000
  H   H288      1.0  0.11043  0.08704  0.69681  1.0000
  C   C165      1.0  0.41165  0.07771  0.69215  1.0000
  H   H289      1.0  0.08048  0.08288  0.65581  1.0000
  H   H290      1.0  0.10165  0.10343  0.65947  1.0000
  H   H291      1.0  0.46742  0.22947  0.49511  1.0000
  H   H292      1.0  0.43321  0.00952  0.75158  1.0000
  H   H293      1.0  0.19313  0.14292  0.96752  1.0000
  H   H294      1.0  0.46404  0.07343  0.78947  1.0000
  H   H295      1.0  0.14333  0.08240  0.73802  1.0000
  H   H296      1.0  0.45505  0.02563  0.77472  1.0000
  H   H297      1.0  0.19329  0.17017  0.69744  1.0000
  C   C166      1.0  0.00951  0.17202  0.77561  1.0000
  H   H298      1.0  0.33213  0.20272  0.66157  1.0000
  H   H299      1.0  0.18163  0.04341  0.85864  1.0000
  H   H300      1.0  0.38673  0.22520  0.66967  1.0000
  Fe  Fe24      1.0  0.33121  0.99499  0.86101  1.0000
  C   C167      1.0  0.19871  0.17403  0.71466  1.0000
  H   H301      1.0  0.19125  0.21092  0.69037  1.0000
  C   C168      1.0  0.99748  0.18345  0.56048  1.0000
  H   H302      1.0  0.30270  0.23319  0.65414  1.0000
  H   H303      1.0  0.10974  0.07436  0.65803  1.0000
  H   H304      1.0  0.21726  0.17614  0.71454  1.0000
  H   H305      1.0  0.40266  0.05312  0.77936  1.0000
  C   C169      1.0  0.42374  0.06270  0.70917  1.0000
  H   H306      1.0  0.39256  0.05030  0.72296  1.0000
  H   H307      1.0  0.42781  0.18116  0.69130  1.0000
  H   H308      1.0  0.45236  0.05336  0.74318  1.0000
  H   H309      1.0  0.04299  0.99828  0.68848  1.0000
  H   H310      1.0  0.47723  0.04798  0.79959  1.0000
  H   H311      1.0  0.42270  0.20574  0.50597  1.0000
  H   H312      1.0  0.31881  0.19207  0.74349  1.0000
  H   H313      1.0  0.26218  0.21895  0.70755  1.0000
  C   C170      1.0  0.41423  0.18817  0.68063  1.0000
  H   H314      1.0  0.16826  0.19180  0.72413  1.0000
  H   H315      1.0  0.13164  0.14779  0.86027  1.0000
  C   C171      1.0  0.34607  0.20410  0.70580  1.0000
  C   C172      1.0  0.43857  0.05340  0.75625  1.0000
  C   C173      1.0  0.16536  0.23361  0.87967  1.0000
  H   H316      1.0  0.18842  0.00918  0.88080  1.0000
  C   C174      1.0  0.33707  0.21959  0.65582  1.0000
  H   H317      1.0  0.35161  0.21772  0.64378  1.0000
  S   S46       1.0  0.99804  0.09672  0.71162  1.0000
  C   C175      1.0  0.22528  0.20242  0.88516  1.0000
  C   C176      1.0  0.31760  0.23007  0.64282  1.0000
  H   H318      1.0  0.37562  0.02803  0.89386  1.0000
  H   H319      1.0  0.31101  0.20591  0.69426  1.0000
  C   C177      1.0  0.31100  0.19032  0.72685  1.0000
  C   C178      1.0  0.42647  0.99813  0.81234  1.0000
  H   H320      1.0  0.38817  0.00078  0.99382  1.0000
  C   C179      1.0  0.35853  0.01790  0.92518  1.0000
  C   C180      1.0  0.46361  0.22165  0.54242  1.0000
  H   H321      1.0  0.22072  0.22042  0.88611  1.0000
  C   C181      1.0  0.39788  0.23837  0.62335  1.0000
  C   C182      1.0  0.04194  0.08836  0.76522  1.0000
  H   H322      1.0  0.41280  0.01803  0.83971  1.0000
  H   H323      1.0  0.16191  0.22490  0.74327  1.0000
  C   C183      1.0  0.18652  0.19501  0.72329  1.0000
  C   C184      1.0  0.40804  0.05730  0.72978  1.0000
  H   H324      1.0  0.35245  0.04597  0.90264  1.0000
  H   H325      1.0  0.21793  0.00082  0.82196  1.0000
  H   H326      1.0  0.34221  0.23940  0.73691  1.0000
  H   H327      1.0  0.40730  0.23250  0.57140  1.0000
  C   C185      1.0  0.29927  0.01588  0.98818  1.0000
  H   H328      1.0  0.21054  0.21804  0.71115  1.0000
  H   H329      1.0  0.43525  0.24292  0.57308  1.0000
  H   H330      1.0  0.42210  0.19900  0.66744  1.0000
  C   C186      1.0  0.15860  0.23863  0.69825  1.0000
  H   H331      1.0  0.37903  0.23161  0.72083  1.0000
  H   H332      1.0  0.13500  0.21967  0.72037  1.0000
  C   C187      1.0  0.13107  0.08463  0.75229  1.0000
  H   H333      1.0  0.34629  0.00795  0.91608  1.0000
  C   C188      1.0  0.14049  0.22077  0.70245  1.0000
  H   H334      1.0  0.36988  0.05615  0.75740  1.0000
  H   H335      1.0  0.10701  0.21264  0.69183  1.0000
  H   H336      1.0  0.39670  0.06932  0.68564  1.0000
  C   C189      1.0  0.44914  0.04298  0.77772  1.0000
  H   H337      1.0  0.99840  0.12515  0.78260  1.0000
  C   C190      1.0  0.40688  0.00558  0.72849  1.0000
  H   H338      1.0  0.13359  0.10134  0.75950  1.0000
  H   H339      1.0  0.40623  0.09370  0.69997  1.0000
  H   H340      1.0  0.48221  0.05705  0.77090  1.0000
  H   H341      1.0  0.40254  0.07344  0.73742  1.0000
  H   H342      1.0  0.03448  0.08384  0.78193  1.0000
  C   C191      1.0  0.19232  0.21562  0.70836  1.0000
  H   H343      1.0  0.12379  0.22673  0.67056  1.0000
  C   C192      1.0  0.25768  0.23117  0.72016  1.0000
  C   C193      1.0  0.42543  0.01998  0.73829  1.0000
  H   H344      1.0  0.02840  0.09509  0.75438  1.0000
  H   H345      1.0  0.38104  0.02392  0.97519  1.0000
  H   H346      1.0  0.40587  0.17419  0.67241  1.0000
  H   H347      1.0  0.38933  0.22887  0.61098  1.0000
  H   H348      1.0  0.21898  0.24163  0.68263  1.0000
  H   H349      1.0  0.00857  0.15677  0.51964  1.0000
  H   H350      1.0  0.48886  0.15861  0.52664  1.0000
  Fe  Fe25      1.0  0.30186  0.99750  0.90537  1.0000
  H   H351      1.0  0.39684  0.01494  0.71593  1.0000
  H   H352      1.0  0.29845  0.03348  0.98412  1.0000
  C   C194      1.0  0.23831  0.24050  0.75554  1.0000
  H   H353      1.0  0.44274  0.00586  0.81216  1.0000
  H   H354      1.0  0.43893  0.07161  0.71425  1.0000
  C   C195      1.0  0.08807  0.01503  0.71497  1.0000
  H   H355      1.0  0.05456  0.10143  0.76759  1.0000
  C   C196      1.0  0.37853  0.21235  0.68055  1.0000
  H   H356      1.0  0.37221  0.02813  0.74767  1.0000
  H   H357      1.0  0.43912  0.02206  0.72538  1.0000
  H   H358      1.0  0.34362  0.03231  0.77854  1.0000
  H   H359      1.0  0.18035  0.02787  0.83310  1.0000
  C   C197      1.0  0.36698  0.23940  0.70895  1.0000
  H   H360      1.0  0.42920  0.04730  0.70030  1.0000
  C   C198      1.0  0.37834  0.00307  0.93375  1.0000
  S   S47       1.0  0.49202  0.18793  0.64615  1.0000
  H   H361      1.0  0.17852  0.23242  0.86677  1.0000
  H   H362      1.0  0.36491  0.04146  0.79720  1.0000
  H   H363      1.0  0.45094  0.19534  0.50808  1.0000
  N   N9        1.0  0.43996  0.21726  0.53507  1.0000
  C   C199      1.0  0.39728  0.20158  0.69511  1.0000
  H   H364      1.0  0.46543  0.21772  0.56067  1.0000
  H   H365      1.0  0.32815  0.24132  0.68378  1.0000
  H   H366      1.0  0.40697  0.21464  0.70336  1.0000
  H   H367      1.0  0.40737  0.23351  0.53121  1.0000
  N   N10       1.0  0.35831  0.22238  0.69307  1.0000
  H   H368      1.0  0.10604  0.01783  0.71851  1.0000
  C   C200      1.0  0.17708  0.02713  0.85158  1.0000
  H   H369      1.0  0.15887  0.02440  0.85509  1.0000
  H   H370      1.0  0.34458  0.00243  0.96698  1.0000
  C   C201      1.0  0.40946  0.00489  0.82810  1.0000
  C   C202      1.0  0.42409  0.23701  0.53835  1.0000
  C   C203      1.0  0.03636  0.16571  0.49813  1.0000
  H   H371      1.0  0.04287  0.17955  0.78702  1.0000
  C   C204      1.0  0.44002  0.21039  0.51071  1.0000
  C   C205      1.0  0.17272  0.23875  0.73746  1.0000
  N   N11       1.0  0.17905  0.23701  0.71277  1.0000
  C   C206      1.0  0.11947  0.22597  0.68885  1.0000
  C   C207      1.0  0.41964  0.24389  0.56322  1.0000
  Fe  Fe26      1.0  0.99596  0.22510  0.50977  1.0000
  H   H372      1.0  0.39009  0.44874  0.29325  1.0000
  C   C208      1.0  0.15200  0.25406  0.07126  1.0000
  H   H373      1.0  0.37272  0.41848  0.30393  1.0000
  H   H374      1.0  0.26782  0.33427  0.47281  1.0000
  S   S48       1.0  0.35469  0.48368  0.19536  1.0000
  C   C209      1.0  0.29602  0.45729  0.18539  1.0000
  Fe  Fe27      1.0  0.29255  0.31889  0.33025  1.0000
  S   S49       1.0  0.31163  0.28625  0.32598  1.0000
  S   S50       1.0  0.26210  0.32108  0.35476  1.0000
  Fe  Fe28      1.0  0.31581  0.33974  0.28816  1.0000
  S   S51       1.0  0.33613  0.30845  0.28080  1.0000
  S   S52       1.0  0.31237  0.37126  0.26617  1.0000
  Fe  Fe29      1.0  0.30432  0.28987  0.28907  1.0000
  S   S53       1.0  0.29534  0.25816  0.27081  1.0000
  Fe  Fe30      1.0  0.34207  0.30688  0.31817  1.0000
  S   S54       1.0  0.37838  0.30075  0.32954  1.0000
  S   S55       1.0  0.28352  0.32105  0.29370  1.0000
  S   S56       1.0  0.32352  0.33965  0.32513  1.0000
  H   H375      1.0  0.99847  0.27996  0.05988  1.0000
  C   C210      1.0  0.25498  0.43454  0.44124  1.0000
  S   S57       1.0  0.11453  0.26544  0.99584  1.0000
  Fe  Fe31      1.0  0.08987  0.29497  0.99467  1.0000
  H   H376      1.0  0.27839  0.46387  0.18515  1.0000
  H   H377      1.0  0.18065  0.26725  0.24317  1.0000
  Fe  Fe32      1.0  0.38581  0.46247  0.19822  1.0000
  S   S58       1.0  0.38870  0.42934  0.21739  1.0000
  S   S59       1.0  0.39623  0.46763  0.16174  1.0000
  Fe  Fe33      1.0  0.13456  0.28617  0.01901  1.0000
  S   S60       1.0  0.10944  0.31496  0.01915  1.0000
  S   S61       1.0  0.15239  0.27696  0.05189  1.0000
  C   C211      1.0  0.23803  0.26610  0.23438  1.0000
  H   H378      1.0  0.34891  0.41255  0.09871  1.0000
  H   H379      1.0  0.28741  0.36498  0.16601  1.0000
  H   H380      1.0  0.29311  0.36615  0.46013  1.0000
  H   H381      1.0  0.30737  0.47158  0.18697  1.0000
  H   H382      1.0  0.19587  0.29074  0.38189  1.0000
  C   C212      1.0  0.41590  0.27496  0.33968  1.0000
  H   H383      1.0  0.21626  0.27069  0.35188  1.0000
  C   C213      1.0  0.35442  0.47735  0.30219  1.0000
  C   C214      1.0  0.22886  0.43481  0.43966  1.0000
  C   C215      1.0  0.30155  0.44499  0.16357  1.0000
  H   H384      1.0  0.09692  0.33498  0.06823  1.0000
  Fe  Fe34      1.0  0.21338  0.37511  0.46951  1.0000
  S   S62       1.0  0.24498  0.37371  0.44661  1.0000
  S   S63       1.0  0.17925  0.38993  0.46172  1.0000
  H   H385      1.0  0.18142  0.35823  0.00473  1.0000
  C   C216      1.0  0.03405  0.27653  0.06718  1.0000
  C   C217      1.0  0.19606  0.28268  0.32373  1.0000
  H   H386      1.0  0.31344  0.45540  0.26027  1.0000
  H   H387      1.0  0.28882  0.43201  0.16146  1.0000
  H   H388      1.0  0.24712  0.42652  0.39447  1.0000
  H   H389      1.0  0.24544  0.40723  0.35802  1.0000
  H   H390      1.0  0.39858  0.39197  0.17944  1.0000
  H   H391      1.0  0.32378  0.39664  0.10398  1.0000
  C   C218      1.0  0.25786  0.33589  0.38028  1.0000
  C   C219      1.0  0.27433  0.34946  0.38894  1.0000
  C   C220      1.0  0.27005  0.36093  0.40922  1.0000
  C   C221      1.0  0.24936  0.35891  0.42113  1.0000
  C   C222      1.0  0.23286  0.34545  0.41244  1.0000
  C   C223      1.0  0.23712  0.33404  0.39213  1.0000
  H   H392      1.0  0.29032  0.35112  0.37998  1.0000
  H   H393      1.0  0.28285  0.37146  0.41566  1.0000
  H   H394      1.0  0.21684  0.34377  0.42135  1.0000
  H   H395      1.0  0.22424  0.32366  0.38558  1.0000
  C   C224      1.0  0.39217  0.27597  0.33940  1.0000
  H   H396      1.0  0.39005  0.48533  0.25676  1.0000
  H   H397      1.0  0.00614  0.25406  0.07360  1.0000
  H   H398      1.0  0.44580  0.25468  0.34612  1.0000
  H   H399      1.0  0.42534  0.28945  0.33454  1.0000
  C   C225      1.0  0.33384  0.38661  0.25201  1.0000
  C   C226      1.0  0.35672  0.38119  0.25417  1.0000
  C   C227      1.0  0.37322  0.39433  0.24326  1.0000
  C   C228      1.0  0.36709  0.41309  0.23018  1.0000
  C   C229      1.0  0.34419  0.41847  0.22791  1.0000
  C   C230      1.0  0.32768  0.40526  0.23872  1.0000
  H   H400      1.0  0.36171  0.36693  0.26435  1.0000
  H   H401      1.0  0.39087  0.38999  0.24509  1.0000
  H   H402      1.0  0.33923  0.43296  0.21813  1.0000
  H   H403      1.0  0.31002  0.40964  0.23703  1.0000
  C   C231      1.0  0.11201  0.32550  0.47848  1.0000
  C   C232      1.0  0.23113  0.39785  0.36554  1.0000
  C   C233      1.0  0.32021  0.42440  0.08096  1.0000
  H   H404      1.0  0.35177  0.45923  0.24711  1.0000
  C   C234      1.0  0.00926  0.27223  0.07298  1.0000
  H   H405      1.0  0.30645  0.43178  0.12264  1.0000
  C   C235      1.0  0.25685  0.27071  0.24744  1.0000
  H   H406      1.0  0.39914  0.41690  0.16242  1.0000
  H   H407      1.0  0.33346  0.44403  0.12057  1.0000
  H   H408      1.0  0.26044  0.28768  0.25170  1.0000
  H   H409      1.0  0.36002  0.38457  0.16848  1.0000
  H   H410      1.0  0.36531  0.42802  0.14062  1.0000
  C   C236      1.0  0.39184  0.40008  0.16403  1.0000
  H   H411      1.0  0.11511  0.29841  0.45514  1.0000
  H   H412      1.0  0.36535  0.26482  0.28883  1.0000
  C   C237      1.0  0.08766  0.25921  0.10106  1.0000
  C   C238      1.0  0.40211  0.28872  0.27415  1.0000
  H   H413      1.0  0.29666  0.39075  0.48909  1.0000
  C   C239      1.0  0.15578  0.44736  0.43353  1.0000
  H   H414      1.0  0.34008  0.34644  0.44741  1.0000
  H   H415      1.0  0.36187  0.41159  0.18124  1.0000
  H   H416      1.0  0.26198  0.45072  0.43567  1.0000
  H   H417      1.0  0.24772  0.28850  0.48287  1.0000
  C   C240      1.0  0.32711  0.36005  0.44792  1.0000
  H   H418      1.0  0.32927  0.42826  0.18032  1.0000
  H   H419      1.0  0.23691  0.30543  0.31625  1.0000
  H   H420      1.0  0.17924  0.27149  0.47566  1.0000
  H   H421      1.0  0.41993  0.45633  0.24917  1.0000
  H   H422      1.0  0.03573  0.29480  0.06524  1.0000
  H   H423      1.0  0.29438  0.48234  0.11273  1.0000
  C   C241      1.0  0.31213  0.38972  0.17433  1.0000
  H   H424      1.0  0.20236  0.40258  0.38755  1.0000
  C   C242      1.0  0.30292  0.36620  0.17595  1.0000
  H   H425      1.0  0.29911  0.40112  0.18180  1.0000
  N   N12       1.0  0.21223  0.28271  0.30370  1.0000
  C   C243      1.0  0.22549  0.30386  0.30195  1.0000
  C   C244      1.0  0.31682  0.49055  0.05985  1.0000
  H   H426      1.0  0.32801  0.44275  0.29360  1.0000
  H   H427      1.0  0.20050  0.24587  0.27387  1.0000
  H   H428      1.0  0.21632  0.36163  0.29944  1.0000
  C   C245      1.0  0.21143  0.32592  0.30096  1.0000
  C   C246      1.0  0.08380  0.29641  0.47442  1.0000
  C   C247      1.0  0.02458  0.29381  0.99461  1.0000
  H   H429      1.0  0.24827  0.27300  0.33341  1.0000
  Fe  Fe35      1.0  0.16448  0.36159  0.48254  1.0000
  H   H430      1.0  0.39038  0.25387  0.30028  1.0000
  H   H431      1.0  0.08938  0.27144  0.11481  1.0000
  H   H432      1.0  0.33398  0.37473  0.45633  1.0000
  H   H433      1.0  0.32312  0.36490  0.43034  1.0000
  H   H434      1.0  0.19091  0.41779  0.42379  1.0000
  H   H435      1.0  0.41333  0.28615  0.28868  1.0000
  H   H436      1.0  0.28082  0.43048  0.46624  1.0000
  H   H437      1.0  0.07555  0.26983  0.04533  1.0000
  H   H438      1.0  0.18252  0.29558  0.32151  1.0000
  H   H439      1.0  0.29896  0.33843  0.45044  1.0000
  H   H440      1.0  0.28362  0.48280  0.07252  1.0000
  C   C248      1.0  0.06993  0.30602  0.49122  1.0000
  H   H441      1.0  0.20093  0.32673  0.28581  1.0000
  H   H442      1.0  0.20036  0.32769  0.31618  1.0000
  H   H443      1.0  0.21378  0.38312  0.00988  1.0000
  C   C249      1.0  0.19890  0.38951  0.00162  1.0000
  H   H444      1.0  0.19679  0.46803  0.38606  1.0000
  H   H445      1.0  0.18412  0.46875  0.42985  1.0000
  H   H446      1.0  0.23783  0.38314  0.37493  1.0000
  C   C250      1.0  0.22546  0.46143  0.40849  1.0000
  H   H447      1.0  0.09967  0.33208  0.09845  1.0000
  C   C251      1.0  0.22674  0.34606  0.29989  1.0000
  H   H448      1.0  0.23774  0.34560  0.28449  1.0000
  H   H449      1.0  0.24402  0.46285  0.40614  1.0000
  H   H450      1.0  0.22309  0.46010  0.37186  1.0000
  C   C252      1.0  0.34541  0.49387  0.08887  1.0000
  H   H451      1.0  0.38292  0.27004  0.25134  1.0000
  H   H452      1.0  0.22722  0.27965  0.22867  1.0000
  H   H453      1.0  0.00430  0.27964  0.08943  1.0000
  H   H454      1.0  0.34387  0.24500  0.26333  1.0000
  H   H455      1.0  0.04514  0.24909  0.08773  1.0000
  C   C253      1.0  0.30573  0.35227  0.46026  1.0000
  H   H456      1.0  0.22269  0.41890  0.44721  1.0000
  C   C254      1.0  0.21668  0.41270  0.38113  1.0000
  C   C255      1.0  0.34613  0.43973  0.28912  1.0000
  C   C256      1.0  0.25049  0.26494  0.31691  1.0000
  C   C257      1.0  0.42757  0.25525  0.34624  1.0000
  C   C258      1.0  0.39378  0.26645  0.26593  1.0000
  C   C259      1.0  0.35625  0.42625  0.30906  1.0000
  C   C260      1.0  0.17048  0.28595  0.48370  1.0000
  C   C261      1.0  0.18799  0.28917  0.36526  1.0000
  H   H457      1.0  0.12430  0.33054  0.08004  1.0000
  H   H458      1.0  0.31575  0.35386  0.16973  1.0000
  C   C262      1.0  0.34092  0.40724  0.31651  1.0000
  H   H459      1.0  0.33765  0.44900  0.16110  1.0000
  H   H460      1.0  0.34643  0.42844  0.27444  1.0000
  H   H461      1.0  0.22264  0.44819  0.45111  1.0000
  H   H462      1.0  0.04419  0.27465  0.10198  1.0000
  C   C263      1.0  0.17161  0.26067  0.25837  1.0000
  H   H463      1.0  0.38766  0.29971  0.27934  1.0000
  H   H464      1.0  0.43123  0.48193  0.25892  1.0000
  C   C264      1.0  0.21535  0.46959  0.38604  1.0000
  C   C265      1.0  0.00600  0.28433  0.00620  1.0000
  C   C266      1.0  0.19442  0.43514  0.41816  1.0000
  H   H465      1.0  0.32453  0.41410  0.06604  1.0000
  H   H466      1.0  0.22074  0.39179  0.35172  1.0000
  H   H467      1.0  0.35869  0.43704  0.32375  1.0000
  H   H468      1.0  0.40878  0.25667  0.26005  1.0000
  H   H469      1.0  0.36037  0.40059  0.13114  1.0000
  C   C267      1.0  0.04953  0.26684  0.08575  1.0000
  H   H470      1.0  0.18459  0.29424  0.28300  1.0000
  C   C268      1.0  0.32589  0.43489  0.16328  1.0000
  H   H471      1.0  0.39725  0.39001  0.14925  1.0000
  H   H472      1.0  0.07853  0.28146  0.46633  1.0000
  H   H473      1.0  0.00899  0.27317  0.02024  1.0000
  H   H474      1.0  0.25508  0.44366  0.47666  1.0000
  H   H475      1.0  0.23745  0.34639  0.31494  1.0000
  C   C269      1.0  0.08268  0.26002  0.05961  1.0000
  H   H476      1.0  0.18608  0.44792  0.45186  1.0000
  H   H477      1.0  0.33843  0.39576  0.30235  1.0000
  H   H478      1.0  0.34876  0.39756  0.33042  1.0000
  H   H479      1.0  0.32423  0.41379  0.32256  1.0000
  H   H480      1.0  0.30154  0.42572  0.08277  1.0000
  N   N13       1.0  0.35740  0.46138  0.28283  1.0000
  H   H481      1.0  0.23685  0.30330  0.28672  1.0000
  H   H482      1.0  0.21908  0.24787  0.31144  1.0000
  H   H483      1.0  0.14688  0.45859  0.44570  1.0000
  C   C270      1.0  0.16147  0.25662  0.09251  1.0000
  C   C271      1.0  0.36614  0.40178  0.16609  1.0000
  C   C272      1.0  0.38203  0.45603  0.27810  1.0000
  C   C273      1.0  0.32485  0.42787  0.12309  1.0000
  H   H484      1.0  0.17658  0.27476  0.36607  1.0000
  H   H485      1.0  0.32695  0.39023  0.18516  1.0000
  C   C274      1.0  0.35595  0.41250  0.14475  1.0000
  H   H486      1.0  0.32649  0.38230  0.14112  1.0000
  H   H487      1.0  0.29973  0.45728  0.14955  1.0000
  C   C275      1.0  0.31760  0.39661  0.14945  1.0000
  H   H488      1.0  0.10529  0.25494  0.09538  1.0000
  C   C276      1.0  0.33043  0.41369  0.10197  1.0000
  H   H489      1.0  0.30099  0.39806  0.14116  1.0000
  H   H490      1.0  0.32702  0.44130  0.07794  1.0000
  N   N14       1.0  0.33089  0.41758  0.14558  1.0000
  H   H491      1.0  0.21729  0.30052  0.34733  1.0000
  H   H492      1.0  0.15184  0.42993  0.43839  1.0000
  H   H493      1.0  0.28388  0.31083  0.48259  1.0000
  H   H494      1.0  0.32279  0.35578  0.49169  1.0000
  C   C277      1.0  0.07888  0.29428  0.08124  1.0000
  S   S64       1.0  0.31002  0.49202  0.03066  1.0000
  H   H495      1.0  0.20972  0.42664  0.37097  1.0000
  H   H496      1.0  0.31440  0.47888  0.27861  1.0000
  C   C278      1.0  0.10396  0.30103  0.08007  1.0000
  H   H497      1.0  0.18650  0.43686  0.40154  1.0000
  C   C279      1.0  0.39709  0.47571  0.27103  1.0000
  C   C280      1.0  0.22805  0.26260  0.30438  1.0000
  C   C281      1.0  0.48255  0.48804  0.19179  1.0000
  C   C282      1.0  0.10622  0.32623  0.08184  1.0000
  H   H498      1.0  0.34172  0.24905  0.31234  1.0000
  H   H499      1.0  0.23428  0.40527  0.41096  1.0000
  C   C283      1.0  0.26215  0.43046  0.46547  1.0000
  S   S65       1.0  0.19875  0.34582  0.48779  1.0000
  H   H500      1.0  0.07085  0.30235  0.09630  1.0000
  H   H501      1.0  0.07112  0.30237  0.06627  1.0000
  H   H502      1.0  0.14943  0.45108  0.41645  1.0000
  C   C284      1.0  0.23049  0.42080  0.40117  1.0000
  H   H503      1.0  0.29313  0.48833  0.24478  1.0000
  S   S66       1.0  0.13877  0.33663  0.46992  1.0000
  C   C285      1.0  0.32073  0.47212  0.26232  1.0000
  H   H504      1.0  0.29865  0.36203  0.19381  1.0000
  H   H505      1.0  0.11153  0.29614  0.06371  1.0000
  H   H506      1.0  0.11402  0.29313  0.09359  1.0000
  H   H507      1.0  0.25627  0.41402  0.47165  1.0000
  H   H508      1.0  0.26295  0.42119  0.43084  1.0000
  H   H509      1.0  0.27841  0.24466  0.32874  1.0000
  C   C286      1.0  0.27118  0.25336  0.25459  1.0000
  H   H510      1.0  0.41172  0.29726  0.26042  1.0000
  H   H511      1.0  0.17798  0.30466  0.36188  1.0000
  H   H512      1.0  0.26221  0.27528  0.30656  1.0000
  N   N15       1.0  0.21959  0.43824  0.41637  1.0000
  C   C287      1.0  0.30701  0.48567  0.09976  1.0000
  C   C288      1.0  0.20638  0.28582  0.34706  1.0000
  H   H513      1.0  0.16838  0.27248  0.09678  1.0000
  C   C289      1.0  0.10463  0.30608  0.46814  1.0000
  H   H514      1.0  0.26529  0.36720  0.49138  1.0000
  C   C290      1.0  0.31181  0.48714  0.24347  1.0000
  H   H515      1.0  0.36788  0.47421  0.31463  1.0000
  C   C291      1.0  0.34689  0.47013  0.26149  1.0000
  C   C292      1.0  0.31065  0.34422  0.48463  1.0000
  H   H516      1.0  0.10124  0.26173  0.05740  1.0000
  H   H517      1.0  0.32018  0.32807  0.48326  1.0000
  H   H518      1.0  0.38374  0.44309  0.26486  1.0000
  H   H519      1.0  0.20909  0.28547  0.26751  1.0000
  N   N16       1.0  0.07459  0.26956  0.08181  1.0000
  H   H520      1.0  0.42895  0.45835  0.27791  1.0000
  S   S67       1.0  0.05253  0.28770  0.00430  1.0000
  H   H521      1.0  0.15275  0.28661  0.47812  1.0000
  C   C293      1.0  0.42073  0.46750  0.26386  1.0000
  H   H522      1.0  0.22069  0.47379  0.42168  1.0000
  C   C294      1.0  0.18114  0.45105  0.43428  1.0000
  H   H523      1.0  0.36200  0.25784  0.34664  1.0000
  C   C295      1.0  0.19846  0.28147  0.28270  1.0000
  Fe  Fe36      1.0  0.01910  0.26706  0.49038  1.0000
  H   H524      1.0  0.18701  0.26670  0.32491  1.0000
  H   H525      1.0  0.33834  0.47427  0.31170  1.0000
  C   C296      1.0  0.38034  0.25403  0.28481  1.0000
  H   H526      1.0  0.29777  0.44595  0.20020  1.0000
  H   H527      1.0  0.21538  0.46240  0.48924  1.0000
  H   H528      1.0  0.03807  0.26868  0.05075  1.0000
  S   S68       1.0  0.22222  0.42893  0.99831  1.0000
  H   H529      1.0  0.23353  0.25786  0.28701  1.0000
  C   C297      1.0  0.32934  0.48969  0.10596  1.0000
  H   H530      1.0  0.17749  0.25274  0.29299  1.0000
  H   H531      1.0  0.35359  0.48655  0.25639  1.0000
  H   H532      1.0  0.23353  0.31327  0.47229  1.0000
  C   C298      1.0  0.38021  0.25716  0.34629  1.0000
  S   S69       1.0  0.24115  0.48783  0.02153  1.0000
  H   H533      1.0  0.23929  0.49132  0.07396  1.0000
  H   H534      1.0  0.46842  0.48058  0.20068  1.0000
  H   H535      1.0  0.48311  0.27241  0.31856  1.0000
  Fe  Fe37      1.0  0.27755  0.48907  0.01024  1.0000
  C   C299      1.0  0.18052  0.37528  0.99870  1.0000
  S   S70       1.0  0.40663  0.49048  0.21046  1.0000
  C   C300      1.0  0.20351  0.47629  0.48970  1.0000
  H   H536      1.0  0.15697  0.27185  0.26247  1.0000
  H   H537      1.0  0.31665  0.48012  0.22687  1.0000
  S   S71       1.0  0.33596  0.48936  0.13523  1.0000
  C   C301      1.0  0.49288  0.25646  0.31966  1.0000
  H   H538      1.0  0.39904  0.48689  0.28551  1.0000
  H   H539      1.0  0.17894  0.30138  0.47794  1.0000
  C   C302      1.0  0.30079  0.48602  0.07692  1.0000
  Fe  Fe38      1.0  0.36593  0.49107  0.15941  1.0000
  C   C303      1.0  0.18745  0.25877  0.27820  1.0000
  C   C304      1.0  0.27449  0.32611  0.48830  1.0000
  C   C305      1.0  0.23860  0.30410  0.48778  1.0000
  C   C306      1.0  0.22037  0.49415  0.38162  1.0000
  C   C307      1.0  0.18057  0.47233  0.49375  1.0000
  H   H540      1.0  0.00602  0.35478  0.99518  1.0000
  H   H541      1.0  0.33102  0.31236  0.54976  1.0000
  C   C308      1.0  0.12453  0.35829  0.55760  1.0000
  C   C309      1.0  0.48722  0.48090  0.79692  1.0000
  Fe  Fe39      1.0  0.12913  0.32874  0.98930  1.0000
  C   C310      1.0  0.33125  0.43117  0.67552  1.0000
  C   C311      1.0  0.16106  0.38317  0.98808  1.0000
  C   C312      1.0  0.29707  0.33016  0.52162  1.0000
  Fe  Fe40      1.0  0.13322  0.28260  0.96710  1.0000
  S   S72       1.0  0.10762  0.31093  0.96451  1.0000
  S   S73       1.0  0.15468  0.26870  0.93744  1.0000
  Fe  Fe41      1.0  0.38661  0.46412  0.77604  1.0000
  S   S74       1.0  0.40489  0.46774  0.80853  1.0000
  S   S75       1.0  0.38899  0.43083  0.75754  1.0000
  H   H542      1.0  0.46673  0.25368  0.52308  1.0000
  C   C313      1.0  0.02026  0.30785  0.97613  1.0000
  H   H543      1.0  0.39561  0.43645  0.70313  1.0000
  H   H544      1.0  0.34687  0.27860  0.74788  1.0000
  H   H545      1.0  0.33533  0.25881  0.71457  1.0000
  N   N17       1.0  0.15332  0.30004  0.54565  1.0000
  Fe  Fe42      1.0  0.31743  0.33934  0.69255  1.0000
  S   S76       1.0  0.28539  0.32797  0.67661  1.0000
  S   S77       1.0  0.31425  0.36856  0.71714  1.0000
  Fe  Fe43      1.0  0.34668  0.30413  0.66700  1.0000
  S   S78       1.0  0.31703  0.29133  0.64892  1.0000
  S   S79       1.0  0.38304  0.29017  0.66591  1.0000
  Fe  Fe44      1.0  0.30590  0.32721  0.64418  1.0000
  S   S80       1.0  0.29665  0.34501  0.61106  1.0000
  Fe  Fe45      1.0  0.29867  0.29289  0.68276  1.0000
  S   S81       1.0  0.28076  0.26043  0.69240  1.0000
  S   S82       1.0  0.33729  0.34015  0.65990  1.0000
  S   S83       1.0  0.32893  0.30431  0.70103  1.0000
  Fe  Fe46      1.0  0.20019  0.36607  0.51910  1.0000
  S   S84       1.0  0.20908  0.34530  0.55041  1.0000
  S   S85       1.0  0.16513  0.38067  0.51480  1.0000
  C   C314      1.0  0.24570  0.26249  0.75264  1.0000
  C   C315      1.0  0.41946  0.26268  0.65563  1.0000
  C   C316      1.0  0.27155  0.34531  0.59525  1.0000
  C   C317      1.0  0.25479  0.32949  0.59858  1.0000
  C   C318      1.0  0.23576  0.32982  0.58479  1.0000
  C   C319      1.0  0.23316  0.34599  0.56762  1.0000
  C   C320      1.0  0.24965  0.36207  0.56463  1.0000
  C   C321      1.0  0.26883  0.36158  0.57818  1.0000
  H   H546      1.0  0.25662  0.31690  0.61163  1.0000
  H   H547      1.0  0.22297  0.31749  0.58748  1.0000
  H   H548      1.0  0.24739  0.37507  0.55211  1.0000
  H   H549      1.0  0.28154  0.37406  0.57567  1.0000
  C   C322      1.0  0.25900  0.26881  0.73367  1.0000
  H   H550      1.0  0.41660  0.46087  0.72776  1.0000
  Fe  Fe47      1.0  0.18218  0.40824  0.49448  1.0000
  H   H551      1.0  0.26442  0.28581  0.73167  1.0000
  C   C323      1.0  0.17132  0.28849  0.58355  1.0000
  C   C324      1.0  0.36796  0.41360  0.74667  1.0000
  C   C325      1.0  0.34496  0.41801  0.75038  1.0000
  C   C326      1.0  0.32883  0.40415  0.74107  1.0000
  C   C327      1.0  0.33545  0.38556  0.72812  1.0000
  C   C328      1.0  0.35849  0.38111  0.72447  1.0000
  C   C329      1.0  0.37461  0.39503  0.73375  1.0000
  H   H552      1.0  0.33961  0.43227  0.76017  1.0000
  H   H553      1.0  0.31106  0.40787  0.74380  1.0000
  H   H554      1.0  0.36389  0.36690  0.71457  1.0000
  H   H555      1.0  0.39238  0.39140  0.73080  1.0000
  H   H556      1.0  0.24102  0.27477  0.76514  1.0000
  C   C330      1.0  0.43112  0.24505  0.64461  1.0000
  C   C331      1.0  0.39698  0.26834  0.65060  1.0000
  H   H557      1.0  0.35248  0.43997  0.97327  1.0000
  C   C332      1.0  0.09640  0.26945  0.53629  1.0000
  H   H558      1.0  0.36784  0.28225  0.72574  1.0000
  H   H559      1.0  0.11841  0.35516  0.57515  1.0000
  H   H560      1.0  0.08681  0.27764  0.55030  1.0000
  S   S86       1.0  0.13756  0.36576  0.98283  1.0000
  H   H561      1.0  0.34920  0.48012  0.93774  1.0000
  C   C333      1.0  0.33203  0.46957  0.89326  1.0000
  H   H562      1.0  0.37310  0.26290  0.74870  1.0000
  H   H563      1.0  0.36908  0.26039  0.63001  1.0000
  H   H564      1.0  0.11080  0.29974  0.52410  1.0000
  H   H565      1.0  0.35255  0.24890  0.66869  1.0000
  C   C334      1.0  0.99781  0.31236  0.96953  1.0000
  H   H566      1.0  0.30841  0.38119  0.51482  1.0000
  H   H567      1.0  0.16936  0.25660  0.78020  1.0000
  C   C335      1.0  0.33210  0.48693  0.72510  1.0000
  C   C336      1.0  0.31387  0.47480  0.90828  1.0000
  C   C337      1.0  0.47229  0.24576  0.53892  1.0000
  H   H568      1.0  0.47378  0.46903  0.79745  1.0000
  H   H569      1.0  0.17772  0.43695  0.97782  1.0000
  H   H570      1.0  0.14576  0.30998  0.51135  1.0000
  H   H571      1.0  0.46592  0.25643  0.55289  1.0000
  H   H572      1.0  0.14485  0.26365  0.73557  1.0000
  H   H573      1.0  0.42187  0.27977  0.55794  1.0000
  H   H574      1.0  0.25832  0.30784  0.51676  1.0000
  H   H575      1.0  0.11161  0.36854  0.54877  1.0000
  H   H576      1.0  0.14540  0.41199  0.97252  1.0000
  H   H577      1.0  0.34269  0.45515  0.89662  1.0000
  C   C338      1.0  0.11694  0.28307  0.52930  1.0000
  H   H578      1.0  0.18069  0.41008  0.90457  1.0000
  H   H579      1.0  0.12437  0.28751  0.56448  1.0000
  C   C339      1.0  0.17117  0.28345  0.50927  1.0000
  H   H580      1.0  0.24339  0.33294  0.50831  1.0000
  C   C340      1.0  0.17368  0.29055  0.55755  1.0000
  H   H581      1.0  0.17255  0.31762  0.51994  1.0000
  H   H582      1.0  0.16259  0.33267  0.55658  1.0000
  H   H583      1.0  0.18875  0.30086  0.55370  1.0000
  H   H584      1.0  0.17248  0.30520  0.59118  1.0000
  H   H585      1.0  0.11230  0.32750  0.54620  1.0000
  H   H586      1.0  0.34752  0.48911  0.73492  1.0000
  H   H587      1.0  0.27912  0.36915  0.79188  1.0000
  C   C341      1.0  0.36001  0.26988  0.73743  1.0000
  C   C342      1.0  0.31433  0.34214  0.53599  1.0000
  C   C343      1.0  0.33446  0.40788  0.66573  1.0000
  H   H588      1.0  0.19449  0.25365  0.66958  1.0000
  S   S87       1.0  0.27365  0.46403  0.98264  1.0000
  H   H589      1.0  0.38394  0.48465  0.66275  1.0000
  C   C344      1.0  0.16032  0.40558  0.98068  1.0000
  H   H590      1.0  0.18417  0.27234  0.70713  1.0000
  C   C345      1.0  0.12848  0.33632  0.54528  1.0000
  C   C346      1.0  0.19405  0.25638  0.70675  1.0000
  H   H591      1.0  0.31048  0.46427  0.92280  1.0000
  C   C347      1.0  0.38631  0.25619  0.63418  1.0000
  H   H592      1.0  0.37273  0.46149  0.72507  1.0000
  H   H593      1.0  0.33961  0.39570  0.67896  1.0000
  H   H594      1.0  0.23286  0.47483  0.57055  1.0000
  H   H595      1.0  0.30342  0.47362  0.80059  1.0000
  C   C348      1.0  0.09800  0.33529  0.49506  1.0000
  H   H596      1.0  0.30646  0.35744  0.54323  1.0000
  C   C349      1.0  0.35166  0.48383  0.95571  1.0000
  H   H597      1.0  0.20740  0.29155  0.67750  1.0000
  S   S88       1.0  0.22746  0.49213  0.96789  1.0000
  Fe  Fe48      1.0  0.37373  0.48682  0.82091  1.0000
  C   C350      1.0  0.19019  0.27381  0.59323  1.0000
  C   C351      1.0  0.16757  0.24819  0.89786  1.0000
  C   C352      1.0  0.16022  0.30391  0.52133  1.0000
  N   N18       1.0  0.18214  0.34438  0.92797  1.0000
  C   C353      1.0  0.16157  0.33011  0.92738  1.0000
  C   C354      1.0  0.19329  0.34065  0.95030  1.0000
  C   C355      1.0  0.17407  0.36842  0.92692  1.0000
  C   C356      1.0  0.19860  0.34003  0.90858  1.0000
  C   C357      1.0  0.19971  0.31599  0.89907  1.0000
  C   C358      1.0  0.14602  0.33458  0.90711  1.0000
  C   C359      1.0  0.19228  0.38622  0.93000  1.0000
  C   C360      1.0  0.20386  0.31729  0.95474  1.0000
  C   C361      1.0  0.27990  0.40305  0.51897  1.0000
  C   C362      1.0  0.21991  0.31278  0.88289  1.0000
  C   C363      1.0  0.13205  0.31432  0.90184  1.0000
  C   C364      1.0  0.18373  0.40939  0.92292  1.0000
  H   H598      1.0  0.15092  0.33248  0.94295  1.0000
  H   H599      1.0  0.16636  0.31225  0.92784  1.0000
  H   H600      1.0  0.20733  0.35230  0.95228  1.0000
  H   H601      1.0  0.18092  0.34423  0.96426  1.0000
  H   H602      1.0  0.16051  0.37155  0.93989  1.0000
  H   H603      1.0  0.16616  0.37217  0.91050  1.0000
  H   H604      1.0  0.19475  0.35115  0.89395  1.0000
  H   H605      1.0  0.21592  0.34452  0.91339  1.0000
  H   H606      1.0  0.18434  0.31265  0.88956  1.0000
  H   H607      1.0  0.20090  0.30302  0.91240  1.0000
  H   H608      1.0  0.13419  0.34868  0.91111  1.0000
  H   H609      1.0  0.15579  0.33921  0.89166  1.0000
  H   H610      1.0  0.20785  0.38230  0.91997  1.0000
  H   H611      1.0  0.19669  0.38715  0.94800  1.0000
  H   H612      1.0  0.19126  0.30405  0.95352  1.0000
  H   H613      1.0  0.21803  0.31399  0.94263  1.0000
  C   C365      1.0  0.16057  0.26066  0.74493  1.0000
  H   H614      1.0  0.31835  0.40231  0.65882  1.0000
  H   H615      1.0  0.43266  0.45457  0.70256  1.0000
  H   H616      1.0  0.21986  0.29571  0.87595  1.0000
  H   H617      1.0  0.21901  0.32494  0.86866  1.0000
  H   H618      1.0  0.23592  0.31484  0.89181  1.0000
  H   H619      1.0  0.12044  0.31848  0.88798  1.0000
  H   H620      1.0  0.14319  0.30014  0.89652  1.0000
  H   H621      1.0  0.12186  0.30908  0.91682  1.0000
  H   H622      1.0  0.16784  0.41382  0.93226  1.0000
  H   H623      1.0  0.19652  0.42191  0.92680  1.0000
  C   C366      1.0  0.33629  0.44578  0.96600  1.0000
  H   H624      1.0  0.22047  0.29865  0.98139  1.0000
  C   C367      1.0  0.37457  0.46676  0.70711  1.0000
  S   S89       1.0  0.21714  0.39476  0.50129  1.0000
  H   H625      1.0  0.31615  0.47885  0.82726  1.0000
  C   C368      1.0  0.34975  0.47941  0.67610  1.0000
  H   H626      1.0  0.03421  0.31527  0.96692  1.0000
  H   H627      1.0  0.22896  0.27567  0.66249  1.0000
  H   H628      1.0  0.39368  0.26901  0.55578  1.0000
  H   H629      1.0  0.34747  0.40785  0.65195  1.0000
  H   H630      1.0  0.32233  0.43703  0.97497  1.0000
  C   C369      1.0  0.15053  0.25030  0.91470  1.0000
  H   H631      1.0  0.22770  0.32765  0.97970  1.0000
  C   C370      1.0  0.17868  0.41983  0.98365  1.0000
  H   H632      1.0  0.26331  0.40684  0.51152  1.0000
  H   H633      1.0  0.36830  0.47614  0.96002  1.0000
  H   H634      1.0  0.36713  0.43573  0.67414  1.0000
  C   C371      1.0  0.26498  0.25319  0.71723  1.0000
  C   C372      1.0  0.34927  0.25134  0.72431  1.0000
  C   C373      1.0  0.13408  0.28399  0.54859  1.0000
  C   C374      1.0  0.21375  0.31578  0.97824  1.0000
  H   H635      1.0  0.14060  0.26658  0.55073  1.0000
  H   H636      1.0  0.28220  0.32809  0.53320  1.0000
  H   H637      1.0  0.20066  0.31961  0.99138  1.0000
  S   S90       1.0  0.35998  0.47533  0.85586  1.0000
  H   H638      1.0  0.08501  0.26829  0.52183  1.0000
  C   C375      1.0  0.14735  0.32216  0.55630  1.0000
  H   H639      1.0  0.28597  0.47792  0.82551  1.0000
  N   N19       1.0  0.35305  0.46254  0.69482  1.0000
  H   H640      1.0  0.37657  0.25231  0.69925  1.0000
  S   S91       1.0  0.35510  0.48131  0.78900  1.0000
  H   H641      1.0  0.42793  0.27196  0.66825  1.0000
  H   H642      1.0  0.18879  0.27368  0.61190  1.0000
  C   C376      1.0  0.29236  0.38438  0.50625  1.0000
  C   C377      1.0  0.32161  0.32739  0.55580  1.0000
  H   H643      1.0  0.27734  0.39825  0.53694  1.0000
  H   H644      1.0  0.18893  0.25643  0.58733  1.0000
  C   C378      1.0  0.31211  0.48655  0.74187  1.0000
  H   H645      1.0  0.20696  0.28031  0.58809  1.0000
  H   H646      1.0  0.17811  0.27362  0.55123  1.0000
  Fe  Fe49      1.0  0.26496  0.49279  0.95953  1.0000
  C   C379      1.0  0.07726  0.32553  0.50146  1.0000
  C   C380      1.0  0.39642  0.45443  0.69855  1.0000
  H   H647      1.0  0.14179  0.31977  0.57416  1.0000
  H   H648      1.0  0.14032  0.36786  0.55793  1.0000
  H   H649      1.0  0.33273  0.33683  0.56680  1.0000
  H   H650      1.0  0.18912  0.28164  0.51396  1.0000
  H   H651      1.0  0.23137  0.28000  0.69217  1.0000
  H   H652      1.0  0.15495  0.28122  0.58879  1.0000
  H   H653      1.0  0.37784  0.48495  0.70752  1.0000
  H   H654      1.0  0.22316  0.29965  0.49761  1.0000
  H   H655      1.0  0.41907  0.48156  0.70542  1.0000
  H   H656      1.0  0.12477  0.27516  0.51419  1.0000
  H   H657      1.0  0.13304  0.34050  0.52756  1.0000
  C   C381      1.0  0.41740  0.46352  0.70925  1.0000
  H   H658      1.0  0.30387  0.31307  0.51807  1.0000
  H   H659      1.0  0.17173  0.27509  0.74233  1.0000
  H   H660      1.0  0.30672  0.32214  0.56612  1.0000
  H   H661      1.0  0.20734  0.25790  0.71956  1.0000
  H   H662      1.0  0.26728  0.36164  0.52030  1.0000
  N   N20       1.0  0.32821  0.40989  0.81973  1.0000
  C   C382      1.0  0.32586  0.43485  0.81679  1.0000
  C   C383      1.0  0.35174  0.40195  0.81276  1.0000
  C   C384      1.0  0.31172  0.39949  0.80421  1.0000
  C   C385      1.0  0.32233  0.40242  0.84345  1.0000
  C   C386      1.0  0.33629  0.41236  0.86232  1.0000
  C   C387      1.0  0.30283  0.44549  0.82422  1.0000
  C   C388      1.0  0.31406  0.37385  0.80118  1.0000
  C   C389      1.0  0.37163  0.41734  0.81768  1.0000
  C   C390      1.0  0.39430  0.40514  0.81414  1.0000
  C   C391      1.0  0.32588  0.40710  0.88553  1.0000
  C   C392      1.0  0.30212  0.47048  0.81903  1.0000
  C   C393      1.0  0.29644  0.36553  0.78518  1.0000
  H   H663      1.0  0.32928  0.43954  0.79886  1.0000
  H   H664      1.0  0.33868  0.44368  0.82626  1.0000
  H   H665      1.0  0.35545  0.38523  0.82032  1.0000
  H   H666      1.0  0.35297  0.39964  0.79418  1.0000
  H   H667      1.0  0.31316  0.40721  0.78711  1.0000
  H   H668      1.0  0.29405  0.40277  0.81013  1.0000
  H   H669      1.0  0.30414  0.40583  0.84737  1.0000
  H   H670      1.0  0.32448  0.38407  0.84522  1.0000
  H   H671      1.0  0.33731  0.43068  0.86078  1.0000
  H   H672      1.0  0.35357  0.40491  0.86186  1.0000
  H   H673      1.0  0.28864  0.43814  0.81540  1.0000
  H   H674      1.0  0.29998  0.44333  0.84265  1.0000
  H   H675      1.0  0.31165  0.36488  0.81745  1.0000
  H   H676      1.0  0.33084  0.36900  0.79390  1.0000
  H   H677      1.0  0.37122  0.43182  0.80587  1.0000
  H   H678      1.0  0.37097  0.42388  0.83496  1.0000
  H   H679      1.0  0.39601  0.39108  0.82635  1.0000
  H   H680      1.0  0.39598  0.39869  0.79674  1.0000
  H   H681      1.0  0.40823  0.41680  0.81669  1.0000
  H   H682      1.0  0.30901  0.41537  0.88747  1.0000
  H   H683      1.0  0.32424  0.38884  0.88806  1.0000
  H   H684      1.0  0.33684  0.41342  0.89876  1.0000
  H   H685      1.0  0.16266  0.26782  0.51425  1.0000
  C   C394      1.0  0.33657  0.48282  0.87398  1.0000
  H   H686      1.0  0.14184  0.24643  0.77354  1.0000
  H   H687      1.0  0.29855  0.34725  0.78316  1.0000
  H   H688      1.0  0.29854  0.37348  0.76829  1.0000
  H   H689      1.0  0.31402  0.47243  0.75400  1.0000
  H   H690      1.0  0.29004  0.41837  0.51813  1.0000
  H   H691      1.0  0.31708  0.46441  0.70243  1.0000
  C   C395      1.0  0.20643  0.25560  0.68338  1.0000
  H   H692      1.0  0.31628  0.47558  0.96226  1.0000
  H   H693      1.0  0.14630  0.27590  0.77515  1.0000
  H   H694      1.0  0.31725  0.43024  0.68825  1.0000
  H   H695      1.0  0.40621  0.27146  0.58291  1.0000
  C   C396      1.0  0.35314  0.43888  0.68647  1.0000
  C   C397      1.0  0.33304  0.47090  0.96884  1.0000
  H   H696      1.0  0.35649  0.42714  0.70073  1.0000
  C   C398      1.0  0.25349  0.31839  0.50213  1.0000
  H   H697      1.0  0.33613  0.44134  0.94794  1.0000
  H   H698      1.0  0.33331  0.45105  0.72348  1.0000
  H   H699      1.0  0.32979  0.34644  0.52620  1.0000
  H   H700      1.0  0.06669  0.33325  0.51438  1.0000
  C   C399      1.0  0.33335  0.46517  0.71126  1.0000
  H   H701      1.0  0.32617  0.44259  0.66166  1.0000
  C   C400      1.0  0.27776  0.36328  0.50463  1.0000
  H   H702      1.0  0.14775  0.48809  0.49782  1.0000
  H   H703      1.0  0.10297  0.35052  0.50280  1.0000
  N   N21       1.0  0.29015  0.34151  0.49994  1.0000
  Fe  Fe50      1.0  0.23645  0.46425  0.99254  1.0000
  H   H704      1.0  0.33291  0.47429  0.98712  1.0000
  H   H705      1.0  0.33277  0.47791  0.66886  1.0000
  H   H706      1.0  0.39887  0.45571  0.68010  1.0000
  C   C401      1.0  0.21925  0.27704  0.67866  1.0000
  H   H707      1.0  0.32288  0.24594  0.63477  1.0000
  S   S92       1.0  0.16969  0.44485  0.49775  1.0000
  H   H708      1.0  0.10158  0.25231  0.54151  1.0000
  C   C402      1.0  0.30018  0.49367  0.90451  1.0000
  H   H709      1.0  0.42995  0.25182  0.52880  1.0000
  H   H710      1.0  0.36959  0.46235  0.64919  1.0000
  C   C403      1.0  0.40973  0.26751  0.56493  1.0000
  S   S93       1.0  0.04387  0.29411  0.50078  1.0000
  H   H711      1.0  0.18259  0.25797  0.89887  1.0000
  C   C404      1.0  0.36752  0.47909  0.65663  1.0000
  H   H712      1.0  0.22830  0.49038  0.59602  1.0000
  H   H713      1.0  0.29602  0.48506  0.73295  1.0000
  C   C405      1.0  0.23513  0.49125  0.57845  1.0000
  H   H714      1.0  0.15033  0.25536  0.69966  1.0000
  C   C406      1.0  0.15415  0.25976  0.76998  1.0000
  S   S94       1.0  0.15511  0.30126  0.99056  1.0000
  H   H715      1.0  0.49211  0.48522  0.84902  1.0000
  H   H716      1.0  0.34458  0.49021  0.63043  1.0000
  C   C407      1.0  0.16553  0.49082  0.49473  1.0000
  C   C408      1.0  0.19820  0.41191  0.99415  1.0000
  H   H717      1.0  0.47263  0.58204  0.25783  1.0000
  H   H718      1.0  0.03007  0.65040  0.45396  1.0000
  H   H719      1.0  0.26549  0.52062  0.08148  1.0000
  H   H720      1.0  0.37391  0.71846  0.25852  1.0000
  C   C409      1.0  0.24817  0.68575  0.34543  1.0000
  Fe  Fe51      1.0  0.13753  0.70075  0.01535  1.0000
  S   S95       1.0  0.16207  0.71403  0.04105  1.0000
  S   S96       1.0  0.11413  0.67263  0.02384  1.0000
  Fe  Fe52      1.0  0.34204  0.69480  0.31767  1.0000
  S   S97       1.0  0.33251  0.69125  0.28147  1.0000
  S   S98       1.0  0.35966  0.72565  0.33053  1.0000
  Fe  Fe53      1.0  0.31167  0.65606  0.33309  1.0000
  S   S99       1.0  0.30045  0.64997  0.29775  1.0000
  S   S100      1.0  0.29809  0.63241  0.36066  1.0000
  Fe  Fe54      1.0  0.33690  0.65410  0.28745  1.0000
  S   S101      1.0  0.35593  0.63511  0.25932  1.0000
  Fe  Fe55      1.0  0.29691  0.68727  0.29429  1.0000
  S   S102      1.0  0.26377  0.70361  0.28280  1.0000
  S   S103      1.0  0.34867  0.65795  0.32304  1.0000
  S   S104      1.0  0.30591  0.69294  0.33026  1.0000
  Fe  Fe56      1.0  0.37580  0.51229  0.20551  1.0000
  S   S105      1.0  0.36189  0.53134  0.23612  1.0000
  S   S106      1.0  0.38529  0.52124  0.16958  1.0000
  Fe  Fe57      1.0  0.21049  0.62711  0.46726  1.0000
  S   S107      1.0  0.18287  0.60390  0.45830  1.0000
  S   S108      1.0  0.23144  0.65077  0.44502  1.0000
  C   C410      1.0  0.29919  0.54398  0.09449  1.0000
  C   C411      1.0  0.23730  0.73259  0.25804  1.0000
  C   C412      1.0  0.35533  0.51679  0.31728  1.0000
  H   H721      1.0  0.28350  0.68014  0.46951  1.0000
  H   H722      1.0  0.10223  0.64979  0.07198  1.0000
  H   H723      1.0  0.10204  0.73965  0.45060  1.0000
  C   C413      1.0  0.47056  0.54726  0.22790  1.0000
  C   C414      1.0  0.28007  0.63793  0.38443  1.0000
  C   C415      1.0  0.27580  0.65949  0.39227  1.0000
  C   C416      1.0  0.26092  0.66304  0.41084  1.0000
  C   C417      1.0  0.25009  0.64515  0.42179  1.0000
  C   C418      1.0  0.25438  0.62357  0.41400  1.0000
  C   C419      1.0  0.26937  0.62001  0.39551  1.0000
  H   H724      1.0  0.28416  0.67338  0.38417  1.0000
  H   H725      1.0  0.25784  0.67977  0.41682  1.0000
  H   H726      1.0  0.24623  0.60964  0.42227  1.0000
  H   H727      1.0  0.27261  0.60326  0.38965  1.0000
  C   C420      1.0  0.35680  0.60618  0.25306  1.0000
  C   C421      1.0  0.34849  0.59001  0.26809  1.0000
  C   C422      1.0  0.35017  0.56723  0.26257  1.0000
  C   C423      1.0  0.35990  0.56033  0.24190  1.0000
  C   C424      1.0  0.36798  0.57650  0.22678  1.0000
  C   C425      1.0  0.36664  0.59923  0.23243  1.0000
  H   H728      1.0  0.34095  0.59506  0.28402  1.0000
  H   H729      1.0  0.34378  0.55491  0.27438  1.0000
  H   H730      1.0  0.37503  0.57155  0.21066  1.0000
  H   H731      1.0  0.37299  0.61160  0.22063  1.0000
  C   C426      1.0  0.05056  0.62968  0.00885  1.0000
  H   H732      1.0  0.03708  0.60838  0.07709  1.0000
  H   H733      1.0  0.37321  0.55153  0.02216  1.0000
  C   C427      1.0  0.25881  0.72248  0.25997  1.0000
  C   C428      1.0  0.42273  0.56753  0.18904  1.0000
  H   H734      1.0  0.29110  0.53232  0.10676  1.0000
  H   H735      1.0  0.00476  0.64067  0.01034  1.0000
  H   H736      1.0  0.23750  0.66517  0.30424  1.0000
  H   H737      1.0  0.41878  0.58472  0.19457  1.0000
  C   C429      1.0  0.40620  0.71841  0.32527  1.0000
  C   C430      1.0  0.38862  0.73187  0.33398  1.0000
  C   C431      1.0  0.20287  0.64030  0.34378  1.0000
  C   C432      1.0  0.42249  0.56770  0.16334  1.0000
  H   H738      1.0  0.34764  0.73946  0.28467  1.0000
  H   H739      1.0  0.40236  0.70339  0.31646  1.0000
  H   H740      1.0  0.04065  0.59345  0.02759  1.0000
  H   H741      1.0  0.40556  0.57316  0.15761  1.0000
  C   C433      1.0  0.07250  0.67728  0.47544  1.0000
  H   H742      1.0  0.44724  0.54086  0.19280  1.0000
  Fe  Fe58      1.0  0.16157  0.62154  0.48522  1.0000
  H   H743      1.0  0.46575  0.62017  0.27127  1.0000
  H   H744      1.0  0.02159  0.63907  0.05853  1.0000
  H   H745      1.0  0.49484  0.52099  0.14651  1.0000
  H   H746      1.0  0.44259  0.52516  0.25775  1.0000
  C   C434      1.0  0.23229  0.52685  0.06885  1.0000
  H   H747      1.0  0.27704  0.71069  0.44270  1.0000
  C   C435      1.0  0.29545  0.56275  0.03980  1.0000
  H   H748      1.0  0.44349  0.55227  0.26960  1.0000
  H   H749      1.0  0.18871  0.65260  0.34584  1.0000
  H   H750      1.0  0.33094  0.53998  0.11152  1.0000
  H   H751      1.0  0.30545  0.54034  0.01274  1.0000
  H   H752      1.0  0.08710  0.63180  0.00249  1.0000
  C   C436      1.0  0.03603  0.71703  0.41857  1.0000
  C   C437      1.0  0.06666  0.64004  0.04431  1.0000
  H   H753      1.0  0.24784  0.69185  0.32782  1.0000
  C   C438      1.0  0.22788  0.67088  0.35158  1.0000
  C   C439      1.0  0.31946  0.55371  0.10589  1.0000
  H   H754      1.0  0.49529  0.57147  0.21445  1.0000
  C   C440      1.0  0.44576  0.55865  0.19768  1.0000
  C   C441      1.0  0.06666  0.64146  0.07027  1.0000
  C   C442      1.0  0.01238  0.65328  0.45997  1.0000
  H   H755      1.0  0.06986  0.62470  0.07772  1.0000
  H   H756      1.0  0.27716  0.61130  0.48178  1.0000
  Fe  Fe59      1.0  0.19551  0.58137  0.48645  1.0000
  H   H757      1.0  0.03400  0.72228  0.43627  1.0000
  H   H758      1.0  0.33795  0.50745  0.28790  1.0000
  C   C443      1.0  0.17920  0.60573  0.00677  1.0000
  H   H759      1.0  0.49098  0.54806  0.19650  1.0000
  H   H760      1.0  0.46764  0.52927  0.22482  1.0000
  H   H761      1.0  0.16859  0.63038  0.37553  1.0000
  C   C444      1.0  0.19739  0.56881  0.00173  1.0000
  C   C445      1.0  0.27319  0.69463  0.47542  1.0000
  H   H762      1.0  0.08307  0.63187  0.03957  1.0000
  H   H763      1.0  0.02732  0.65855  0.03704  1.0000
  C   C446      1.0  0.13808  0.74288  0.06995  1.0000
  H   H764      1.0  0.08038  0.64421  0.46319  1.0000
  H   H765      1.0  0.21650  0.68788  0.27490  1.0000
  H   H766      1.0  0.17960  0.62236  0.01344  1.0000
  H   H767      1.0  0.43594  0.59445  0.22398  1.0000
  H   H768      1.0  0.31855  0.50418  0.24465  1.0000
  C   C447      1.0  0.30127  0.55827  0.01510  1.0000
  N   N22       1.0  0.44950  0.56073  0.22260  1.0000
  H   H769      1.0  0.32576  0.73690  0.26539  1.0000
  H   H770      1.0  0.30065  0.73376  0.29404  1.0000
  C   C448      1.0  0.43337  0.54141  0.25918  1.0000
  H   H771      1.0  0.28691  0.56322  0.00435  1.0000
  H   H772      1.0  0.29811  0.71804  0.46238  1.0000
  H   H773      1.0  0.47711  0.62059  0.24286  1.0000
  C   C449      1.0  0.24849  0.70608  0.36057  1.0000
  C   C450      1.0  0.46222  0.61610  0.25355  1.0000
  H   H774      1.0  0.04906  0.64733  0.00304  1.0000
  C   C451      1.0  0.19753  0.59066  0.01002  1.0000
  C   C452      1.0  0.27995  0.71451  0.46060  1.0000
  H   H775      1.0  0.41540  0.56406  0.23646  1.0000
  H   H776      1.0  0.22892  0.50109  0.48352  1.0000
  H   H777      1.0  0.37780  0.72798  0.22982  1.0000
  H   H778      1.0  0.36784  0.50750  0.28460  1.0000
  C   C453      1.0  0.12142  0.71226  0.43730  1.0000
  H   H779      1.0  0.34698  0.53693  0.02341  1.0000
  H   H780      1.0  0.06501  0.59761  0.04334  1.0000
  H   H781      1.0  0.37343  0.52171  0.02579  1.0000
  H   H782      1.0  0.16126  0.52673  0.49212  1.0000
  H   H783      1.0  0.47456  0.54813  0.24595  1.0000
  C   C454      1.0  0.01159  0.66214  0.48395  1.0000
  H   H784      1.0  0.44734  0.62627  0.24828  1.0000
  C   C455      1.0  0.10609  0.73274  0.43371  1.0000
  H   H785      1.0  0.02769  0.56931  0.08512  1.0000
  H   H786      1.0  0.46464  0.59275  0.21586  1.0000
  C   C456      1.0  0.08408  0.72632  0.42228  1.0000
  C   C457      1.0  0.04835  0.73507  0.40436  1.0000
  H   H787      1.0  0.22782  0.66185  0.99994  1.0000
  C   C458      1.0  0.16034  0.59918  0.99507  1.0000
  C   C459      1.0  0.24420  0.63625  0.33625  1.0000
  N   N23       1.0  0.22402  0.65191  0.33589  1.0000
  H   H788      1.0  0.35147  0.71587  0.23868  1.0000
  H   H789      1.0  0.40108  0.52526  0.26270  1.0000
  C   C460      1.0  0.24244  0.61480  0.32225  1.0000
  C   C461      1.0  0.26297  0.59941  0.32555  1.0000
  S   S109      1.0  0.45104  0.50660  0.16196  1.0000
  H   H790      1.0  0.17638  0.60535  0.36022  1.0000
  H   H791      1.0  0.25950  0.64477  0.32965  1.0000
  H   H792      1.0  0.24812  0.63140  0.35381  1.0000
  H   H793      1.0  0.27352  0.56866  0.10308  1.0000
  H   H794      1.0  0.23108  0.66444  0.36886  1.0000
  N   N24       1.0  0.04733  0.62814  0.03413  1.0000
  H   H795      1.0  0.26410  0.67617  0.34779  1.0000
  C   C462      1.0  0.35390  0.50268  0.29622  1.0000
  H   H796      1.0  0.21695  0.61328  0.36532  1.0000
  H   H797      1.0  0.43515  0.57938  0.15624  1.0000
  H   H798      1.0  0.24175  0.61901  0.30404  1.0000
  H   H799      1.0  0.26436  0.59442  0.34355  1.0000
  H   H800      1.0  0.26139  0.58418  0.31542  1.0000
  H   H801      1.0  0.27867  0.60786  0.32001  1.0000
  C   C463      1.0  0.22105  0.66013  0.31202  1.0000
  H   H802      1.0  0.21200  0.59601  0.01898  1.0000
  H   H803      1.0  0.26567  0.65071  0.48142  1.0000
  H   H804      1.0  0.04588  0.70108  0.41819  1.0000
  H   H805      1.0  0.01425  0.70727  0.39155  1.0000
  H   H806      1.0  0.21038  0.69522  0.31624  1.0000
  H   H807      1.0  0.00170  0.72758  0.41058  1.0000
  H   H808      1.0  0.00420  0.66562  0.44854  1.0000
  H   H809      1.0  0.18903  0.69949  0.28193  1.0000
  H   H810      1.0  0.35180  0.49765  0.05310  1.0000
  H   H811      1.0  0.29280  0.58090  0.04157  1.0000
  H   H812      1.0  0.18335  0.60781  0.38941  1.0000
  C   C464      1.0  0.42931  0.55130  0.23528  1.0000
  H   H813      1.0  0.23366  0.71718  0.35741  1.0000
  H   H814      1.0  0.00475  0.69892  0.41939  1.0000
  H   H815      1.0  0.24838  0.70094  0.37858  1.0000
  S   S110      1.0  0.12437  0.63123  0.47845  1.0000
  H   H816      1.0  0.01514  0.59926  0.05967  1.0000
  H   H817      1.0  0.20917  0.63810  0.38036  1.0000
  H   H818      1.0  0.19122  0.72266  0.07761  1.0000
  C   C465      1.0  0.07328  0.62027  0.99906  1.0000
  N   N25       1.0  0.26454  0.55529  0.07099  1.0000
  C   C466      1.0  0.28196  0.56242  0.08735  1.0000
  C   C467      1.0  0.24660  0.57342  0.06901  1.0000
  S   S111      1.0  0.06282  0.71981  0.49240  1.0000
  C   C468      1.0  0.27460  0.54942  0.04812  1.0000
  C   C469      1.0  0.03826  0.57349  0.07001  1.0000
  H   H819      1.0  0.36264  0.49693  0.09322  1.0000
  C   C470      1.0  0.25419  0.59634  0.05972  1.0000
  C   C471      1.0  0.23552  0.61405  0.06304  1.0000
  C   C472      1.0  0.27551  0.72751  0.24376  1.0000
  C   C473      1.0  0.17316  0.51284  0.49159  1.0000
  C   C474      1.0  0.03346  0.59761  0.06277  1.0000
  H   H820      1.0  0.29163  0.57673  0.08067  1.0000
  H   H821      1.0  0.23327  0.56841  0.05737  1.0000
  H   H822      1.0  0.23800  0.57599  0.08571  1.0000
  H   H823      1.0  0.29354  0.74310  0.33448  1.0000
  C   C475      1.0  0.08634  0.65798  0.47275  1.0000
  H   H824      1.0  0.28004  0.53154  0.04763  1.0000
  H   H825      1.0  0.26150  0.55108  0.03509  1.0000
  H   H826      1.0  0.22139  0.50397  0.09561  1.0000
  H   H827      1.0  0.05060  0.64854  0.07722  1.0000
  C   C476      1.0  0.00602  0.69762  0.01521  1.0000
  H   H828      1.0  0.40125  0.55305  0.27398  1.0000
  H   H829      1.0  0.26924  0.60239  0.06815  1.0000
  H   H830      1.0  0.25783  0.59517  0.04135  1.0000
  H   H831      1.0  0.23237  0.61713  0.08125  1.0000
  H   H832      1.0  0.24066  0.62992  0.05480  1.0000
  H   H833      1.0  0.21959  0.60877  0.05555  1.0000
  C   C477      1.0  0.04736  0.60385  0.04117  1.0000
  C   C478      1.0  0.17575  0.73210  0.08074  1.0000
  H   H834      1.0  0.26403  0.71555  0.35690  1.0000
  Fe  Fe60      1.0  0.08991  0.68975  0.99991  1.0000
  H   H835      1.0  0.42222  0.53727  0.22583  1.0000
  C   C479      1.0  0.15798  0.73057  0.06560  1.0000
  C   C480      1.0  0.20438  0.62719  0.36647  1.0000
  H   H836      1.0  0.45912  0.56739  0.18772  1.0000
  H   H837      1.0  0.24801  0.53796  0.09892  1.0000
  H   H838      1.0  0.22728  0.60527  0.32715  1.0000
  H   H839      1.0  0.30544  0.53423  0.07984  1.0000
  H   H840      1.0  0.05635  0.67842  0.46760  1.0000
  C   C481      1.0  0.41117  0.53725  0.27193  1.0000
  H   H841      1.0  0.21247  0.50467  0.39503  1.0000
  H   H842      1.0  0.13657  0.71701  0.44654  1.0000
  C   C482      1.0  0.18173  0.61710  0.37321  1.0000
  H   H843      1.0  0.21246  0.68168  0.35327  1.0000
  H   H844      1.0  0.06739  0.65735  0.03737  1.0000
  H   H845      1.0  0.35457  0.53474  0.31247  1.0000
  H   H846      1.0  0.05627  0.57111  0.07434  1.0000
  S   S112      1.0  0.20690  0.54429  0.48351  1.0000
  H   H847      1.0  0.41456  0.53015  0.28888  1.0000
  H   H848      1.0  0.08535  0.65701  0.09655  1.0000
  H   H849      1.0  0.19722  0.62862  0.33082  1.0000
  H   H850      1.0  0.00419  0.61475  0.02565  1.0000
  C   C483      1.0  0.45189  0.58516  0.22748  1.0000
  H   H851      1.0  0.31615  0.56806  0.00967  1.0000
  H   H852      1.0  0.07548  0.71538  0.43494  1.0000
  H   H853      1.0  0.40898  0.55668  0.19525  1.0000
  H   H854      1.0  0.44228  0.71396  0.32097  1.0000
  H   H855      1.0  0.44286  0.58793  0.26324  1.0000
  H   H856      1.0  0.31047  0.55782  0.04960  1.0000
  H   H857      1.0  0.03700  0.62076  0.00037  1.0000
  C   C484      1.0  0.36483  0.53602  0.01734  1.0000
  H   H858      1.0  0.26966  0.72953  0.46515  1.0000
  C   C485      1.0  0.02555  0.64035  0.04027  1.0000
  H   H859      1.0  0.07762  0.60372  0.00644  1.0000
  H   H860      1.0  0.31392  0.56342  0.12088  1.0000
  H   H861      1.0  0.29206  0.71976  0.24488  1.0000
  H   H862      1.0  0.19222  0.67023  0.27595  1.0000
  C   C486      1.0  0.07980  0.69517  0.48795  1.0000
  C   C487      1.0  0.49227  0.55335  0.21425  1.0000
  H   H863      1.0  0.42627  0.55078  0.15675  1.0000
  H   H864      1.0  0.21541  0.64636  0.30135  1.0000
  C   C488      1.0  0.20400  0.67980  0.30884  1.0000
  H   H865      1.0  0.11251  0.69930  0.44741  1.0000
  H   H866      1.0  0.23552  0.52617  0.05044  1.0000
  H   H867      1.0  0.12703  0.70510  0.42092  1.0000
  C   C489      1.0  0.36536  0.72655  0.24402  1.0000
  S   S113      1.0  0.18843  0.64586  0.49231  1.0000
  C   C490      1.0  0.45753  0.59127  0.25184  1.0000
  H   H868      1.0  0.22428  0.72901  0.27054  1.0000
  C   C491      1.0  0.19607  0.51682  0.48753  1.0000
  C   C492      1.0  0.08549  0.65637  0.07789  1.0000
  C   C493      1.0  0.20024  0.68457  0.28388  1.0000
  C   C494      1.0  0.42885  0.72448  0.32785  1.0000
  H   H869      1.0  0.32901  0.56459  0.09396  1.0000
  S   S114      1.0  0.22109  0.55062  0.00690  1.0000
  S   S115      1.0  0.99890  0.71936  0.46812  1.0000
  H   H870      1.0  0.18741  0.67615  0.31688  1.0000
  C   C495      1.0  0.00451  0.63308  0.02749  1.0000
  H   H871      1.0  0.37148  0.51336  0.32583  1.0000
  C   C496      1.0  0.10795  0.65638  0.48204  1.0000
  H   H872      1.0  0.08858  0.71559  0.40762  1.0000
  H   H873      1.0  0.00884  0.70639  0.03060  1.0000
  H   H874      1.0  0.25515  0.69164  0.47249  1.0000
  C   C497      1.0  0.25331  0.53497  0.08106  1.0000
  H   H875      1.0  0.05332  0.72734  0.38796  1.0000
  H   H876      1.0  0.34101  0.51334  0.32913  1.0000
  H   H877      1.0  0.08303  0.67362  0.07121  1.0000
  H   H878      1.0  0.21762  0.53827  0.07209  1.0000
  C   C498      1.0  0.01279  0.71247  0.40939  1.0000
  H   H879      1.0  0.03420  0.56193  0.05636  1.0000
  H   H880      1.0  0.21334  0.49955  0.36524  1.0000
  C   C499      1.0  0.27062  0.74231  0.22577  1.0000
  H   H881      1.0  0.30156  0.62827  0.48428  1.0000
  Fe  Fe61      1.0  0.23438  0.51569  0.99625  1.0000
  Fe  Fe62      1.0  0.02505  0.72991  0.49230  1.0000
  H   H882      1.0  0.47883  0.72949  0.25518  1.0000
  S   S116      1.0  0.05263  0.69522  0.01150  1.0000
  C   C500      1.0  0.21115  0.49833  0.48659  1.0000
  C   C501      1.0  0.47871  0.50127  0.17261  1.0000
  H   H883      1.0  0.26796  0.73818  0.31978  1.0000
  C   C502      1.0  0.22549  0.50374  0.07728  1.0000
  H   H884      1.0  0.21035  0.49847  0.06831  1.0000
  Fe  Fe63      1.0  0.41518  0.49722  0.17414  1.0000
  H   H885      1.0  0.19761  0.66014  0.00161  1.0000
  H   H886      1.0  0.00313  0.63745  0.45920  1.0000
  H   H887      1.0  0.01994  0.67841  0.48363  1.0000
  H   H888      1.0  0.12429  0.74199  0.05848  1.0000
  H   H889      1.0  0.23884  0.49682  0.38096  1.0000
  C   C503      1.0  0.02473  0.69056  0.00180  1.0000
  C   C504      1.0  0.43428  0.74396  0.33927  1.0000
  C   C505      1.0  0.28574  0.62293  0.49294  1.0000
  C   C506      1.0  0.33916  0.49433  0.06605  1.0000
  S   S117      1.0  0.22461  0.60386  0.49361  1.0000
  C   C507      1.0  0.11550  0.67454  0.49405  1.0000
  H   H890      1.0  0.04112  0.64360  0.49372  1.0000
  H   H891      1.0  0.17808  0.54557  0.98345  1.0000
  H   H892      1.0  0.24291  0.53473  0.57985  1.0000
  H   H893      1.0  0.18172  0.55019  0.52704  1.0000
  C   C508      1.0  0.39598  0.71856  0.62796  1.0000
  C   C509      1.0  0.22551  0.55354  0.53924  1.0000
  H   H894      1.0  0.26027  0.54287  0.54780  1.0000
  Fe  Fe64      1.0  0.12810  0.69851  0.96460  1.0000
  S   S118      1.0  0.13432  0.70636  0.92697  1.0000
  S   S119      1.0  0.10383  0.67043  0.97045  1.0000
  Fe  Fe65      1.0  0.37078  0.51324  0.77602  1.0000
  S   S120      1.0  0.38754  0.51984  0.80890  1.0000
  S   S121      1.0  0.34659  0.53594  0.75601  1.0000
  Fe  Fe66      1.0  0.20107  0.62116  0.51806  1.0000
  S   S122      1.0  0.17261  0.59751  0.51282  1.0000
  S   S123      1.0  0.20882  0.63439  0.55293  1.0000
  C   C510      1.0  0.22243  0.57309  0.57484  1.0000
  C   C511      1.0  0.06445  0.60547  0.54735  1.0000
  H   H895      1.0  0.27844  0.55289  0.51150  1.0000
  C   C512      1.0  0.27548  0.68628  0.77551  1.0000
  Fe  Fe67      1.0  0.33751  0.69807  0.66095  1.0000
  S   S124      1.0  0.32828  0.68642  0.69613  1.0000
  S   S125      1.0  0.36120  0.72775  0.65933  1.0000
  Fe  Fe68      1.0  0.30767  0.66294  0.63988  1.0000
  S   S126      1.0  0.29712  0.64876  0.67378  1.0000
  S   S127      1.0  0.30018  0.64655  0.60615  1.0000
  Fe  Fe69      1.0  0.29286  0.68477  0.68439  1.0000
  S   S128      1.0  0.26227  0.69378  0.70716  1.0000
  Fe  Fe70      1.0  0.33341  0.65155  0.68337  1.0000
  S   S129      1.0  0.35766  0.62936  0.70378  1.0000
  S   S130      1.0  0.30129  0.69879  0.64978  1.0000
  S   S131      1.0  0.34457  0.66341  0.64882  1.0000
  H   H896      1.0  0.21686  0.58812  0.56507  1.0000
  H   H897      1.0  0.29901  0.66211  0.50773  1.0000
  C   C513      1.0  0.25645  0.71844  0.72285  1.0000
  C   C514      1.0  0.02352  0.64565  0.50040  1.0000
  C   C515      1.0  0.22490  0.53240  0.57591  1.0000
  H   H898      1.0  0.23119  0.70527  0.53946  1.0000
  H   H899      1.0  0.30532  0.68758  0.75399  1.0000
  C   C516      1.0  0.23455  0.63776  0.56718  1.0000
  C   C517      1.0  0.25475  0.62728  0.56016  1.0000
  C   C518      1.0  0.27458  0.63006  0.57238  1.0000
  C   C519      1.0  0.27448  0.64323  0.59181  1.0000
  C   C520      1.0  0.25424  0.65364  0.59884  1.0000
  C   C521      1.0  0.23445  0.65091  0.58659  1.0000
  H   H900      1.0  0.25509  0.61695  0.54541  1.0000
  H   H901      1.0  0.29013  0.62193  0.56678  1.0000
  H   H902      1.0  0.25385  0.66383  0.61371  1.0000
  H   H903      1.0  0.21889  0.65898  0.59230  1.0000
  H   H904      1.0  0.25685  0.57218  0.54145  1.0000
  H   H905      1.0  0.30528  0.58722  0.80998  1.0000
  C   C522      1.0  0.35046  0.56155  0.74101  1.0000
  C   C523      1.0  0.37043  0.57344  0.74171  1.0000
  C   C524      1.0  0.37238  0.59394  0.72994  1.0000
  C   C525      1.0  0.35449  0.60285  0.71731  1.0000
  C   C526      1.0  0.33471  0.59073  0.71622  1.0000
  C   C527      1.0  0.33265  0.57035  0.72815  1.0000
  H   H906      1.0  0.38431  0.56692  0.75143  1.0000
  H   H907      1.0  0.38786  0.60299  0.73075  1.0000
  H   H908      1.0  0.32104  0.59695  0.70608  1.0000
  H   H909      1.0  0.31718  0.56125  0.72733  1.0000
  H   H910      1.0  0.02488  0.68848  0.55746  1.0000
  H   H911      1.0  0.48118  0.72829  0.56726  1.0000
  H   H912      1.0  0.28516  0.71291  0.79767  1.0000
  H   H913      1.0  0.49017  0.71407  0.54200  1.0000
  S   S132      1.0  0.15449  0.68233  0.98627  1.0000
  H   H914      1.0  0.21891  0.55447  0.92153  1.0000
  H   H915      1.0  0.28250  0.65021  0.52983  1.0000
  H   H916      1.0  0.35649  0.52275  0.91303  1.0000
  C   C528      1.0  0.10152  0.69374  0.49697  1.0000
  H   H917      1.0  0.20475  0.50467  0.56486  1.0000
  H   H918      1.0  0.29712  0.61226  0.74177  1.0000
  H   H919      1.0  0.21615  0.53104  0.59263  1.0000
  C   C529      1.0  0.45188  0.71682  0.68843  1.0000
  C   C530      1.0  0.99912  0.65771  0.53198  1.0000
  H   H920      1.0  0.43218  0.64838  0.74616  1.0000
  H   H921      1.0  0.00407  0.66074  0.56877  1.0000
  H   H922      1.0  0.25198  0.56323  0.50097  1.0000
  C   C531      1.0  0.36072  0.49521  0.63774  1.0000
  H   H923      1.0  0.35921  0.54878  0.98398  1.0000
  H   H924      1.0  0.28318  0.72106  0.76839  1.0000
  C   C532      1.0  0.29969  0.67772  0.76911  1.0000
  H   H925      1.0  0.31535  0.61287  0.82085  1.0000
  H   H926      1.0  0.05879  0.61927  0.51465  1.0000
  H   H927      1.0  0.32695  0.51323  0.93385  1.0000
  H   H928      1.0  0.25457  0.63679  0.50591  1.0000
  C   C533      1.0  0.29816  0.64060  0.78650  1.0000
  H   H929      1.0  0.32589  0.51197  0.85537  1.0000
  H   H930      1.0  0.48139  0.73730  0.68355  1.0000
  H   H931      1.0  0.30735  0.54762  0.92178  1.0000
  H   H932      1.0  0.45233  0.72925  0.53711  1.0000
  N   N26       1.0  0.21578  0.55227  0.56293  1.0000
  H   H933      1.0  0.39107  0.65456  0.63320  1.0000
  C   C534      1.0  0.19023  0.55209  0.56262  1.0000
  H   H934      1.0  0.26508  0.67941  0.55356  1.0000
  C   C535      1.0  0.41706  0.72292  0.61741  1.0000
  C   C536      1.0  0.25155  0.55524  0.53692  1.0000
  C   C537      1.0  0.21334  0.57547  0.59946  1.0000
  C   C538      1.0  0.37177  0.51485  0.92030  1.0000
  C   C539      1.0  0.21823  0.59840  0.60870  1.0000
  H   H935      1.0  0.42454  0.62199  0.73496  1.0000
  H   H936      1.0  0.18652  0.52345  0.53974  1.0000
  H   H937      1.0  0.18328  0.54469  0.57855  1.0000
  H   H938      1.0  0.18315  0.56946  0.56197  1.0000
  C   C540      1.0  0.35407  0.51231  0.98443  1.0000
  C   C541      1.0  0.17924  0.54026  0.54275  1.0000
  H   H939      1.0  0.21316  0.59908  0.62679  1.0000
  H   H940      1.0  0.23649  0.60201  0.60701  1.0000
  H   H941      1.0  0.26817  0.70710  0.54300  1.0000
  H   H942      1.0  0.09003  0.74400  0.91733  1.0000
  H   H943      1.0  0.22164  0.56293  0.61055  1.0000
  H   H944      1.0  0.19485  0.57328  0.60080  1.0000
  H   H945      1.0  0.29629  0.70040  0.50150  1.0000
  H   H946      1.0  0.21481  0.62758  0.98242  1.0000
  H   H947      1.0  0.18771  0.58185  0.92384  1.0000
  H   H948      1.0  0.20840  0.61145  0.59958  1.0000
  C   C542      1.0  0.43290  0.63796  0.73087  1.0000
  H   H949      1.0  0.14331  0.71341  0.87980  1.0000
  H   H950      1.0  0.16417  0.74224  0.85779  1.0000
  H   H951      1.0  0.42090  0.63820  0.69721  1.0000
  H   H952      1.0  0.12617  0.72798  0.80739  1.0000
  H   H953      1.0  0.14564  0.55473  0.54889  1.0000
  H   H954      1.0  0.45078  0.63422  0.72604  1.0000
  C   C543      1.0  0.07249  0.61785  0.97354  1.0000
  H   H955      1.0  0.26411  0.68486  0.76108  1.0000
  H   H956      1.0  0.40811  0.51815  0.91514  1.0000
  H   H957      1.0  0.32022  0.69757  0.57534  1.0000
  C   C544      1.0  0.28517  0.64718  0.74743  1.0000
  C   C545      1.0  0.25987  0.55108  0.51276  1.0000
  H   H958      1.0  0.21090  0.67872  0.98127  1.0000
  N   N27       1.0  0.26923  0.68180  0.51728  1.0000
  C   C546      1.0  0.38716  0.73280  0.64458  1.0000
  C   C547      1.0  0.27000  0.61985  0.71968  1.0000
  H   H959      1.0  0.06897  0.63861  0.53472  1.0000
  H   H960      1.0  0.40302  0.65251  0.71695  1.0000
  H   H961      1.0  0.32822  0.65835  0.73896  1.0000
  H   H962      1.0  0.15033  0.52762  0.56203  1.0000
  H   H963      1.0  0.26833  0.64480  0.75572  1.0000
  H   H964      1.0  0.28277  0.66126  0.73526  1.0000
  H   H965      1.0  0.29766  0.71737  0.56988  1.0000
  C   C548      1.0  0.39218  0.52577  0.90891  1.0000
  C   C549      1.0  0.30316  0.61517  0.78657  1.0000
  C   C550      1.0  0.47149  0.72547  0.67383  1.0000
  H   H966      1.0  0.24108  0.57413  0.57572  1.0000
  H   H967      1.0  0.05228  0.71421  0.54080  1.0000
  H   H968      1.0  0.30396  0.63151  0.71966  1.0000
  H   H969      1.0  0.26273  0.63416  0.71003  1.0000
  H   H970      1.0  0.27487  0.60647  0.70769  1.0000
  H   H971      1.0  0.05341  0.59099  0.54518  1.0000
  H   H972      1.0  0.41563  0.71382  0.71325  1.0000
  H   H973      1.0  0.39412  0.68538  0.73169  1.0000
  H   H974      1.0  0.21805  0.56821  0.53020  1.0000
  H   H975      1.0  0.22415  0.70695  0.73502  1.0000
  S   S133      1.0  0.27110  0.51768  0.98635  1.0000
  N   N28       1.0  0.19230  0.62789  0.93835  1.0000
  C   C551      1.0  0.20456  0.60642  0.94443  1.0000
  C   C552      1.0  0.19226  0.64369  0.95797  1.0000
  C   C553      1.0  0.16812  0.62231  0.93383  1.0000
  C   C554      1.0  0.20202  0.63869  0.91729  1.0000
  C   C555      1.0  0.22730  0.64435  0.91732  1.0000
  C   C556      1.0  0.20496  0.58785  0.92658  1.0000
  C   C557      1.0  0.15145  0.64242  0.93068  1.0000
  C   C558      1.0  0.14945  0.72755  0.91213  1.0000
  H   H976      1.0  0.06073  0.70516  0.56834  1.0000
  C   C559      1.0  0.23558  0.65181  0.89389  1.0000
  H   H977      1.0  0.36918  0.62917  0.76150  1.0000
  C   C560      1.0  0.12771  0.63450  0.92626  1.0000
  H   H978      1.0  0.19686  0.59927  0.96013  1.0000
  H   H979      1.0  0.22235  0.60932  0.94852  1.0000
  H   H980      1.0  0.18896  0.66112  0.95205  1.0000
  H   H981      1.0  0.17812  0.63983  0.97002  1.0000
  H   H982      1.0  0.16113  0.61169  0.94772  1.0000
  H   H983      1.0  0.16712  0.61229  0.91832  1.0000
  H   H984      1.0  0.19902  0.62826  0.90239  1.0000
  H   H985      1.0  0.19305  0.65476  0.91375  1.0000
  H   H986      1.0  0.23798  0.62991  0.92245  1.0000
  H   H987      1.0  0.22985  0.65848  0.92871  1.0000
  H   H988      1.0  0.29170  0.69086  0.58329  1.0000
  H   H989      1.0  0.21232  0.59388  0.91034  1.0000
  H   H990      1.0  0.15659  0.65312  0.91619  1.0000
  H   H991      1.0  0.15032  0.65286  0.94590  1.0000
  C   C561      1.0  0.27772  0.69896  0.50051  1.0000
  C   C562      1.0  0.48187  0.50372  0.79606  1.0000
  Fe  Fe71      1.0  0.12976  0.65531  0.99366  1.0000
  Fe  Fe72      1.0  0.41754  0.50013  0.79422  1.0000
  C   C563      1.0  0.29072  0.62689  0.73230  1.0000
  H   H992      1.0  0.25358  0.65639  0.89446  1.0000
  H   H993      1.0  0.23406  0.63816  0.88166  1.0000
  H   H994      1.0  0.22569  0.66662  0.88803  1.0000
  C   C564      1.0  0.48581  0.73063  0.54916  1.0000
  H   H995      1.0  0.29423  0.52153  0.88203  1.0000
  H   H996      1.0  0.04703  0.66785  0.56246  1.0000
  H   H997      1.0  0.11623  0.64916  0.92385  1.0000
  H   H998      1.0  0.12763  0.62431  0.91084  1.0000
  H   H999      1.0  0.12122  0.62453  0.94081  1.0000
  N   N29       1.0  0.02331  0.65226  0.52486  1.0000
  C   C565      1.0  0.03239  0.63257  0.53816  1.0000
  H   H1000     1.0  0.11628  0.73832  0.84662  1.0000
  H   H1001     1.0  0.33713  0.51232  0.99299  1.0000
  C   C566      1.0  0.03786  0.67237  0.52685  1.0000
  H   H1002     1.0  0.44165  0.73164  0.69375  1.0000
  H   H1003     1.0  0.07481  0.69363  0.54377  1.0000
  H   H1004     1.0  0.01551  0.62917  0.49866  1.0000
  C   C567      1.0  0.39174  0.73470  0.55905  1.0000
  C   C568      1.0  0.32266  0.50152  0.87002  1.0000
  H   H1005     1.0  0.31546  0.51213  0.96134  1.0000
  C   C569      1.0  0.28126  0.65959  0.51364  1.0000
  C   C570      1.0  0.21914  0.56773  0.93434  1.0000
  H   H1006     1.0  0.02137  0.61800  0.53600  1.0000
  H   H1007     1.0  0.03178  0.63583  0.55646  1.0000
  H   H1008     1.0  0.14575  0.57198  0.97768  1.0000
  C   C571      1.0  0.02064  0.67923  0.98194  1.0000
  C   C572      1.0  0.27022  0.64303  0.49771  1.0000
  H   H1009     1.0  0.32985  0.50177  0.71402  1.0000
  H   H1010     1.0  0.05481  0.66913  0.51907  1.0000
  H   H1011     1.0  0.03085  0.68665  0.51703  1.0000
  H   H1012     1.0  0.37253  0.49706  0.91556  1.0000
  H   H1013     1.0  0.08928  0.61210  0.96695  1.0000
  H   H1014     1.0  0.06395  0.61038  0.56530  1.0000
  S   S134      1.0  0.27804  0.50217  0.92375  1.0000
  C   C573      1.0  0.37196  0.51758  0.94629  1.0000
  C   C574      1.0  0.20441  0.69635  0.51836  1.0000
  H   H1015     1.0  0.36273  0.72196  0.71258  1.0000
  C   C575      1.0  0.21351  0.64349  0.97276  1.0000
  H   H1016     1.0  0.19873  0.68203  0.52896  1.0000
  H   H1017     1.0  0.35770  0.70523  0.73752  1.0000
  C   C576      1.0  0.34534  0.65577  0.77064  1.0000
  C   C577      1.0  0.36823  0.64764  0.76131  1.0000
  H   H1018     1.0  0.03469  0.67373  0.97132  1.0000
  C   C578      1.0  0.30467  0.50689  0.88520  1.0000
  C   C579      1.0  0.21232  0.66223  0.98988  1.0000
  C   C580      1.0  0.27433  0.68964  0.54065  1.0000
  H   H1019     1.0  0.23851  0.66606  0.52839  1.0000
  H   H1020     1.0  0.21523  0.74031  0.75822  1.0000
  C   C581      1.0  0.05829  0.69963  0.55085  1.0000
  H   H1021     1.0  0.22929  0.64517  0.96271  1.0000
  H   H1022     1.0  0.34989  0.49657  0.68288  1.0000
  S   S135      1.0  0.45334  0.51443  0.79652  1.0000
  H   H1023     1.0  0.31016  0.69840  0.53497  1.0000
  H   H1024     1.0  0.22067  0.53900  0.52935  1.0000
  H   H1025     1.0  0.14638  0.52995  0.53218  1.0000
  C   C582      1.0  0.32740  0.54428  0.95195  1.0000
  H   H1026     1.0  0.28532  0.60874  0.81852  1.0000
  C   C583      1.0  0.27555  0.71077  0.78211  1.0000
  H   H1027     1.0  0.23693  0.57241  0.93665  1.0000
  C   C584      1.0  0.32598  0.64908  0.75522  1.0000
  C   C585      1.0  0.30632  0.55239  0.93977  1.0000
  C   C586      1.0  0.32996  0.51863  0.95124  1.0000
  H   H1028     1.0  0.37091  0.65381  0.74381  1.0000
  H   H1029     1.0  0.30777  0.64804  0.80022  1.0000
  H   H1030     1.0  0.37401  0.53558  0.94926  1.0000
  C   C587      1.0  0.24398  0.67931  0.51629  1.0000
  H   H1031     1.0  0.06817  0.63410  0.96540  1.0000
  H   H1032     1.0  0.30622  0.67167  0.54830  1.0000
  C   C588      1.0  0.17859  0.56228  0.98992  1.0000
  N   N30       1.0  0.30235  0.65307  0.76460  1.0000
  H   H1033     1.0  0.38451  0.53217  0.98691  1.0000
  H   H1034     1.0  0.34194  0.55265  0.94377  1.0000
  S   S136      1.0  0.11275  0.71902  0.99297  1.0000
  S   S137      1.0  0.00125  0.72782  0.52262  1.0000
  H   H1035     1.0  0.08204  0.60031  0.54268  1.0000
  H   H1036     1.0  0.22991  0.50899  0.54760  1.0000
  H   H1037     1.0  0.26815  0.67686  0.78996  1.0000
  H   H1038     1.0  0.31067  0.68259  0.78301  1.0000
  H   H1039     1.0  0.42380  0.71167  0.60475  1.0000
  H   H1040     1.0  0.38189  0.65385  0.77179  1.0000
  H   H1041     1.0  0.25695  0.61340  0.73165  1.0000
  S   S138      1.0  0.13669  0.61750  0.99016  1.0000
  H   H1042     1.0  0.30473  0.57080  0.94067  1.0000
  H   H1043     1.0  0.39762  0.71616  0.68989  1.0000
  H   H1044     1.0  0.29095  0.54513  0.94769  1.0000
  H   H1045     1.0  0.35884  0.51247  0.64414  1.0000
  H   H1046     1.0  0.34597  0.67416  0.77185  1.0000
  H   H1047     1.0  0.32010  0.61090  0.77940  1.0000
  H   H1048     1.0  0.29015  0.60663  0.77705  1.0000
  H   H1049     1.0  0.38663  0.70415  0.62332  1.0000
  H   H1050     1.0  0.21224  0.56082  0.95048  1.0000
  N   N31       1.0  0.42017  0.68747  0.68885  1.0000
  C   C589      1.0  0.40582  0.67540  0.67254  1.0000
  C   C590      1.0  0.40545  0.70392  0.70178  1.0000
  C   C591      1.0  0.43723  0.70070  0.67518  1.0000
  C   C592      1.0  0.43262  0.67182  0.70463  1.0000
  C   C593      1.0  0.41909  0.66124  0.65477  1.0000
  H   H1051     1.0  0.36361  0.49817  0.99238  1.0000
  C   C594      1.0  0.38656  0.69417  0.71710  1.0000
  H   H1052     1.0  0.23884  0.67343  0.49962  1.0000
  C   C595      1.0  0.40384  0.64515  0.64305  1.0000
  C   C596      1.0  0.15104  0.72686  0.88846  1.0000
  H   H1053     1.0  0.39499  0.68749  0.66316  1.0000
  H   H1054     1.0  0.39356  0.66446  0.68141  1.0000
  C   C597      1.0  0.42955  0.74156  0.62323  1.0000
  H   H1055     1.0  0.39504  0.72085  0.54715  1.0000
  H   H1056     1.0  0.42861  0.71084  0.66204  1.0000
  H   H1057     1.0  0.44918  0.68935  0.66597  1.0000
  H   H1058     1.0  0.44927  0.66661  0.69711  1.0000
  H   H1059     1.0  0.43672  0.68069  0.72028  1.0000
  H   H1060     1.0  0.42652  0.67232  0.64154  1.0000
  H   H1061     1.0  0.43301  0.65149  0.66254  1.0000
  H   H1062     1.0  0.38773  0.50939  0.95243  1.0000
  H   H1063     1.0  0.28739  0.73477  0.71396  1.0000
  H   H1064     1.0  0.37598  0.68257  0.70797  1.0000
  C   C598      1.0  0.29953  0.68904  0.54723  1.0000
  C   C599      1.0  0.27168  0.73586  0.72356  1.0000
  H   H1065     1.0  0.34323  0.64852  0.78778  1.0000
  H   H1066     1.0  0.41409  0.63465  0.63125  1.0000
  H   H1067     1.0  0.39520  0.63405  0.65549  1.0000
  H   H1068     1.0  0.19429  0.71133  0.52333  1.0000
  H   H1069     1.0  0.39172  0.52326  0.89044  1.0000
  C   C600      1.0  0.16021  0.57734  0.98671  1.0000
  H   H1070     1.0  0.32545  0.54969  0.96965  1.0000
  H   H1071     1.0  0.32902  0.63141  0.75072  1.0000
  C   C601      1.0  0.42080  0.64980  0.71157  1.0000
  C   C602      1.0  0.30218  0.60552  0.81049  1.0000
  C   C603      1.0  0.30237  0.69938  0.57031  1.0000
  H   H1072     1.0  0.38776  0.72744  0.57594  1.0000
  C   C604      1.0  0.23607  0.72029  0.73544  1.0000
  H   H1073     1.0  0.28020  0.64250  0.79205  1.0000
  C   C605      1.0  0.37103  0.71264  0.72650  1.0000
  C   C606      1.0  0.36632  0.53346  0.99179  1.0000
  C   C607      1.0  0.99828  0.67474  0.97590  1.0000
  H   H1074     1.0  0.31136  0.50225  0.75152  1.0000
  C   C608      1.0  0.04100  0.68115  0.55086  1.0000
  C   C609      1.0  0.22271  0.50934  0.56497  1.0000
  C   C610      1.0  0.05703  0.62496  0.53229  1.0000
  H   H1075     1.0  0.25797  0.71692  0.78526  1.0000
  C   C611      1.0  0.23093  0.73922  0.74861  1.0000
  H   H1076     1.0  0.45895  0.70851  0.70354  1.0000
  H   H1077     1.0  0.27091  0.71581  0.50478  1.0000
  C   C612      1.0  0.15384  0.53805  0.54682  1.0000
  H   H1078     1.0  0.10756  0.70753  0.50645  1.0000
  H   H1079     1.0  0.39194  0.54395  0.91206  1.0000
  H   H1080     1.0  0.38068  0.72443  0.73652  1.0000
  H   H1081     1.0  0.23418  0.71461  0.51053  1.0000
  H   H1082     1.0  0.25572  0.53399  0.50756  1.0000
  H   H1083     1.0  0.46508  0.73443  0.65874  1.0000
  N   N32       1.0  0.35186  0.50866  0.95941  1.0000
  C   C613      1.0  0.22941  0.70044  0.52166  1.0000
  S   S139      1.0  0.40113  0.49547  0.76074  1.0000
  H   H1084     1.0  0.13205  0.67370  0.50128  1.0000
  H   H1085     1.0  0.05983  0.60543  0.96908  1.0000
  H   H1086     1.0  0.48288  0.71156  0.66833  1.0000
  H   H1087     1.0  0.28982  0.61395  0.50884  1.0000
  H   H1088     1.0  0.14832  0.74298  0.82003  1.0000
  H   H1089     1.0  0.42645  0.73857  0.56657  1.0000
  C   C614      1.0  0.46621  0.74128  0.53646  1.0000
  H   H1090     1.0  0.47197  0.74347  0.51868  1.0000
  C   C615      1.0  0.16270  0.74330  0.87589  1.0000
  H   H1091     1.0  0.25346  0.49458  0.57865  1.0000
  H   H1092     1.0  0.20128  0.69297  0.50041  1.0000
  H   H1093     1.0  0.37396  0.49505  0.62418  1.0000
  H   H1094     1.0  0.10565  0.80947  0.19219  1.0000
  H   H1095     1.0  0.22305  0.78298  0.06690  1.0000
  H   H1096     1.0  0.42053  0.77243  0.35681  1.0000
  H   H1097     1.0  0.39165  0.79993  0.28356  1.0000
  H   H1098     1.0  0.42185  0.81072  0.46663  1.0000
  C   C616      1.0  0.23583  0.77731  0.09981  1.0000
  H   H1099     1.0  0.17210  0.89866  0.17289  1.0000
  H   H1100     1.0  0.08860  0.80377  0.38443  1.0000
  H   H1101     1.0  0.14381  0.88852  0.14373  1.0000
  H   H1102     1.0  0.08261  0.78474  0.21734  1.0000
  H   H1103     1.0  0.40261  0.92842  0.16969  1.0000
  C   C617      1.0  0.24900  0.75219  0.22367  1.0000
  C   C618      1.0  0.02254  0.79401  0.25639  1.0000
  H   H1104     1.0  0.17133  0.89044  0.25421  1.0000
  Fe  Fe73      1.0  0.48122  0.77810  0.36051  1.0000
  H   H1105     1.0  0.02123  0.80074  0.42920  1.0000
  S   S140      1.0  0.46883  0.80504  0.38410  1.0000
  Fe  Fe74      1.0  0.17253  0.78877  0.15593  1.0000
  S   S141      1.0  0.20830  0.80056  0.15428  1.0000
  H   H1106     1.0  0.29283  0.80948  0.23112  1.0000
  Fe  Fe75      1.0  0.16446  0.80774  0.20371  1.0000
  S   S142      1.0  0.19970  0.82111  0.20513  1.0000
  S   S143      1.0  0.13879  0.80907  0.23314  1.0000
  Fe  Fe76      1.0  0.19508  0.83256  0.16924  1.0000
  S   S144      1.0  0.20002  0.86690  0.15260  1.0000
  Fe  Fe77      1.0  0.21070  0.78807  0.19038  1.0000
  H   H1107     1.0  0.31940  0.98344  0.19531  1.0000
  S   S145      1.0  0.15900  0.82154  0.16920  1.0000
  S   S146      1.0  0.17574  0.77395  0.19090  1.0000
  H   H1108     1.0  0.03049  0.77542  0.20595  1.0000
  N   N33       1.0  0.16719  0.90256  0.20895  1.0000
  H   H1109     1.0  0.39012  0.92076  0.21143  1.0000
  H   H1110     1.0  0.00061  0.78540  0.15247  1.0000
  H   H1111     1.0  0.30242  0.76552  0.25414  1.0000
  H   H1112     1.0  0.12201  0.90659  0.15592  1.0000
  Fe  Fe78      1.0  0.02766  0.87534  0.27898  1.0000
  S   S147      1.0  0.05697  0.87743  0.25310  1.0000
  S   S148      1.0  0.02547  0.89209  0.31273  1.0000
  H   H1113     1.0  0.38452  0.91513  0.13461  1.0000
  H   H1114     1.0  0.46469  0.90554  0.34133  1.0000
  H   H1115     1.0  0.25184  0.76997  0.09286  1.0000
  H   H1116     1.0  0.06815  0.77699  0.47714  1.0000
  H   H1117     1.0  0.11736  0.87720  0.15356  1.0000
  H   H1118     1.0  0.17625  0.84063  0.24393  1.0000
  Fe  Fe79      1.0  0.28982  0.96619  0.12890  1.0000
  S   S149      1.0  0.28314  0.93343  0.14837  1.0000
  S   S150      1.0  0.32132  0.96759  0.10707  1.0000
  H   H1119     1.0  0.11873  0.91258  0.21582  1.0000
  C   C619      1.0  0.29509  0.75091  0.29854  1.0000
  C   C620      1.0  0.12967  0.91262  0.23061  1.0000
  C   C621      1.0  0.39648  0.93671  0.20443  1.0000
  H   H1120     1.0  0.47259  0.93101  0.30888  1.0000
  H   H1121     1.0  0.12921  0.89615  0.23924  1.0000
  C   C622      1.0  0.22359  0.88484  0.15128  1.0000
  C   C623      1.0  0.24354  0.87995  0.16255  1.0000
  C   C624      1.0  0.26158  0.89492  0.16126  1.0000
  C   C625      1.0  0.26001  0.91493  0.14868  1.0000
  C   C626      1.0  0.24004  0.91981  0.13740  1.0000
  C   C627      1.0  0.22196  0.90488  0.13877  1.0000
  H   H1122     1.0  0.24509  0.86465  0.17225  1.0000
  H   H1123     1.0  0.27689  0.89096  0.17009  1.0000
  H   H1124     1.0  0.23851  0.93512  0.12771  1.0000
  H   H1125     1.0  0.20663  0.90890  0.12999  1.0000
  C   C628      1.0  0.11608  0.82824  0.23828  1.0000
  C   C629      1.0  0.11123  0.84589  0.22348  1.0000
  C   C630      1.0  0.09328  0.86096  0.22844  1.0000
  C   C631      1.0  0.07966  0.85827  0.24800  1.0000
  C   C632      1.0  0.08438  0.84051  0.26270  1.0000
  C   C633      1.0  0.10252  0.82562  0.25787  1.0000
  H   H1126     1.0  0.12118  0.84769  0.20812  1.0000
  H   H1127     1.0  0.08964  0.87456  0.21690  1.0000
  H   H1128     1.0  0.07413  0.83833  0.27786  1.0000
  H   H1129     1.0  0.10614  0.81203  0.26943  1.0000
  H   H1130     1.0  0.15224  0.85447  0.25735  1.0000
  C   C634      1.0  0.13616  0.75669  0.08897  1.0000
  H   H1131     1.0  0.27549  0.76628  0.32594  1.0000
  S   S151      1.0  0.15072  0.77682  0.12720  1.0000
  H   H1132     1.0  0.38890  0.95068  0.21432  1.0000
  H   H1133     1.0  0.37209  0.95549  0.10438  1.0000
  C   C635      1.0  0.11917  0.92948  0.24702  1.0000
  H   H1134     1.0  0.12566  0.88613  0.19259  1.0000
  H   H1135     1.0  0.03419  0.82959  0.40158  1.0000
  S   S152      1.0  0.01128  0.84424  0.29205  1.0000
  C   C636      1.0  0.47793  0.90126  0.32921  1.0000
  H   H1136     1.0  0.14723  0.86845  0.18034  1.0000
  H   H1137     1.0  0.19980  0.89547  0.05562  1.0000
  S   S153      1.0  0.46323  0.75082  0.34161  1.0000
  H   H1138     1.0  0.04304  0.76551  0.43262  1.0000
  C   C637      1.0  0.19588  0.93207  0.19477  1.0000
  C   C638      1.0  0.42195  0.93710  0.20769  1.0000
  H   H1139     1.0  0.05782  0.81998  0.18867  1.0000
  H   H1140     1.0  0.38767  0.93080  0.09593  1.0000
  C   C639      1.0  0.16718  0.87938  0.21913  1.0000
  C   C640      1.0  0.17876  0.77960  0.02594  1.0000
  H   H1141     1.0  0.08947  0.80114  0.16846  1.0000
  H   H1142     1.0  0.37566  0.81340  0.30617  1.0000
  H   H1143     1.0  0.00738  0.82804  0.22421  1.0000
  C   C641      1.0  0.31351  0.77885  0.25997  1.0000
  H   H1144     1.0  0.11845  0.94638  0.23922  1.0000
  N   N34       1.0  0.03802  0.80833  0.21766  1.0000
  H   H1145     1.0  0.17903  0.85334  0.27088  1.0000
  H   H1146     1.0  0.22387  0.95320  0.18509  1.0000
  H   H1147     1.0  0.27133  0.79181  0.24333  1.0000
  N   N35       1.0  0.32873  0.77010  0.27819  1.0000
  C   C642      1.0  0.04318  0.79803  0.24033  1.0000
  H   H1148     1.0  0.04025  0.77134  0.27925  1.0000
  H   H1149     1.0  0.10168  0.92455  0.25166  1.0000
  H   H1150     1.0  0.38062  0.76197  0.35212  1.0000
  H   H1151     1.0  0.11582  0.74496  0.42354  1.0000
  H   H1152     1.0  0.06722  0.80595  0.36354  1.0000
  H   H1153     1.0  0.06597  0.77731  0.19367  1.0000
  H   H1154     1.0  0.37092  0.75982  0.25444  1.0000
  C   C643      1.0  0.06700  0.78947  0.46321  1.0000
  Fe  Fe80      1.0  0.00659  0.86163  0.32530  1.0000
  H   H1155     1.0  0.04036  0.80031  0.28723  1.0000
  H   H1156     1.0  0.17680  0.86768  0.20785  1.0000
  H   H1157     1.0  0.35843  0.92878  0.10454  1.0000
  H   H1158     1.0  0.19658  0.77673  0.02034  1.0000
  S   S154      1.0  0.26931  0.98473  0.10320  1.0000
  H   H1159     1.0  0.23152  0.92424  0.18833  1.0000
  H   H1160     1.0  0.09050  0.78642  0.35971  1.0000
  H   H1161     1.0  0.12898  0.92991  0.26266  1.0000
  H   H1162     1.0  0.05481  0.76802  0.37213  1.0000
  H   H1163     1.0  0.05321  0.78483  0.39675  1.0000
  C   C644      1.0  0.00726  0.82503  0.37858  1.0000
  H   H1164     1.0  0.43049  0.92269  0.19933  1.0000
  C   C645      1.0  0.17728  0.87693  0.24291  1.0000
  C   C646      1.0  0.06026  0.81188  0.20530  1.0000
  H   H1165     1.0  0.22497  0.87834  0.05800  1.0000
  H   H1166     1.0  0.15233  0.93538  0.21439  1.0000
  C   C647      1.0  0.17078  0.85500  0.25437  1.0000
  H   H1167     1.0  0.19139  0.93106  0.17681  1.0000
  C   C648      1.0  0.19146  0.90971  0.20743  1.0000
  H   H1168     1.0  0.03307  0.83840  0.47567  1.0000
  H   H1169     1.0  0.28359  0.74593  0.21321  1.0000
  S   S155      1.0  0.48367  0.86339  0.35567  1.0000
  H   H1170     1.0  0.02028  0.95920  0.28812  1.0000
  C   C649      1.0  0.23238  0.74730  0.24001  1.0000
  H   H1171     1.0  0.32688  0.75795  0.31259  1.0000
  C   C650      1.0  0.15395  0.75829  0.10405  1.0000
  C   C651      1.0  0.43499  0.80103  0.47574  1.0000
  S   S156      1.0  0.01768  0.76672  0.48694  1.0000
  C   C652      1.0  0.01919  0.82036  0.39839  1.0000
  H   H1172     1.0  0.49447  0.95168  0.37563  1.0000
  H   H1173     1.0  0.15196  0.91945  0.18035  1.0000
  H   H1174     1.0  0.01509  0.78452  0.29109  1.0000
  H   H1175     1.0  0.19599  0.87723  0.24158  1.0000
  H   H1176     1.0  0.09491  0.76768  0.40372  1.0000
  H   H1177     1.0  0.28299  0.75707  0.28588  1.0000
  H   H1178     1.0  0.30320  0.95315  0.00312  1.0000
  N   N36       1.0  0.36662  0.93517  0.17323  1.0000
  C   C653      1.0  0.36372  0.94262  0.14910  1.0000
  C   C654      1.0  0.35153  0.94933  0.18837  1.0000
  C   C655      1.0  0.39072  0.93959  0.17924  1.0000
  C   C656      1.0  0.36208  0.91069  0.17695  1.0000
  C   C657      1.0  0.34405  0.90026  0.16202  1.0000
  H   H1179     1.0  0.00654  0.79137  0.21450  1.0000
  H   H1180     1.0  0.43926  0.78575  0.46606  1.0000
  C   C658      1.0  0.32601  0.94952  0.18386  1.0000
  C   C659      1.0  0.39404  0.75140  0.34531  1.0000
  C   C660      1.0  0.33750  0.87719  0.17076  1.0000
  H   H1181     1.0  0.01218  0.78040  0.25004  1.0000
  H   H1182     1.0  0.20850  0.88582  0.08295  1.0000
  C   C661      1.0  0.03012  0.78710  0.27990  1.0000
  H   H1183     1.0  0.34679  0.93873  0.14300  1.0000
  H   H1184     1.0  0.35303  0.94394  0.20625  1.0000
  H   H1185     1.0  0.35706  0.96688  0.18746  1.0000
  H   H1186     1.0  0.45804  0.96808  0.30916  1.0000
  C   C662      1.0  0.15826  0.90252  0.18530  1.0000
  H   H1187     1.0  0.37774  0.90045  0.17406  1.0000
  H   H1188     1.0  0.35717  0.90746  0.19489  1.0000
  H   H1189     1.0  0.35076  0.89834  0.14453  1.0000
  H   H1190     1.0  0.32844  0.91055  0.16107  1.0000
  C   C663      1.0  0.30169  0.98623  0.01668  1.0000
  H   H1191     1.0  0.00767  0.86367  0.45761  1.0000
  C   C664      1.0  0.22079  0.93794  0.19538  1.0000
  H   H1192     1.0  0.05521  0.80859  0.24921  1.0000
  H   H1193     1.0  0.32257  0.95427  0.16621  1.0000
  H   H1194     1.0  0.31890  0.93299  0.18789  1.0000
  H   H1195     1.0  0.02691  0.84325  0.18640  1.0000
  H   H1196     1.0  0.14996  0.87270  0.22017  1.0000
  C   C665      1.0  0.13020  0.88982  0.15689  1.0000
  H   H1197     1.0  0.32959  0.87835  0.18786  1.0000
  H   H1198     1.0  0.32505  0.87004  0.15941  1.0000
  H   H1199     1.0  0.35253  0.86585  0.17128  1.0000
  C   C666      1.0  0.06505  0.77639  0.38477  1.0000
  H   H1200     1.0  0.07788  0.80363  0.46714  1.0000
  H   H1201     1.0  0.22435  0.76352  0.10440  1.0000
  H   H1202     1.0  0.35781  0.77735  0.31610  1.0000
  S   S157      1.0  0.47002  0.98774  0.26544  1.0000
  H   H1203     1.0  0.18604  0.94600  0.20251  1.0000
  H   H1204     1.0  0.03548  0.74826  0.40035  1.0000
  H   H1205     1.0  0.16988  0.76355  0.02498  1.0000
  H   H1206     1.0  0.20212  0.89663  0.19886  1.0000
  H   H1207     1.0  0.19840  0.91137  0.22451  1.0000
  H   H1208     1.0  0.05173  0.78149  0.23843  1.0000
  N   N37       1.0  0.19067  0.81928  0.07575  1.0000
  C   C667      1.0  0.20415  0.84030  0.07506  1.0000
  C   C668      1.0  0.20226  0.80269  0.09110  1.0000
  C   C669      1.0  0.18929  0.81053  0.05220  1.0000
  C   C670      1.0  0.16702  0.82356  0.08484  1.0000
  C   C671      1.0  0.16502  0.83572  0.10764  1.0000
  C   C672      1.0  0.19343  0.86052  0.06245  1.0000
  C   C673      1.0  0.17751  0.78784  0.05013  1.0000
  C   C674      1.0  0.22519  0.79284  0.08229  1.0000
  C   C675      1.0  0.01191  0.80393  0.41409  1.0000
  C   C676      1.0  0.14030  0.83954  0.11466  1.0000
  C   C677      1.0  0.20760  0.88125  0.06494  1.0000
  H   H1209     1.0  0.01157  0.80909  0.25808  1.0000
  H   H1210     1.0  0.22090  0.83719  0.06675  1.0000
  H   H1211     1.0  0.20803  0.84556  0.09243  1.0000
  H   H1212     1.0  0.20552  0.81051  0.10747  1.0000
  H   H1213     1.0  0.19107  0.78859  0.09546  1.0000
  H   H1214     1.0  0.20638  0.80918  0.04409  1.0000
  H   H1215     1.0  0.17974  0.82251  0.04144  1.0000
  H   H1216     1.0  0.15677  0.83300  0.07235  1.0000
  H   H1217     1.0  0.15816  0.80754  0.08745  1.0000
  H   H1218     1.0  0.17301  0.85222  0.10685  1.0000
  H   H1219     1.0  0.17318  0.82561  0.12101  1.0000
  H   H1220     1.0  0.19243  0.85708  0.04422  1.0000
  H   H1221     1.0  0.17624  0.86465  0.06906  1.0000
  H   H1222     1.0  0.15940  0.78939  0.05515  1.0000
  H   H1223     1.0  0.18541  0.77480  0.06083  1.0000
  H   H1224     1.0  0.22582  0.94101  0.21290  1.0000
  H   H1225     1.0  0.23734  0.80617  0.07836  1.0000
  H   H1226     1.0  0.45028  0.81132  0.47647  1.0000
  H   H1227     1.0  0.08789  0.74791  0.38374  1.0000
  H   H1228     1.0  0.47525  0.95490  0.34444  1.0000
  H   H1229     1.0  0.13161  0.82340  0.11661  1.0000
  H   H1230     1.0  0.13928  0.84809  0.13105  1.0000
  H   H1231     1.0  0.13151  0.85011  0.10201  1.0000
  H   H1232     1.0  0.16328  0.92286  0.23876  1.0000
  H   H1233     1.0  0.04659  0.85565  0.20455  1.0000
  S   S158      1.0  0.01732  0.84619  0.35955  1.0000
  H   H1234     1.0  0.00731  0.86871  0.40898  1.0000
  C   C678      1.0  0.02585  0.83047  0.22170  1.0000
  C   C679      1.0  0.28229  0.74961  0.32114  1.0000
  C   C680      1.0  0.48254  0.91592  0.31091  1.0000
  H   H1235     1.0  0.31548  0.96210  0.21686  1.0000
  C   C681      1.0  0.31576  0.76608  0.29997  1.0000
  C   C682      1.0  0.01011  0.97310  0.29427  1.0000
  C   C683      1.0  0.34649  0.78705  0.28224  1.0000
  C   C684      1.0  0.36511  0.77974  0.29889  1.0000
  H   H1236     1.0  0.07039  0.82373  0.21479  1.0000
  C   C685      1.0  0.29835  0.79937  0.26606  1.0000
  C   C686      1.0  0.07486  0.77919  0.44095  1.0000
  H   H1237     1.0  0.42555  0.93623  0.22592  1.0000
  C   C687      1.0  0.38317  0.79736  0.30024  1.0000
  H   H1238     1.0  0.27240  0.82057  0.25120  1.0000
  C   C688      1.0  0.28285  0.80565  0.24671  1.0000
  H   H1239     1.0  0.32364  0.78374  0.24477  1.0000
  C   C689      1.0  0.13981  0.88558  0.18018  1.0000
  H   H1240     1.0  0.10646  0.78096  0.18346  1.0000
  H   H1241     1.0  0.31022  0.78211  0.30770  1.0000
  Fe  Fe81      1.0  0.49389  0.82719  0.36526  1.0000
  S   S159      1.0  0.30399  0.97619  0.04515  1.0000
  H   H1242     1.0  0.35476  0.79235  0.26607  1.0000
  H   H1243     1.0  0.33857  0.80252  0.28919  1.0000
  C   C690      1.0  0.09540  0.79603  0.18536  1.0000
  C   C691      1.0  0.31330  0.96635  0.19880  1.0000
  S   S160      1.0  0.24384  0.77075  0.20061  1.0000
  H   H1244     1.0  0.36438  0.96104  0.14784  1.0000
  H   H1245     1.0  0.30878  0.81398  0.26946  1.0000
  H   H1246     1.0  0.28738  0.79606  0.28105  1.0000
  C   C692      1.0  0.07545  0.79086  0.20127  1.0000
  C   C693      1.0  0.00464  0.78041  0.17000  1.0000
  H   H1247     1.0  0.39613  0.79172  0.31236  1.0000
  C   C694      1.0  0.15396  0.91907  0.22333  1.0000
  H   H1248     1.0  0.07338  0.79244  0.42785  1.0000
  H   H1249     1.0  0.01558  0.88177  0.19456  1.0000
  C   C695      1.0  0.07880  0.79416  0.37238  1.0000
  H   H1250     1.0  0.29504  0.96609  0.19516  1.0000
  C   C696      1.0  0.08034  0.75895  0.39698  1.0000
  H   H1251     1.0  0.21573  0.75483  0.23872  1.0000
  H   H1252     1.0  0.17050  0.79179  0.01441  1.0000
  H   H1253     1.0  0.37372  0.76397  0.29382  1.0000
  H   H1254     1.0  0.04938  0.79589  0.46203  1.0000
  C   C697      1.0  0.33916  0.74829  0.27053  1.0000
  C   C698      1.0  0.47833  0.97227  0.33877  1.0000
  N   N38       1.0  0.06854  0.74521  0.41500  1.0000
  H   H1255     1.0  0.39783  0.94178  0.13389  1.0000
  C   C699      1.0  0.49001  0.88093  0.33179  1.0000
  C   C700      1.0  0.02094  0.83742  0.49020  1.0000
  C   C701      1.0  0.99912  0.82602  0.48282  1.0000
  C   C702      1.0  0.41669  0.75739  0.34803  1.0000
  C   C703      1.0  0.02924  0.84916  0.20367  1.0000
  C   C704      1.0  0.02318  0.79263  0.20554  1.0000
  H   H1256     1.0  0.03327  0.80134  0.17047  1.0000
  H   H1257     1.0  0.03131  0.83795  0.23770  1.0000
  C   C705      1.0  0.45895  0.97936  0.32369  1.0000
  C   C706      1.0  0.01279  0.86870  0.20765  1.0000
  H   H1258     1.0  0.12076  0.76628  0.09198  1.0000
  H   H1259     1.0  0.00694  0.81410  0.18041  1.0000
  H   H1260     1.0  0.01556  0.87609  0.22431  1.0000
  H   H1261     1.0  0.42904  0.95277  0.20066  1.0000
  H   H1262     1.0  0.09294  0.77473  0.44229  1.0000
  Fe  Fe82      1.0  0.30134  0.98816  0.08212  1.0000
  C   C707      1.0  0.37441  0.93734  0.10774  1.0000
  C   C708      1.0  0.38156  0.93326  0.13197  1.0000
  C   C709      1.0  0.01777  0.79883  0.18091  1.0000
  H   H1263     1.0  0.39529  0.95689  0.17415  1.0000
  H   H1264     1.0  0.44273  0.97858  0.33338  1.0000
  H   H1265     1.0  0.00425  0.89215  0.42775  1.0000
  H   H1266     1.0  0.00468  0.83938  0.44154  1.0000
  H   H1267     1.0  0.18743  0.74648  0.11147  1.0000
  C   C710      1.0  0.30208  0.97074  0.99906  1.0000
  H   H1268     1.0  0.05905  0.74797  0.45033  1.0000
  C   C711      1.0  0.35624  0.74967  0.25036  1.0000
  C   C712      1.0  0.06049  0.75883  0.43502  1.0000
  H   H1269     1.0  0.23969  0.78661  0.11520  1.0000
  H   H1270     1.0  0.47744  0.98335  0.35348  1.0000
  H   H1271     1.0  0.00449  0.81204  0.47164  1.0000
  H   H1272     1.0  0.01482  0.76467  0.16947  1.0000
  C   C713      1.0  0.17371  0.74569  0.09993  1.0000
  H   H1273     1.0  0.34816  0.75704  0.23530  1.0000
  C   C714      1.0  0.03534  0.94687  0.63380  1.0000
  H   H1274     1.0  0.08513  0.99124  0.74293  1.0000
  C   C715      1.0  0.08754  0.78745  0.65849  1.0000
  C   C716      1.0  0.05072  0.79763  0.71219  1.0000
  H   H1275     1.0  0.31906  0.94256  0.93455  1.0000
  H   H1276     1.0  0.36259  0.96536  0.92211  1.0000
  H   H1277     1.0  0.19240  0.96538  0.89212  1.0000
  C   C717      1.0  0.00974  0.82686  0.60388  1.0000
  H   H1278     1.0  0.40306  0.76917  0.53149  1.0000
  H   H1279     1.0  0.43639  0.83060  0.57928  1.0000
  C   C718      1.0  0.07956  0.78406  0.85115  1.0000
  C   C719      1.0  0.41845  0.75994  0.53704  1.0000
  Fe  Fe83      1.0  0.03239  0.87183  0.70343  1.0000
  S   S161      1.0  0.06835  0.87209  0.71685  1.0000
  S   S162      1.0  0.02894  0.88925  0.66982  1.0000
  Fe  Fe84      1.0  0.48287  0.77286  0.61226  1.0000
  C   C720      1.0  0.41242  0.74928  0.56035  1.0000
  S   S163      1.0  0.47806  0.80931  0.60361  1.0000
  H   H1280     1.0  0.05789  0.92985  0.67127  1.0000
  Fe  Fe85      1.0  0.47773  0.98069  0.76031  1.0000
  H   H1281     1.0  0.02116  0.82368  0.52437  1.0000
  C   C721      1.0  0.43204  0.79564  0.54980  1.0000
  H   H1282     1.0  0.20870  0.97569  0.81009  1.0000
  H   H1283     1.0  0.05299  0.91394  0.63291  1.0000
  Fe  Fe86      1.0  0.29309  0.96168  0.86980  1.0000
  S   S164      1.0  0.28246  0.92508  0.86961  1.0000
  S   S165      1.0  0.32381  0.97060  0.88942  1.0000
  Fe  Fe87      1.0  0.18790  0.79463  0.83525  1.0000
  S   S166      1.0  0.22030  0.80801  0.82033  1.0000
  S   S167      1.0  0.18789  0.78202  0.87195  1.0000
  Fe  Fe88      1.0  0.16113  0.80940  0.79411  1.0000
  S   S168      1.0  0.19149  0.82376  0.77631  1.0000
  S   S169      1.0  0.12445  0.80757  0.78281  1.0000
  Fe  Fe89      1.0  0.21055  0.79283  0.78765  1.0000
  S   S170      1.0  0.24122  0.78048  0.76649  1.0000
  Fe  Fe90      1.0  0.20021  0.83818  0.80979  1.0000
  S   S171      1.0  0.21352  0.87384  0.80852  1.0000
  S   S172      1.0  0.17953  0.77711  0.80338  1.0000
  S   S173      1.0  0.16824  0.82613  0.82678  1.0000
  C   C722      1.0  0.22457  0.97152  0.84354  1.0000
  S   S174      1.0  0.02122  0.84133  0.62708  1.0000
  S   S175      1.0  0.01383  0.84213  0.69205  1.0000
  H   H1284     1.0  0.21454  0.94797  0.92529  1.0000
  H   H1285     1.0  0.47352  0.77497  0.54511  1.0000
  C   C723      1.0  0.44418  0.78101  0.51224  1.0000
  C   C724      1.0  0.26314  0.91121  0.85245  1.0000
  C   C725      1.0  0.25348  0.89130  0.86039  1.0000
  C   C726      1.0  0.23828  0.87964  0.84725  1.0000
  C   C727      1.0  0.23276  0.88760  0.82582  1.0000
  C   C728      1.0  0.24251  0.90745  0.81784  1.0000
  C   C729      1.0  0.25771  0.91908  0.83098  1.0000
  H   H1286     1.0  0.25765  0.88493  0.87691  1.0000
  H   H1287     1.0  0.23073  0.86457  0.85379  1.0000
  H   H1288     1.0  0.23845  0.91376  0.80127  1.0000
  H   H1289     1.0  0.26551  0.93398  0.82440  1.0000
  N   N39       1.0  0.43835  0.77516  0.53643  1.0000
  H   H1290     1.0  0.12214  0.76630  0.88540  1.0000
  H   H1291     1.0  0.24038  0.94767  0.87965  1.0000
  C   C730      1.0  0.07616  0.79541  0.82779  1.0000
  H   H1292     1.0  0.20101  0.94026  0.81544  1.0000
  C   C731      1.0  0.01779  0.97317  0.68520  1.0000
  H   H1293     1.0  0.04304  0.96492  0.59450  1.0000
  H   H1294     1.0  0.08592  0.78660  0.81433  1.0000
  C   C732      1.0  0.08340  0.85414  0.73567  1.0000
  C   C733      1.0  0.07302  0.83702  0.74801  1.0000
  C   C734      1.0  0.08584  0.82295  0.76228  1.0000
  C   C735      1.0  0.10909  0.82609  0.76483  1.0000
  C   C736      1.0  0.11939  0.84342  0.75276  1.0000
  C   C737      1.0  0.10665  0.85723  0.73820  1.0000
  H   H1295     1.0  0.05508  0.83475  0.74676  1.0000
  H   H1296     1.0  0.07765  0.80966  0.77155  1.0000
  H   H1297     1.0  0.13723  0.84607  0.75448  1.0000
  H   H1298     1.0  0.11488  0.87048  0.72887  1.0000
  C   C738      1.0  0.02751  0.78848  0.71845  1.0000
  C   C739      1.0  0.17277  0.76084  0.88682  1.0000
  H   H1299     1.0  0.36831  0.96938  0.81472  1.0000
  H   H1300     1.0  0.36596  0.93730  0.95505  1.0000
  H   H1301     1.0  0.46041  0.78987  0.51101  1.0000
  H   H1302     1.0  0.07542  0.83477  0.68876  1.0000
  H   H1303     1.0  0.45336  0.84804  0.56106  1.0000
  C   C740      1.0  0.06907  0.78438  0.64077  1.0000
  H   H1304     1.0  0.34344  0.92867  0.92186  1.0000
  H   H1305     1.0  0.24792  0.96338  0.80181  1.0000
  H   H1306     1.0  0.43004  0.79124  0.56799  1.0000
  S   S176      1.0  0.44331  0.97163  0.77687  1.0000
  H   H1307     1.0  0.14213  0.78370  0.70725  1.0000
  H   H1308     1.0  0.27851  0.76807  0.73725  1.0000
  C   C741      1.0  0.30093  0.97770  0.97626  1.0000
  C   C742      1.0  0.07411  0.82448  0.67348  1.0000
  C   C743      1.0  0.44029  0.83507  0.56143  1.0000
  H   H1309     1.0  0.45607  0.76173  0.56515  1.0000
  C   C744      1.0  0.38439  0.97752  0.81415  1.0000
  C   C745      1.0  0.02132  0.94977  0.57049  1.0000
  H   H1310     1.0  0.09367  0.77048  0.66355  1.0000
  H   H1311     1.0  0.33953  0.97843  0.93697  1.0000
  H   H1312     1.0  0.46510  0.80918  0.55622  1.0000
  N   N40       1.0  0.10335  0.78369  0.85954  1.0000
  C   C746      1.0  0.18534  0.98526  0.85353  1.0000
  S   S177      1.0  0.30186  0.98436  0.84044  1.0000
  C   C747      1.0  0.10960  0.80728  0.86463  1.0000
  C   C748      1.0  0.11982  0.77457  0.84204  1.0000
  S   S178      1.0  0.00126  0.88882  0.71834  1.0000
  H   H1313     1.0  0.41057  0.78566  0.49789  1.0000
  C   C749      1.0  0.13207  0.81001  0.87691  1.0000
  H   H1314     1.0  0.18117  0.98717  0.83556  1.0000
  H   H1315     1.0  0.03716  0.80740  0.50393  1.0000
  C   C750      1.0  0.10440  0.76892  0.88024  1.0000
  H   H1316     1.0  0.01164  0.91343  0.63194  1.0000
  C   C751      1.0  0.13622  0.83446  0.88178  1.0000
  H   H1317     1.0  0.06806  0.79296  0.86325  1.0000
  H   H1318     1.0  0.30104  0.96552  0.96310  1.0000
  C   C752      1.0  0.24403  0.98101  0.80602  1.0000
  H   H1319     1.0  0.17473  0.95537  0.82098  1.0000
  H   H1320     1.0  0.09596  0.81580  0.87467  1.0000
  H   H1321     1.0  0.11119  0.81724  0.84875  1.0000
  H   H1322     1.0  0.12146  0.78632  0.82748  1.0000
  H   H1323     1.0  0.13707  0.77334  0.84885  1.0000
  H   H1324     1.0  0.21671  0.93096  0.88811  1.0000
  H   H1325     1.0  0.02546  0.94392  0.64968  1.0000
  H   H1326     1.0  0.08153  0.81297  0.82777  1.0000
  H   H1327     1.0  0.40333  0.97486  0.71027  1.0000
  H   H1328     1.0  0.14631  0.80385  0.86625  1.0000
  H   H1329     1.0  0.13231  0.80083  0.89321  1.0000
  C   C753      1.0  0.42255  0.98106  0.79724  1.0000
  C   C754      1.0  0.08189  0.99216  0.72462  1.0000
  H   H1330     1.0  0.16919  0.98052  0.86211  1.0000
  H   H1331     1.0  0.43000  0.77028  0.64436  1.0000
  H   H1332     1.0  0.04953  0.81604  0.71225  1.0000
  H   H1333     1.0  0.07197  0.77678  0.89742  1.0000
  C   C755      1.0  0.20828  0.96656  0.88177  1.0000
  C   C756      1.0  0.45873  0.76401  0.54671  1.0000
  H   H1334     1.0  0.39635  0.95788  0.94365  1.0000
  N   N41       1.0  0.02044  0.94384  0.61390  1.0000
  H   H1335     1.0  0.99930  0.88227  0.59085  1.0000
  H   H1336     1.0  0.15282  0.83590  0.88978  1.0000
  H   H1337     1.0  0.13650  0.84451  0.86595  1.0000
  H   H1338     1.0  0.12292  0.84122  0.89343  1.0000
  H   H1339     1.0  0.01741  0.85464  0.49600  1.0000
  H   H1340     1.0  0.02769  0.79192  0.56133  1.0000
  H   H1341     1.0  0.39807  0.95759  0.78682  1.0000
  H   H1342     1.0  0.15673  0.92120  0.83451  1.0000
  H   H1343     1.0  0.09276  0.80769  0.71193  1.0000
  C   C757      1.0  0.12130  0.80870  0.69001  1.0000
  H   H1344     1.0  0.09271  0.86842  0.63872  1.0000
  C   C758      1.0  0.05692  0.93178  0.63456  1.0000
  C   C759      1.0  0.17126  0.76146  0.91049  1.0000
  H   H1345     1.0  0.02171  0.79516  0.73500  1.0000
  C   C760      1.0  0.39957  0.75153  0.65023  1.0000
  C   C761      1.0  0.06903  0.93450  0.65672  1.0000
  H   H1346     1.0  0.04536  0.77810  0.82033  1.0000
  H   H1347     1.0  0.08496  0.86916  0.66822  1.0000
  C   C762      1.0  0.24622  0.75656  0.74946  1.0000
  H   H1348     1.0  0.23748  0.96615  0.91773  1.0000
  H   H1349     1.0  0.23589  0.98238  0.85295  1.0000
  H   H1350     1.0  0.02833  0.77002  0.71971  1.0000
  C   C763      1.0  0.42630  0.79509  0.49947  1.0000
  N   N42       1.0  0.20309  0.96723  0.85697  1.0000
  H   H1351     1.0  0.35567  0.98021  0.98304  1.0000
  H   H1352     1.0  0.09465  0.79390  0.90597  1.0000
  C   C764      1.0  0.05932  0.78927  0.68888  1.0000
  C   C765      1.0  0.22213  0.98285  0.82001  1.0000
  H   H1353     1.0  0.44712  0.76565  0.50226  1.0000
  H   H1354     1.0  0.06897  0.93639  0.62078  1.0000
  H   H1355     1.0  0.06229  0.79194  0.72559  1.0000
  H   H1356     1.0  0.04183  0.81172  0.59446  1.0000
  C   C766      1.0  0.13893  0.80199  0.70730  1.0000
  S   S179      1.0  0.27092  0.98720  0.88749  1.0000
  H   H1357     1.0  0.05744  0.77109  0.64653  1.0000
  H   H1358     1.0  0.40855  0.76220  0.57310  1.0000
  H   H1359     1.0  0.02941  0.95941  0.68826  1.0000
  H   H1360     1.0  0.05881  0.79986  0.63826  1.0000
  C   C767      1.0  0.02424  0.81341  0.59032  1.0000
  C   C768      1.0  0.07929  0.77749  0.61800  1.0000
  H   H1361     1.0  0.13325  0.80700  0.72448  1.0000
  H   H1362     1.0  0.10089  0.78096  0.70153  1.0000
  H   H1363     1.0  0.06556  0.77465  0.60608  1.0000
  H   H1364     1.0  0.23437  0.95575  0.84143  1.0000
  N   N43       1.0  0.28949  0.83948  0.79796  1.0000
  C   C769      1.0  0.30803  0.83003  0.78282  1.0000
  C   C770      1.0  0.29615  0.86211  0.80600  1.0000
  C   C771      1.0  0.28768  0.82427  0.81842  1.0000
  C   C772      1.0  0.26691  0.84072  0.78670  1.0000
  C   C773      1.0  0.26714  0.84572  0.76095  1.0000
  C   C774      1.0  0.30539  0.80523  0.77643  1.0000
  C   C775      1.0  0.27214  0.83265  0.83804  1.0000
  C   C776      1.0  0.29967  0.88058  0.78792  1.0000
  C   C777      1.0  0.31079  0.90079  0.79791  1.0000
  C   C778      1.0  0.24328  0.84872  0.75228  1.0000
  C   C779      1.0  0.26847  0.81446  0.85593  1.0000
  H   H1365     1.0  0.32465  0.83132  0.79097  1.0000
  H   H1366     1.0  0.30984  0.83992  0.76703  1.0000
  H   H1367     1.0  0.28294  0.86924  0.81758  1.0000
  H   H1368     1.0  0.31179  0.86042  0.81595  1.0000
  H   H1369     1.0  0.30467  0.82093  0.82549  1.0000
  H   H1370     1.0  0.28121  0.80778  0.81363  1.0000
  H   H1371     1.0  0.25784  0.82476  0.78897  1.0000
  H   H1372     1.0  0.25574  0.85340  0.79504  1.0000
  H   H1373     1.0  0.27510  0.83169  0.75152  1.0000
  H   H1374     1.0  0.27650  0.86087  0.75643  1.0000
  H   H1375     1.0  0.31045  0.79423  0.79070  1.0000
  H   H1376     1.0  0.28768  0.80152  0.77259  1.0000
  H   H1377     1.0  0.25552  0.83818  0.83173  1.0000
  H   H1378     1.0  0.27983  0.84679  0.84664  1.0000
  H   H1379     1.0  0.31057  0.87499  0.77362  1.0000
  H   H1380     1.0  0.28304  0.88635  0.78164  1.0000
  H   H1381     1.0  0.32815  0.89640  0.80325  1.0000
  H   H1382     1.0  0.31181  0.91439  0.78509  1.0000
  H   H1383     1.0  0.30086  0.90707  0.81268  1.0000
  H   H1384     1.0  0.23418  0.83284  0.75418  1.0000
  H   H1385     1.0  0.23386  0.86205  0.76156  1.0000
  H   H1386     1.0  0.24398  0.85333  0.73414  1.0000
  H   H1387     1.0  0.31501  0.80868  0.74093  1.0000
  H   H1388     1.0  0.28471  0.80946  0.86359  1.0000
  H   H1389     1.0  0.25682  0.82086  0.86939  1.0000
  H   H1390     1.0  0.26084  0.79960  0.84858  1.0000
  H   H1391     1.0  0.25824  0.98785  0.81531  1.0000
  H   H1392     1.0  0.04131  0.96424  0.63455  1.0000
  H   H1393     1.0  0.33826  0.80217  0.75927  1.0000
  H   H1394     1.0  0.11984  0.82717  0.69003  1.0000
  H   H1395     1.0  0.04492  0.79144  0.67735  1.0000
  H   H1396     1.0  0.12787  0.80308  0.67340  1.0000
  C   C780      1.0  0.08204  0.86063  0.65213  1.0000
  C   C781      1.0  0.32028  0.79898  0.75603  1.0000
  C   C782      1.0  0.09022  0.77687  0.90101  1.0000
  H   H1397     1.0  0.42487  0.84211  0.55358  1.0000
  C   C783      1.0  0.35606  0.96972  0.93929  1.0000
  H   H1398     1.0  0.10631  0.83414  0.65643  1.0000
  H   H1399     1.0  0.04079  0.80468  0.83397  1.0000
  H   H1400     1.0  0.15504  0.81037  0.70316  1.0000
  H   H1401     1.0  0.18309  0.90572  0.83159  1.0000
  C   C784      1.0  0.09815  0.79873  0.69639  1.0000
  H   H1402     1.0  0.09844  0.75198  0.87654  1.0000
  H   H1403     1.0  0.02593  0.90888  0.60585  1.0000
  N   N44       1.0  0.08003  0.80043  0.67900  1.0000
  H   H1404     1.0  0.09011  0.79084  0.61088  1.0000
  C   C785      1.0  0.39314  0.97115  0.95635  1.0000
  H   H1405     1.0  0.41529  0.80252  0.54486  1.0000
  H   H1406     1.0  0.09230  0.97902  0.71612  1.0000
  H   H1407     1.0  0.06413  0.86294  0.64755  1.0000
  H   H1408     1.0  0.04942  0.80370  0.80473  1.0000
  H   H1409     1.0  0.05615  0.82633  0.66863  1.0000
  H   H1410     1.0  0.10228  0.79511  0.64987  1.0000
  Fe  Fe91      1.0  0.00862  0.86003  0.65908  1.0000
  H   H1411     1.0  0.45292  0.82029  0.53100  1.0000
  H   H1412     1.0  0.06242  0.77095  0.69063  1.0000
  H   H1413     1.0  0.16960  0.91693  0.80704  1.0000
  H   H1414     1.0  0.24238  0.93652  0.91929  1.0000
  H   H1415     1.0  0.33088  0.91790  0.94760  1.0000
  C   C786      1.0  0.22997  0.94978  0.91451  1.0000
  H   H1416     1.0  0.39035  0.96228  0.97276  1.0000
  H   H1417     1.0  0.07292  0.76690  0.85058  1.0000
  H   H1418     1.0  0.08428  0.92344  0.65698  1.0000
  S   S180      1.0  0.47728  0.98945  0.72322  1.0000
  H   H1419     1.0  0.21627  0.98230  0.88671  1.0000
  C   C787      1.0  0.19360  0.94492  0.85129  1.0000
  C   C788      1.0  0.40136  0.97087  0.79830  1.0000
  H   H1420     1.0  0.08331  0.76689  0.93576  1.0000
  C   C789      1.0  0.44916  0.81474  0.54853  1.0000
  H   H1421     1.0  0.01492  0.79360  0.70578  1.0000
  C   C790      1.0  0.22441  0.94749  0.88969  1.0000
  C   C791      1.0  0.18597  0.94168  0.82689  1.0000
  C   C792      1.0  0.17305  0.92008  0.82497  1.0000
  H   H1422     1.0  0.08422  0.82840  0.63769  1.0000
  H   H1423     1.0  0.31852  0.78101  0.75248  1.0000
  H   H1424     1.0  0.17914  0.77481  0.91917  1.0000
  H   H1425     1.0  0.42215  0.81094  0.50812  1.0000
  H   H1426     1.0  0.04247  0.97465  0.55384  1.0000
  H   H1427     1.0  0.20642  0.93137  0.85379  1.0000
  H   H1428     1.0  0.17913  0.94111  0.86295  1.0000
  H   H1429     1.0  0.07428  0.95198  0.65865  1.0000
  C   C793      1.0  0.05138  0.79542  0.82142  1.0000
  C   C794      1.0  0.08796  0.83583  0.65411  1.0000
  C   C795      1.0  0.01625  0.80212  0.57144  1.0000
  H   H1430     1.0  0.34186  0.95071  0.96828  1.0000
  C   C796      1.0  0.33505  0.93336  0.93808  1.0000
  H   H1431     1.0  0.06384  0.98878  0.72196  1.0000
  C   C797      1.0  0.35056  0.94753  0.95188  1.0000
  H   H1432     1.0  0.39291  0.76270  0.66301  1.0000
  C   C798      1.0  0.26658  0.75475  0.73681  1.0000
  H   H1433     1.0  0.43671  0.95310  0.95759  1.0000
  H   H1434     1.0  0.45042  0.97760  0.96710  1.0000
  H   H1435     1.0  0.42677  0.97459  0.72885  1.0000
  H   H1436     1.0  0.42973  0.96426  0.98512  1.0000
  H   H1437     1.0  0.04783  0.93617  0.59039  1.0000
  C   C799      1.0  0.43425  0.96862  0.96737  1.0000
  H   H1438     1.0  0.08946  0.76184  0.61973  1.0000
  H   H1439     1.0  0.01312  0.98838  0.63443  1.0000
  C   C800      1.0  0.42063  0.75590  0.63967  1.0000
  H   H1440     1.0  0.04806  0.83309  0.51380  1.0000
  N   N45       1.0  0.37232  0.98483  0.95049  1.0000
  H   H1441     1.0  0.13012  0.75683  0.79990  1.0000
  H   H1442     1.0  0.15866  0.74576  0.94124  1.0000
  C   C801      1.0  0.41585  0.98348  0.95712  1.0000
  C   C802      1.0  0.09416  0.76144  0.92128  1.0000
  H   H1443     1.0  0.11203  0.76190  0.92634  1.0000
  C   C803      1.0  0.03248  0.82454  0.50921  1.0000
  C   C804      1.0  0.03414  0.94894  0.59280  1.0000
  H   H1444     1.0  0.05158  0.94609  0.54903  1.0000
  C   C805      1.0  0.00537  0.98465  0.61816  1.0000
  C   C806      1.0  0.00029  0.95946  0.61679  1.0000
  H   H1445     1.0  0.42098  0.74631  0.52468  1.0000
  C   C807      1.0  0.41702  0.98506  0.71681  1.0000
  H   H1446     1.0  0.42159  0.98807  0.93975  1.0000
  H   H1447     1.0  0.37687  0.74473  0.55357  1.0000
  C   C808      1.0  0.01300  0.91984  0.61429  1.0000
  C   C809      1.0  0.03667  0.95748  0.55098  1.0000
  S   S181      1.0  0.45640  0.74562  0.60993  1.0000
  H   H1448     1.0  0.01685  0.99011  0.60427  1.0000
  H   H1449     1.0  0.02725  0.95754  0.53508  1.0000
  C   C810      1.0  0.11458  0.75111  0.83309  1.0000
  Fe  Fe92      1.0  0.99680  0.90457  0.68394  1.0000
  H   H1450     1.0  0.09732  0.75047  0.82651  1.0000
  H   H1451     1.0  0.01566  0.93290  0.56634  1.0000
  H   H1452     1.0  0.24229  0.99071  0.79010  1.0000
  H   H1453     1.0  0.42828  0.99001  0.70246  1.0000
  H   H1454     1.0  0.00664  0.96149  0.57125  1.0000
  C   C811      1.0  0.15968  0.74497  0.92308  1.0000
  C   C812      1.0  0.36067  0.99394  0.97135  1.0000
  C   C813      1.0  0.13084  0.74442  0.81393  1.0000
  H   H1455     1.0  0.90909  0.04523  0.22910  1.0000
  Fe  Fe93      1.0  0.70385  0.02172  0.11439  1.0000
  S   S182      1.0  0.71345  0.05848  0.11557  1.0000
  S   S183      1.0  0.67517  0.01477  0.09141  1.0000
  Fe  Fe94      1.0  0.96693  0.11414  0.28719  1.0000
  S   S184      1.0  0.97571  0.09389  0.31845  1.0000
  S   S185      1.0  0.92968  0.11571  0.27713  1.0000
  Fe  Fe95      1.0  0.80606  0.14105  0.16510  1.0000
  S   S186      1.0  0.78388  0.17072  0.15765  1.0000
  S   S187      1.0  0.79694  0.10445  0.16100  1.0000
  Fe  Fe96      1.0  0.84224  0.16990  0.18614  1.0000
  S   S188      1.0  0.82208  0.20175  0.17983  1.0000
  S   S189      1.0  0.87646  0.17319  0.20286  1.0000
  Fe  Fe97      1.0  0.79188  0.18271  0.19214  1.0000
  S   S190      1.0  0.76343  0.19139  0.21756  1.0000
  Fe  Fe98      1.0  0.81581  0.18765  0.14567  1.0000
  S   S191      1.0  0.81268  0.20807  0.11290  1.0000
  S   S192      1.0  0.81246  0.15184  0.20047  1.0000
  S   S193      1.0  0.83773  0.15696  0.15101  1.0000
  H   H1456     1.0  0.72398  0.08888  0.99578  1.0000
  H   H1457     1.0  0.87664  0.16678  0.04265  1.0000
  H   H1458     1.0  0.88670  0.22948  0.01813  1.0000
  H   H1459     1.0  0.96403  0.15942  0.43702  1.0000
  H   H1460     1.0  0.92245  0.09442  0.22531  1.0000
  H   H1461     1.0  0.51805  0.12971  0.45585  1.0000
  Fe  Fe99      1.0  0.51622  0.21101  0.37103  1.0000
  H   H1462     1.0  0.82397  0.17506  0.00848  1.0000
  S   S194      1.0  0.52474  0.17665  0.38456  1.0000
  C   C814      1.0  0.82734  0.23488  0.07787  1.0000
  C   C815      1.0  0.70353  0.14978  0.25105  1.0000
  H   H1463     1.0  0.53734  0.02931  0.37577  1.0000
  C   C816      1.0  0.51302  0.19239  0.47552  1.0000
  C   C817      1.0  0.58030  0.22522  0.34645  1.0000
  H   H1464     1.0  0.94141  0.20409  0.44965  1.0000
  H   H1465     1.0  0.91179  0.06371  0.25239  1.0000
  H   H1466     1.0  0.98299  0.20976  0.37760  1.0000
  C   C818      1.0  0.56743  0.24348  0.35416  1.0000
  H   H1467     1.0  0.84897  0.23690  0.42280  1.0000
  C   C819      1.0  0.75584  0.21722  0.23042  1.0000
  H   H1468     1.0  0.54524  0.16050  0.45136  1.0000
  H   H1469     1.0  0.55291  0.11332  0.34714  1.0000
  C   C820      1.0  0.84280  0.21932  0.00878  1.0000
  C   C821      1.0  0.72290  0.16828  0.16187  1.0000
  H   H1470     1.0  0.73181  0.20208  0.25341  1.0000
  H   H1471     1.0  0.74380  0.08105  0.02939  1.0000
  C   C822      1.0  0.49756  0.17567  0.47170  1.0000
  H   H1472     1.0  0.59509  0.23507  0.28610  1.0000
  H   H1473     1.0  0.92197  0.03067  0.27043  1.0000
  C   C823      1.0  0.83364  0.22274  0.09723  1.0000
  H   H1474     1.0  0.95204  0.18082  0.48284  1.0000
  H   H1475     1.0  0.53337  0.05549  0.45849  1.0000
  H   H1476     1.0  0.54118  0.10998  0.45894  1.0000
  C   C824      1.0  0.84551  0.22085  0.24045  1.0000
  C   C825      1.0  0.51618  0.09958  0.30561  1.0000
  C   C826      1.0  0.91550  0.13142  0.25583  1.0000
  C   C827      1.0  0.92600  0.14831  0.24327  1.0000
  C   C828      1.0  0.91384  0.16071  0.22705  1.0000
  C   C829      1.0  0.89117  0.15615  0.22278  1.0000
  C   C830      1.0  0.88073  0.13907  0.23514  1.0000
  C   C831      1.0  0.89277  0.12695  0.25166  1.0000
  H   H1477     1.0  0.94342  0.15203  0.24625  1.0000
  H   H1478     1.0  0.92210  0.17391  0.21769  1.0000
  H   H1479     1.0  0.86332  0.13538  0.23217  1.0000
  H   H1480     1.0  0.88445  0.11393  0.26125  1.0000
  H   H1481     1.0  0.70935  0.13798  0.26434  1.0000
  H   H1482     1.0  0.80751  0.21046  0.00208  1.0000
  C   C832      1.0  0.73727  0.07074  0.12763  1.0000
  C   C833      1.0  0.74065  0.09371  0.12441  1.0000
  C   C834      1.0  0.75895  0.10429  0.13418  1.0000
  C   C835      1.0  0.77404  0.09201  0.14744  1.0000
  C   C836      1.0  0.77071  0.06902  0.15053  1.0000
  C   C837      1.0  0.75247  0.05843  0.14070  1.0000
  H   H1483     1.0  0.72899  0.10341  0.11435  1.0000
  H   H1484     1.0  0.76132  0.12194  0.13152  1.0000
  H   H1485     1.0  0.78228  0.05933  0.16071  1.0000
  H   H1486     1.0  0.75009  0.04078  0.14338  1.0000
  H   H1487     1.0  0.98745  0.04848  0.21807  1.0000
  S   S195      1.0  0.51167  0.13633  0.33316  1.0000
  H   H1488     1.0  0.73399  0.12172  0.01816  1.0000
  N   N46       1.0  0.72101  0.05342  0.03112  1.0000
  H   H1489     1.0  0.73664  0.16644  0.14897  1.0000
  H   H1490     1.0  0.71162  0.15929  0.21704  1.0000
  H   H1491     1.0  0.54569  0.15218  0.29460  1.0000
  H   H1492     1.0  0.85046  0.23191  0.01952  1.0000
  H   H1493     1.0  0.72827  0.17954  0.17531  1.0000
  H   H1494     1.0  0.49863  0.13590  0.41089  1.0000
  C   C838      1.0  0.89211  0.21192  0.02049  1.0000
  H   H1495     1.0  0.68275  0.07880  0.04878  1.0000
  H   H1496     1.0  0.70353  0.07886  0.21457  1.0000
  C   C839      1.0  0.55294  0.10096  0.38178  1.0000
  C   C840      1.0  0.55667  0.20924  0.29119  1.0000
  H   H1497     1.0  0.83042  0.19114  0.04301  1.0000
  C   C841      1.0  0.51946  0.01365  0.34879  1.0000
  C   C842      1.0  0.65684  0.05462  0.04887  1.0000
  S   S196      1.0  0.99332  0.09676  0.26548  1.0000
  N   N47       1.0  0.83683  0.20623  0.25951  1.0000
  C   C843      1.0  0.81960  0.19069  0.25067  1.0000
  H   H1498     1.0  0.97423  0.02340  0.31668  1.0000
  C   C844      1.0  0.85649  0.19195  0.26740  1.0000
  H   H1499     1.0  0.50577  0.10106  0.21942  1.0000
  C   C845      1.0  0.94393  0.18909  0.43913  1.0000
  C   C846      1.0  0.81216  0.17193  0.26740  1.0000
  C   C847      1.0  0.87769  0.20449  0.27445  1.0000
  S   S197      1.0  0.53958  0.24071  0.36572  1.0000
  C   C848      1.0  0.91314  0.07963  0.21998  1.0000
  C   C849      1.0  0.71614  0.11695  0.01642  1.0000
  C   C850      1.0  0.78900  0.16308  0.26217  1.0000
  C   C851      1.0  0.89405  0.18898  0.28693  1.0000
  H   H1500     1.0  0.82645  0.18237  0.23523  1.0000
  H   H1501     1.0  0.80437  0.19989  0.24490  1.0000
  H   H1502     1.0  0.72703  0.02530  0.05358  1.0000
  H   H1503     1.0  0.85346  0.21033  0.22697  1.0000
  H   H1504     1.0  0.86208  0.18011  0.25399  1.0000
  H   H1505     1.0  0.85130  0.18139  0.28209  1.0000
  N   N48       1.0  0.97412  0.15181  0.48465  1.0000
  H   H1506     1.0  0.86130  0.21343  0.11830  1.0000
  C   C852      1.0  0.55020  0.14426  0.45915  1.0000
  C   C853      1.0  0.53654  0.22997  0.26164  1.0000
  H   H1507     1.0  0.82456  0.15780  0.26639  1.0000
  H   H1508     1.0  0.81152  0.17776  0.28503  1.0000
  H   H1509     1.0  0.79190  0.21157  0.28362  1.0000
  H   H1510     1.0  0.93314  0.03714  0.31785  1.0000
  C   C854      1.0  0.53564  0.12569  0.45050  1.0000
  H   H1511     1.0  0.66503  0.99597  0.02112  1.0000
  H   H1512     1.0  0.79748  0.10181  0.21271  1.0000
  H   H1513     1.0  0.54372  0.08492  0.35061  1.0000
  H   H1514     1.0  0.67952  0.07222  0.18144  1.0000
  H   H1515     1.0  0.83063  0.21155  0.29528  1.0000
  C   C855      1.0  0.94446  0.01361  0.23579  1.0000
  H   H1516     1.0  0.70644  0.12133  0.03204  1.0000
  H   H1517     1.0  0.77581  0.17633  0.26447  1.0000
  H   H1518     1.0  0.78880  0.15714  0.24464  1.0000
  H   H1519     1.0  0.78493  0.14895  0.27370  1.0000
  H   H1520     1.0  0.90955  0.19805  0.29082  1.0000
  H   H1521     1.0  0.92358  0.19292  0.01548  1.0000
  H   H1522     1.0  0.89899  0.17449  0.27636  1.0000
  N   N49       1.0  0.72951  0.11548  0.20047  1.0000
  C   C856      1.0  0.73623  0.13468  0.18521  1.0000
  C   C857      1.0  0.75050  0.10391  0.20904  1.0000
  C   C858      1.0  0.71751  0.09894  0.18628  1.0000
  C   C859      1.0  0.71171  0.07635  0.19778  1.0000
  C   C860      1.0  0.76578  0.11766  0.22394  1.0000
  C   C861      1.0  0.78783  0.10498  0.22866  1.0000
  C   C862      1.0  0.69583  0.06309  0.18350  1.0000
  H   H1523     1.0  0.74954  0.12917  0.17284  1.0000
  H   H1524     1.0  0.74435  0.14798  0.19465  1.0000
  H   H1525     1.0  0.74615  0.08915  0.21959  1.0000
  H   H1526     1.0  0.76093  0.09745  0.19459  1.0000
  H   H1527     1.0  0.72779  0.09505  0.17085  1.0000
  S   S198      1.0  0.55700  0.00878  0.21109  1.0000
  H   H1528     1.0  0.71523  0.11043  0.23396  1.0000
  H   H1529     1.0  0.70131  0.10624  0.18030  1.0000
  H   H1530     1.0  0.72723  0.06590  0.19972  1.0000
  H   H1531     1.0  0.77012  0.13374  0.21587  1.0000
  H   H1532     1.0  0.75723  0.12076  0.24046  1.0000
  H   H1533     1.0  0.78443  0.08884  0.23728  1.0000
  C   C863      1.0  0.76547  0.23732  0.22355  1.0000
  H   H1534     1.0  0.79841  0.11500  0.23963  1.0000
  H   H1535     1.0  0.70803  0.17603  0.15364  1.0000
  H   H1536     1.0  0.98644  0.17606  0.35376  1.0000
  H   H1537     1.0  0.94891  0.19469  0.42184  1.0000
  H   H1538     1.0  0.69242  0.04678  0.19179  1.0000
  H   H1539     1.0  0.87309  0.21865  0.28556  1.0000
  H   H1540     1.0  0.53278  0.01791  0.33614  1.0000
  C   C864      1.0  0.83996  0.17993  0.99968  1.0000
  C   C865      1.0  0.55574  0.09739  0.35644  1.0000
  H   H1541     1.0  0.97825  0.18326  0.44789  1.0000
  H   H1542     1.0  0.52988  0.10860  0.29766  1.0000
  C   C866      1.0  0.99082  0.03340  0.22855  1.0000
  H   H1543     1.0  0.85531  0.20515  0.04864  1.0000
  C   C867      1.0  0.50921  0.07825  0.44263  1.0000
  C   C868      1.0  0.82768  0.22016  0.27886  1.0000
  H   H1544     1.0  0.94679  0.01841  0.28126  1.0000
  H   H1545     1.0  0.88626  0.18286  0.30297  1.0000
  C   C869      1.0  0.97790  0.12963  0.47324  1.0000
  C   C870      1.0  0.57613  0.00101  0.18847  1.0000
  C   C871      1.0  0.51593  0.05535  0.45215  1.0000
  C   C872      1.0  0.71673  0.14550  0.17162  1.0000
  C   C873      1.0  0.98420  0.00958  0.31015  1.0000
  H   H1546     1.0  0.52075  0.07105  0.28383  1.0000
  H   H1547     1.0  0.86786  0.18123  0.08055  1.0000
  C   C874      1.0  0.97659  0.03416  0.25078  1.0000
  H   H1548     1.0  0.85895  0.23180  0.24629  1.0000
  H   H1549     1.0  0.96218  0.05365  0.29175  1.0000
  H   H1550     1.0  0.50432  0.05092  0.46640  1.0000
  C   C875      1.0  0.71729  0.14633  0.22925  1.0000
  H   H1551     1.0  0.88500  0.17947  0.00879  1.0000
  C   C876      1.0  0.84871  0.19145  0.03855  1.0000
  C   C877      1.0  0.87714  0.19628  0.00708  1.0000
  H   H1552     1.0  0.65473  0.03630  0.04994  1.0000
  H   H1553     1.0  0.72012  0.08534  0.04747  1.0000
  H   H1554     1.0  0.70119  0.14755  0.18223  1.0000
  H   H1555     1.0  0.73690  0.02445  0.01535  1.0000
  C   C878      1.0  0.80201  0.22633  0.27896  1.0000
  H   H1556     1.0  0.89148  0.20777  0.03873  1.0000
  H   H1557     1.0  0.69602  0.12228  0.21476  1.0000
  H   H1558     1.0  0.91789  0.07591  0.20222  1.0000
  H   H1559     1.0  0.99144  0.18186  0.49260  1.0000
  H   H1560     1.0  0.92779  0.18017  0.43834  1.0000
  H   H1561     1.0  0.64701  0.06236  0.06298  1.0000
  H   H1562     1.0  0.94067  0.15647  0.47122  1.0000
  C   C879      1.0  0.69612  0.04858  0.03187  1.0000
  C   C880      1.0  0.72540  0.07805  0.03097  1.0000
  C   C881      1.0  0.73097  0.04335  0.05222  1.0000
  H   H1563     1.0  0.97863  0.10702  0.43184  1.0000
  H   H1564     1.0  0.53029  0.18825  0.30654  1.0000
  C   C882      1.0  0.68170  0.06045  0.05047  1.0000
  C   C883      1.0  0.85620  0.22265  0.10344  1.0000
  C   C884      1.0  0.50390  0.10935  0.32370  1.0000
  N   N50       1.0  0.52243  0.10835  0.41322  1.0000
  H   H1565     1.0  0.75627  0.03768  0.09043  1.0000
  H   H1566     1.0  0.61106  0.21427  0.32930  1.0000
  C   C885      1.0  0.52850  0.10868  0.38832  1.0000
  H   H1567     1.0  0.76109  0.06333  0.05703  1.0000
  H   H1568     1.0  0.76630  0.03948  0.03942  1.0000
  S   S199      1.0  0.97103  0.22623  0.48182  1.0000
  H   H1569     1.0  0.76344  0.01439  0.07230  1.0000
  H   H1570     1.0  0.69370  0.03030  0.03383  1.0000
  H   H1571     1.0  0.72327  0.05104  0.06753  1.0000
  C   C886      1.0  0.49749  0.08699  0.22842  1.0000
  H   H1572     1.0  0.83946  0.17101  0.07956  1.0000
  H   H1573     1.0  0.92691  0.22184  0.02206  1.0000
  H   H1574     1.0  0.56453  0.21022  0.30789  1.0000
  H   H1575     1.0  0.68720  0.05553  0.06751  1.0000
  C   C887      1.0  0.52461  0.08472  0.42212  1.0000
  H   H1576     1.0  0.52090  0.07262  0.40874  1.0000
  C   C888      1.0  0.76549  0.03250  0.07479  1.0000
  H   H1577     1.0  0.71277  0.13474  0.15725  1.0000
  C   C889      1.0  0.59747  0.01093  0.18687  1.0000
  H   H1578     1.0  0.86107  0.14970  0.00665  1.0000
  C   C890      1.0  0.49885  0.11799  0.41595  1.0000
  C   C891      1.0  0.73259  0.04220  0.01113  1.0000
  C   C892      1.0  0.51103  0.07821  0.29769  1.0000
  C   C893      1.0  0.75685  0.04566  0.05449  1.0000
  H   H1579     1.0  0.73509  0.14964  0.23277  1.0000
  H   H1580     1.0  0.68532  0.14740  0.24823  1.0000
  H   H1581     1.0  0.55758  0.08509  0.39040  1.0000
  C   C894      1.0  0.71398  0.12264  0.21975  1.0000
  C   C895      1.0  0.53849  0.12346  0.42465  1.0000
  H   H1582     1.0  0.95248  0.06952  0.24187  1.0000
  H   H1583     1.0  0.94996  0.05334  0.21757  1.0000
  C   C896      1.0  0.94436  0.05343  0.28660  1.0000
  H   H1584     1.0  0.93276  0.06714  0.31853  1.0000
  H   H1585     1.0  0.79621  0.23230  0.26239  1.0000
  H   H1586     1.0  0.57315  0.09128  0.35239  1.0000
  H   H1587     1.0  0.56840  0.16525  0.27904  1.0000
  H   H1588     1.0  0.53106  0.23155  0.31956  1.0000
  H   H1589     1.0  0.56514  0.11381  0.38626  1.0000
  H   H1590     1.0  0.69661  0.08836  0.00987  1.0000
  C   C897      1.0  0.71464  0.09206  0.01187  1.0000
  C   C898      1.0  0.60149  0.22847  0.33566  1.0000
  C   C899      1.0  0.85865  0.16920  0.04766  1.0000
  N   N51       1.0  0.85239  0.19627  0.01376  1.0000
  H   H1591     1.0  0.50480  0.24419  0.22974  1.0000
  H   H1592     1.0  0.54795  0.21903  0.25124  1.0000
  H   H1593     1.0  0.81176  0.21997  0.03018  1.0000
  H   H1594     1.0  0.77768  0.23753  0.20975  1.0000
  H   H1595     1.0  0.98230  0.02023  0.26184  1.0000
  H   H1596     1.0  0.91137  0.05317  0.30362  1.0000
  C   C900      1.0  0.92947  0.05255  0.30795  1.0000
  H   H1597     1.0  0.52583  0.12572  0.38106  1.0000
  C   C901      1.0  0.73944  0.21749  0.24797  1.0000
  H   H1598     1.0  0.92578  0.01239  0.23626  1.0000
  H   H1599     1.0  0.70576  0.16702  0.25702  1.0000
  C   C902      1.0  0.99546  0.16488  0.48618  1.0000
  H   H1600     1.0  0.84880  0.15515  0.04151  1.0000
  C   C903      1.0  0.91676  0.21004  0.01253  1.0000
  H   H1601     1.0  0.54240  0.08097  0.42666  1.0000
  H   H1602     1.0  0.51827  0.04759  0.36074  1.0000
  C   C904      1.0  0.95651  0.16581  0.47271  1.0000
  H   H1603     1.0  0.70361  0.05989  0.16662  1.0000
  H   H1604     1.0  0.98716  0.01849  0.21863  1.0000
  H   H1605     1.0  0.51710  0.09782  0.37903  1.0000
  H   H1606     1.0  0.52000  0.20173  0.46140  1.0000
  H   H1607     1.0  0.53209  0.18700  0.27624  1.0000
  H   H1608     1.0  0.64993  0.06095  0.03276  1.0000
  H   H1609     1.0  0.55623  0.11767  0.42190  1.0000
  H   H1610     1.0  0.81414  0.22753  0.22243  1.0000
  H   H1611     1.0  0.83720  0.23588  0.27975  1.0000
  H   H1612     1.0  0.86321  0.15177  0.07958  1.0000
  N   N52       1.0  0.95141  0.03387  0.24840  1.0000
  H   H1613     1.0  0.89481  0.08376  0.22100  1.0000
  H   H1614     1.0  0.53734  0.14050  0.41702  1.0000
  S   S200      1.0  0.69012  0.99955  0.14220  1.0000
  H   H1615     1.0  0.50984  0.09033  0.45642  1.0000
  H   H1616     1.0  0.60195  0.02276  0.19945  1.0000
  H   H1617     1.0  0.57376  0.20863  0.34845  1.0000
  H   H1618     1.0  0.94054  0.06933  0.27782  1.0000
  C   C905      1.0  0.94414  0.05450  0.23547  1.0000
  H   H1619     1.0  0.62908  0.01403  0.16800  1.0000
  C   C906      1.0  0.94044  0.03309  0.27157  1.0000
  H   H1620     1.0  0.96186  0.12405  0.46606  1.0000
  C   C907      1.0  0.85715  0.16831  0.07338  1.0000
  H   H1621     1.0  0.98153  0.04948  0.25946  1.0000
  C   C908      1.0  0.91840  0.05961  0.23528  1.0000
  C   C909      1.0  0.96248  0.17378  0.44848  1.0000
  C   C910      1.0  0.81682  0.22236  0.01224  1.0000
  H   H1622     1.0  0.88694  0.21089  0.25929  1.0000
  S   S201      1.0  0.98949  0.14230  0.29601  1.0000
  C   C911      1.0  0.99199  0.19514  0.38375  1.0000
  C   C912      1.0  0.61297  0.00597  0.16902  1.0000
  H   H1623     1.0  0.94921  0.01517  0.21761  1.0000
  C   C913      1.0  0.87228  0.23431  0.09026  1.0000
  C   C914      1.0  0.54204  0.18811  0.29170  1.0000
  C   C915      1.0  0.99488  0.10716  0.44069  1.0000
  H   H1624     1.0  0.51485  0.04243  0.43906  1.0000
  H   H1625     1.0  0.54771  0.14564  0.47767  1.0000
  H   H1626     1.0  0.78369  0.03562  0.07684  1.0000
  H   H1627     1.0  0.51984  0.22187  0.26142  1.0000
  H   H1628     1.0  0.74896  0.05020  0.00703  1.0000
  C   C916      1.0  0.52065  0.03047  0.36775  1.0000
  H   H1629     1.0  0.57086  0.20599  0.27898  1.0000
  C   C917      1.0  0.99396  0.17603  0.37013  1.0000
  H   H1630     1.0  0.56646  0.16718  0.30944  1.0000
  N   N53       1.0  0.54461  0.23098  0.28552  1.0000
  Fe  Fe100     1.0  0.52255  0.99913  0.22723  1.0000
  C   C918      1.0  0.55664  0.16694  0.29379  1.0000
  H   H1631     1.0  0.56833  0.14071  0.45532  1.0000
  H   H1632     1.0  0.68805  0.05320  0.01583  1.0000
  H   H1633     1.0  0.80990  0.23516  0.07300  1.0000
  H   H1634     1.0  0.53129  0.23675  0.21562  1.0000
  H   H1635     1.0  0.50712  0.02752  0.38065  1.0000
  H   H1636     1.0  0.51260  0.22023  0.29982  1.0000
  C   C919      1.0  0.52498  0.23357  0.30205  1.0000
  H   H1637     1.0  0.50279  0.01614  0.34100  1.0000
  H   H1638     1.0  0.80057  0.23895  0.31322  1.0000
  H   H1639     1.0  0.88972  0.23395  0.09513  1.0000
  H   H1640     1.0  0.65936  0.99852  0.20096  1.0000
  C   C920      1.0  0.73265  0.23758  0.25848  1.0000
  H   H1641     1.0  0.49766  0.07255  0.21695  1.0000
  Fe  Fe101     1.0  0.50116  0.16407  0.35829  1.0000
  H   H1642     1.0  0.98253  0.11640  0.48572  1.0000
  H   H1643     1.0  0.50739  0.08258  0.24351  1.0000
  H   H1644     1.0  0.71993  0.23751  0.27186  1.0000
  H   H1645     1.0  0.70892  0.12665  0.00219  1.0000
  H   H1646     1.0  0.58242  0.24016  0.25939  1.0000
  H   H1647     1.0  0.84734  0.23904  0.19750  1.0000
  C   C921      1.0  0.82817  0.23684  0.22938  1.0000
  S   S202      1.0  0.72641  0.99482  0.09984  1.0000
  Fe  Fe102     1.0  0.72181  0.01915  0.86752  1.0000
  S   S203      1.0  0.68727  0.02599  0.88269  1.0000
  S   S204      1.0  0.75194  0.04259  0.86509  1.0000
  H   H1648     1.0  0.86309  0.05806  0.72807  1.0000
  H   H1649     1.0  0.87912  0.20084  0.98888  1.0000
  H   H1650     1.0  0.89051  0.05440  0.74013  1.0000
  H   H1651     1.0  0.76175  0.10521  0.75851  1.0000
  H   H1652     1.0  0.77814  0.12289  0.77574  1.0000
  H   H1653     1.0  0.64087  0.00866  0.89782  1.0000
  Fe  Fe103     1.0  0.97553  0.11716  0.68905  1.0000
  H   H1654     1.0  0.62404  0.00510  0.76736  1.0000
  S   S205      1.0  0.94068  0.13297  0.69673  1.0000
  H   H1655     1.0  0.92790  0.20979  0.55725  1.0000
  H   H1656     1.0  0.81164  0.04598  0.77572  1.0000
  C   C922      1.0  0.76432  0.23970  0.76836  1.0000
  C   C923      1.0  0.50412  0.06381  0.67576  1.0000
  H   H1657     1.0  0.62504  0.01842  0.92219  1.0000
  S   S206      1.0  0.50194  0.00783  0.76811  1.0000
  Fe  Fe104     1.0  0.52045  0.20591  0.62776  1.0000
  H   H1658     1.0  0.74292  0.01718  0.97337  1.0000
  S   S207      1.0  0.53302  0.17561  0.60893  1.0000
  Fe  Fe105     1.0  0.79978  0.15871  0.81677  1.0000
  S   S208      1.0  0.80018  0.19631  0.81968  1.0000
  S   S209      1.0  0.76688  0.14013  0.82328  1.0000
  Fe  Fe106     1.0  0.84682  0.15637  0.79399  1.0000
  S   S210      1.0  0.85023  0.19335  0.79490  1.0000
  S   S211      1.0  0.87358  0.13058  0.78265  1.0000
  Fe  Fe107     1.0  0.83618  0.19139  0.83050  1.0000
  S   S212      1.0  0.85732  0.21230  0.85372  1.0000
  Fe  Fe108     1.0  0.81415  0.19595  0.78428  1.0000
  S   S213      1.0  0.80538  0.21992  0.75552  1.0000
  S   S214      1.0  0.83475  0.15386  0.83028  1.0000
  S   S215      1.0  0.81179  0.15887  0.78055  1.0000
  C   C924      1.0  0.73454  0.03342  0.96933  1.0000
  H   H1659     1.0  0.93247  0.16838  0.76052  1.0000
  S   S216      1.0  0.50643  0.12069  0.63655  1.0000
  H   H1660     1.0  0.97719  0.13665  0.51780  1.0000
  H   H1661     1.0  0.87162  0.22573  0.58745  1.0000
  H   H1662     1.0  0.80034  0.09198  0.80492  1.0000
  H   H1663     1.0  0.52422  0.05392  0.77125  1.0000
  H   H1664     1.0  0.63701  0.23167  0.72394  1.0000
  H   H1665     1.0  0.57344  0.01313  0.70736  1.0000
  H   H1666     1.0  0.97092  0.09507  0.79077  1.0000
  C   C925      1.0  0.61281  0.01511  0.73397  1.0000
  H   H1667     1.0  0.95776  0.21653  0.57425  1.0000
  C   C926      1.0  0.98180  0.22846  0.59680  1.0000
  C   C927      1.0  0.58351  0.00992  0.80229  1.0000
  H   H1668     1.0  0.97895  0.15014  0.60445  1.0000
  H   H1669     1.0  0.99035  0.15793  0.74025  1.0000
  H   H1670     1.0  0.58106  0.20569  0.64308  1.0000
  H   H1671     1.0  0.85478  0.06323  0.81217  1.0000
  C   C928      1.0  0.58581  0.22279  0.64530  1.0000
  H   H1672     1.0  0.81770  0.10861  0.78747  1.0000
  H   H1673     1.0  0.94098  0.12190  0.50044  1.0000
  H   H1674     1.0  0.94598  0.19224  0.77067  1.0000
  H   H1675     1.0  0.55451  0.22959  0.53782  1.0000
  C   C929      1.0  0.85403  0.22485  0.88066  1.0000
  C   C930      1.0  0.83476  0.22217  0.89442  1.0000
  H   H1676     1.0  0.60051  0.03630  0.81895  1.0000
  H   H1677     1.0  0.81121  0.04710  0.82754  1.0000
  C   C931      1.0  0.98446  0.17291  0.78400  1.0000
  H   H1678     1.0  0.82119  0.21211  0.88878  1.0000
  H   H1679     1.0  0.98235  0.20851  0.70542  1.0000
  C   C932      1.0  0.92239  0.13198  0.72090  1.0000
  C   C933      1.0  0.90642  0.14936  0.72428  1.0000
  C   C934      1.0  0.89146  0.14931  0.74313  1.0000
  C   C935      1.0  0.89217  0.13170  0.75874  1.0000
  C   C936      1.0  0.90802  0.11422  0.75529  1.0000
  C   C937      1.0  0.92300  0.11430  0.73644  1.0000
  H   H1680     1.0  0.90562  0.16300  0.71222  1.0000
  H   H1681     1.0  0.87930  0.16282  0.74546  1.0000
  H   H1682     1.0  0.90865  0.10046  0.76720  1.0000
  H   H1683     1.0  0.93488  0.10062  0.73380  1.0000
  H   H1684     1.0  0.59007  0.02176  0.90040  1.0000
  H   H1685     1.0  0.99203  0.12410  0.75307  1.0000
  N   N54       1.0  0.72878  0.17801  0.76154  1.0000
  H   H1686     1.0  0.92754  0.15293  0.79869  1.0000
  H   H1687     1.0  0.95424  0.19470  0.73325  1.0000
  C   C938      1.0  0.75527  0.06993  0.85371  1.0000
  C   C939      1.0  0.77580  0.08067  0.85671  1.0000
  C   C940      1.0  0.77953  0.10218  0.84773  1.0000
  C   C941      1.0  0.76282  0.11320  0.83543  1.0000
  C   C942      1.0  0.74216  0.10262  0.83266  1.0000
  C   C943      1.0  0.73841  0.08109  0.84165  1.0000
  H   H1688     1.0  0.78884  0.07232  0.86626  1.0000
  H   H1689     1.0  0.79517  0.11041  0.85065  1.0000
  H   H1690     1.0  0.72900  0.11107  0.82342  1.0000
  H   H1691     1.0  0.72249  0.07311  0.83928  1.0000
  C   C944      1.0  0.84154  0.07583  0.76685  1.0000
  S   S217      1.0  0.64114  0.01771  0.83770  1.0000
  H   H1692     1.0  0.53514  0.07827  0.78409  1.0000
  H   H1693     1.0  0.98349  0.24116  0.61000  1.0000
  H   H1694     1.0  0.87811  0.08191  0.73754  1.0000
  Fe  Fe109     1.0  0.50908  0.18609  0.58139  1.0000
  H   H1695     1.0  0.84625  0.09893  0.86247  1.0000
  H   H1696     1.0  0.72425  0.03127  0.95420  1.0000
  Fe  Fe110     1.0  0.50276  0.01541  0.73055  1.0000
  H   H1697     1.0  0.68501  0.12442  0.77234  1.0000
  C   C945      1.0  0.98375  0.99886  0.61681  1.0000
  C   C946      1.0  0.51105  0.18489  0.51642  1.0000
  H   H1698     1.0  0.57125  0.16417  0.56544  1.0000
  N   N55       1.0  0.57947  0.04290  0.72648  1.0000
  C   C947      1.0  0.55702  0.04999  0.73696  1.0000
  C   C948      1.0  0.57621  0.03124  0.70438  1.0000
  C   C949      1.0  0.59036  0.02634  0.74248  1.0000
  C   C950      1.0  0.59501  0.06227  0.72322  1.0000
  C   C951      1.0  0.58607  0.08202  0.70875  1.0000
  C   C952      1.0  0.55787  0.06289  0.75935  1.0000
  S   S218      1.0  0.53989  0.23408  0.64388  1.0000
  C   C953      1.0  0.55612  0.03914  0.68982  1.0000
  H   H1699     1.0  0.60539  0.01616  0.87488  1.0000
  C   C954      1.0  0.60162  0.10190  0.70978  1.0000
  C   C955      1.0  0.53415  0.06914  0.76806  1.0000
  H   H1700     1.0  0.92839  0.14903  0.50581  1.0000
  H   H1701     1.0  0.54639  0.03514  0.74004  1.0000
  H   H1702     1.0  0.54720  0.06082  0.72539  1.0000
  H   H1703     1.0  0.59186  0.03204  0.69366  1.0000
  H   H1704     1.0  0.96176  0.15498  0.73430  1.0000
  H   H1705     1.0  0.94610  0.22554  0.60106  1.0000
  H   H1706     1.0  0.59437  0.03432  0.75859  1.0000
  H   H1707     1.0  0.60002  0.06866  0.73980  1.0000
  H   H1708     1.0  0.61109  0.05675  0.71483  1.0000
  H   H1709     1.0  0.56903  0.08783  0.71441  1.0000
  H   H1710     1.0  0.58561  0.07708  0.69087  1.0000
  H   H1711     1.0  0.56596  0.05276  0.77270  1.0000
  H   H1712     1.0  0.56719  0.07857  0.75695  1.0000
  H   H1713     1.0  0.62624  0.02757  0.73186  1.0000
  H   H1714     1.0  0.98358  0.16525  0.80116  1.0000
  H   H1715     1.0  0.54001  0.03412  0.69811  1.0000
  H   H1716     1.0  0.55535  0.05740  0.68731  1.0000
  S   S219      1.0  0.98482  0.09729  0.65777  1.0000
  H   H1717     1.0  0.60225  0.10809  0.72727  1.0000
  H   H1718     1.0  0.61893  0.09722  0.70373  1.0000
  H   H1719     1.0  0.59509  0.11562  0.69886  1.0000
  H   H1720     1.0  0.78710  0.23946  0.71539  1.0000
  N   N56       1.0  0.96741  0.16251  0.76914  1.0000
  H   H1721     1.0  0.74759  0.04594  0.96533  1.0000
  H   H1722     1.0  0.61082  0.00669  0.71769  1.0000
  H   H1723     1.0  0.94084  0.20727  0.51766  1.0000
  H   H1724     1.0  0.98030  0.19088  0.78660  1.0000
  H   H1725     1.0  0.78267  0.02232  0.79413  1.0000
  C   C956      1.0  0.70850  0.16416  0.76740  1.0000
  H   H1726     1.0  0.80130  0.09494  0.75324  1.0000
  H   H1727     1.0  0.84624  0.09346  0.76331  1.0000
  C   C957      1.0  0.74024  0.18534  0.78245  1.0000
  C   C958      1.0  0.72506  0.19818  0.79981  1.0000
  H   H1728     1.0  0.98044  0.20087  0.74612  1.0000
  C   C959      1.0  0.71094  0.19424  0.72524  1.0000
  H   H1729     1.0  0.99477  0.23115  0.58326  1.0000
  C   C960      1.0  0.73787  0.20296  0.82109  1.0000
  C   C961      1.0  0.69097  0.13138  0.78828  1.0000
  S   S220      1.0  0.98607  0.19967  0.53773  1.0000
  H   H1730     1.0  0.69443  0.17477  0.77434  1.0000
  H   H1731     1.0  0.55942  0.23758  0.60096  1.0000
  C   C962      1.0  0.96532  0.14773  0.50843  1.0000
  Fe  Fe111     1.0  0.67361  0.00496  0.85500  1.0000
  C   C963      1.0  0.85365  0.09099  0.84713  1.0000
  C   C964      1.0  0.63095  0.04339  0.89712  1.0000
  H   H1732     1.0  0.71003  0.18859  0.80502  1.0000
  H   H1733     1.0  0.71931  0.21443  0.79267  1.0000
  H   H1734     1.0  0.70175  0.15688  0.75192  1.0000
  C   C965      1.0  0.84516  0.07869  0.80759  1.0000
  C   C966      1.0  0.71255  0.14438  0.78406  1.0000
  H   H1735     1.0  0.86046  0.07425  0.85185  1.0000
  H   H1736     1.0  0.72307  0.18523  0.71396  1.0000
  H   H1737     1.0  0.69540  0.18439  0.72714  1.0000
  C   C967      1.0  0.61963  0.00548  0.82160  1.0000
  C   C968      1.0  0.98320  0.19097  0.71151  1.0000
  H   H1738     1.0  0.69655  0.21286  0.69724  1.0000
  H   H1739     1.0  0.75237  0.21377  0.81709  1.0000
  H   H1740     1.0  0.72651  0.21170  0.83337  1.0000
  H   H1741     1.0  0.74407  0.18720  0.82904  1.0000
  S   S221      1.0  0.49889  0.05304  0.72179  1.0000
  H   H1742     1.0  0.67752  0.14229  0.79582  1.0000
  C   C969      1.0  0.86351  0.06138  0.76458  1.0000
  H   H1743     1.0  0.80574  0.01043  0.81011  1.0000
  H   H1744     1.0  0.85809  0.09064  0.80149  1.0000
  C   C970      1.0  0.94185  0.13699  0.51090  1.0000
  H   H1745     1.0  0.64629  0.04879  0.90565  1.0000
  H   H1746     1.0  0.91468  0.19314  0.52222  1.0000
  C   C971      1.0  0.93336  0.17032  0.79672  1.0000
  H   H1747     1.0  0.87611  0.06633  0.77693  1.0000
  H   H1748     1.0  0.55728  0.20196  0.57275  1.0000
  C   C972      1.0  0.87439  0.06414  0.74113  1.0000
  H   H1749     1.0  0.78680  0.07294  0.76822  1.0000
  H   H1750     1.0  0.82165  0.07935  0.83708  1.0000
  H   H1751     1.0  0.98766  0.01662  0.61947  1.0000
  H   H1752     1.0  0.78832  0.05890  0.81141  1.0000
  H   H1753     1.0  0.73669  0.15570  0.73390  1.0000
  C   C973      1.0  0.62117  0.99752  0.75078  1.0000
  H   H1754     1.0  0.50522  0.04611  0.67280  1.0000
  C   C974      1.0  0.97332  0.16496  0.74437  1.0000
  H   H1755     1.0  0.58274  0.17385  0.59119  1.0000
  H   H1756     1.0  0.72560  0.13257  0.77735  1.0000
  H   H1757     1.0  0.63388  0.04519  0.87867  1.0000
  H   H1758     1.0  0.56902  0.01095  0.86312  1.0000
  H   H1759     1.0  0.83073  0.07099  0.75280  1.0000
  C   C975      1.0  0.74529  0.16398  0.74782  1.0000
  C   C976      1.0  0.87152  0.23797  0.88842  1.0000
  H   H1760     1.0  0.86001  0.04347  0.76719  1.0000
  C   C977      1.0  0.60119  0.01887  0.81463  1.0000
  C   C978      1.0  0.50583  0.07908  0.65743  1.0000
  H   H1761     1.0  0.94906  0.11754  0.54129  1.0000
  S   S222      1.0  0.70805  0.00068  0.83840  1.0000
  H   H1762     1.0  0.97644  0.02324  0.67481  1.0000
  H   H1763     1.0  0.96466  0.17312  0.57249  1.0000
  H   H1764     1.0  0.78727  0.14624  0.73452  1.0000
  C   C979      1.0  0.55735  0.02840  0.66666  1.0000
  C   C980      1.0  0.94467  0.17392  0.77315  1.0000
  H   H1765     1.0  0.75223  0.15018  0.75837  1.0000
  C   C981      1.0  0.96465  0.13818  0.77500  1.0000
  H   H1766     1.0  0.97616  0.99735  0.60004  1.0000
  H   H1767     1.0  0.83020  0.23878  0.80911  1.0000
  C   C982      1.0  0.72114  0.19844  0.74852  1.0000
  H   H1768     1.0  0.90017  0.18215  0.78650  1.0000
  C   C983      1.0  0.91952  0.22066  0.54476  1.0000
  C   C984      1.0  0.99066  0.15882  0.59338  1.0000
  H   H1769     1.0  0.96053  0.13592  0.79323  1.0000
  H   H1770     1.0  0.95007  0.13177  0.76596  1.0000
  H   H1771     1.0  0.96509  0.09383  0.76109  1.0000
  H   H1772     1.0  0.57554  0.20126  0.54786  1.0000
  H   H1773     1.0  0.81826  0.23004  0.92624  1.0000
  H   H1774     1.0  0.74838  0.17088  0.79113  1.0000
  C   C985      1.0  0.79318  0.09004  0.76956  1.0000
  H   H1775     1.0  0.91955  0.12329  0.53689  1.0000
  H   H1776     1.0  0.86761  0.10148  0.84054  1.0000
  C   C986      1.0  0.83706  0.14197  0.98175  1.0000
  C   C987      1.0  0.57490  0.19995  0.56648  1.0000
  C   C988      1.0  0.62627  0.01917  0.90354  1.0000
  C   C989      1.0  0.59019  0.21742  0.57673  1.0000
  H   H1777     1.0  0.70804  0.20795  0.75833  1.0000
  C   C990      1.0  0.60863  0.22799  0.64836  1.0000
  H   H1778     1.0  0.59139  0.21357  0.59509  1.0000
  H   H1779     1.0  0.77486  0.22550  0.85189  1.0000
  C   C991      1.0  0.83548  0.08913  0.82956  1.0000
  H   H1780     1.0  0.94521  0.17385  0.81028  1.0000
  H   H1781     1.0  0.60724  0.21400  0.56921  1.0000
  H   H1782     1.0  0.69430  0.11733  0.80018  1.0000
  H   H1783     1.0  0.52530  0.07999  0.75567  1.0000
  H   H1784     1.0  0.91849  0.21437  0.99434  1.0000
  H   H1785     1.0  0.91705  0.20323  0.79903  1.0000
  H   H1786     1.0  0.91476  0.22016  0.50846  1.0000
  S   S223      1.0  0.52031  0.19145  0.54402  1.0000
  H   H1787     1.0  0.71978  0.22621  0.70992  1.0000
  H   H1788     1.0  0.96431  0.16365  0.51783  1.0000
  C   C992      1.0  0.97213  0.18917  0.73489  1.0000
  H   H1789     1.0  0.84715  0.22439  0.99108  1.0000
  H   H1790     1.0  0.60012  0.17293  0.56570  1.0000
  N   N57       1.0  0.82877  0.07418  0.78915  1.0000
  H   H1791     1.0  0.90417  0.18197  0.81641  1.0000
  C   C993      1.0  0.91245  0.18541  0.79978  1.0000
  H   H1792     1.0  0.75440  0.19641  0.77796  1.0000
  H   H1793     1.0  0.76096  0.19021  0.72635  1.0000
  H   H1794     1.0  0.71807  0.15020  0.80062  1.0000
  C   C994      1.0  0.50046  0.10995  0.68262  1.0000
  H   H1795     1.0  0.93725  0.14509  0.54641  1.0000
  H   H1796     1.0  0.71148  0.05725  0.98417  1.0000
  C   C995      1.0  0.80260  0.04671  0.81127  1.0000
  C   C996      1.0  0.77274  0.10555  0.77331  1.0000
  C   C997      1.0  0.79238  0.02366  0.80976  1.0000
  H   H1797     1.0  0.83365  0.03859  0.79380  1.0000
  H   H1798     1.0  0.55686  0.00996  0.66837  1.0000
  H   H1799     1.0  0.62131  0.21476  0.64834  1.0000
  C   C998      1.0  0.76600  0.17622  0.73764  1.0000
  H   H1800     1.0  0.77628  0.18284  0.75116  1.0000
  H   H1801     1.0  0.61661  0.05445  0.90245  1.0000
  C   C999      1.0  0.81965  0.05096  0.79154  1.0000
  C   C1000     1.0  0.50082  0.07147  0.69775  1.0000
  H   H1802     1.0  0.79618  0.16953  0.71734  1.0000
  C   C1001     1.0  0.58284  0.17631  0.57263  1.0000
  H   H1803     1.0  0.76789  0.23416  0.78526  1.0000
  H   H1804     1.0  0.82894  0.10622  0.82608  1.0000
  H   H1805     1.0  0.69244  0.22615  0.72405  1.0000
  C   C1002     1.0  0.93668  0.13034  0.53538  1.0000
  H   H1806     1.0  0.50506  0.23740  0.52359  1.0000
  C   C1003     1.0  0.81020  0.09177  0.78883  1.0000
  H   H1807     1.0  0.76277  0.10005  0.78835  1.0000
  H   H1808     1.0  0.57299  0.03319  0.65733  1.0000
  C   C1004     1.0  0.70455  0.21621  0.71349  1.0000
  H   H1809     1.0  0.78061  0.02095  0.82436  1.0000
  C   C1005     1.0  0.95817  0.22952  0.58711  1.0000
  C   C1006     1.0  0.98500  0.12223  0.77039  1.0000
  H   H1810     1.0  0.77210  0.15393  0.70938  1.0000
  H   H1811     1.0  0.70560  0.02896  0.99108  1.0000
  C   C1007     1.0  0.83318  0.23234  0.91571  1.0000
  C   C1008     1.0  0.78124  0.16040  0.72389  1.0000
  H   H1812     1.0  0.56942  0.02038  0.79732  1.0000
  H   H1813     1.0  0.73525  0.21015  0.74602  1.0000
  Fe  Fe112     1.0  0.50345  0.15796  0.62584  1.0000
  H   H1814     1.0  0.53199  0.20956  0.50023  1.0000
  C   C1009     1.0  0.51981  0.19679  0.49765  1.0000
  C   C1010     1.0  0.49895  0.09466  0.70097  1.0000
  H   H1815     1.0  0.97414  0.18058  0.69952  1.0000
  C   C1011     1.0  0.92263  0.20970  0.52182  1.0000
  H   H1816     1.0  0.82890  0.14971  0.96686  1.0000
  H   H1817     1.0  0.57838  0.01280  0.74700  1.0000
  H   H1818     1.0  0.62158  0.23943  0.74929  1.0000
  C   C1012     1.0  0.77515  0.24284  0.72904  1.0000
  C   C1013     1.0  0.56915  0.23963  0.64589  1.0000
  C   C1014     1.0  0.98809  0.00945  0.67770  1.0000
  H   H1819     1.0  0.54690  0.23703  0.57478  1.0000
  H   H1820     1.0  0.59809  0.23836  0.53981  1.0000
  H   H1821     1.0  0.65309  0.00036  0.98144  1.0000
  H   H1822     1.0  0.49900  0.12766  0.68550  1.0000
  H   H1823     1.0  0.81336  0.24076  0.85422  1.0000
  H   H1824     1.0  0.98500  0.21175  0.60447  1.0000
  C   C1015     1.0  0.98260  0.17188  0.57514  1.0000
  C   C1016     1.0  0.71933  0.04110  0.98899  1.0000
  H   H1825     1.0  0.90121  0.22092  0.54900  1.0000
  H   H1826     1.0  0.54269  0.03413  0.65670  1.0000
  C   C1017     1.0  0.77975  0.23489  0.75084  1.0000
  C   C1018     1.0  0.97794  0.09800  0.77351  1.0000
  C   C1019     1.0  0.50398  0.10230  0.66061  1.0000
  H   H1827     1.0  0.57859  0.23544  0.50354  1.0000
  C   C1020     1.0  0.60415  0.01139  0.89304  1.0000
  H   H1828     1.0  0.86615  0.16244  0.97956  1.0000
  C   C1021     1.0  0.87019  0.24378  0.59117  1.0000
  H   H1829     1.0  0.78055  0.23545  0.87949  1.0000
  H   H1830     1.0  0.99266  0.08660  0.77084  1.0000
  C   C1022     1.0  0.77794  0.24063  0.86172  1.0000
  H   H1831     1.0  0.91254  0.23141  0.58627  1.0000
  H   H1832     1.0  0.87623  0.23217  0.80662  1.0000
  H   H1833     1.0  0.50844  0.07284  0.64057  1.0000
  H   H1834     1.0  0.88653  0.24017  0.87797  1.0000
  H   H1835     1.0  0.63109  0.23518  0.58722  1.0000
  S   S224      1.0  0.49843  0.21751  0.59938  1.0000
  H   H1836     1.0  0.49632  0.10092  0.71782  1.0000
  N   N58       1.0  0.58330  0.24156  0.57333  1.0000
  H   H1837     1.0  0.83480  0.18798  0.98350  1.0000
  H   H1838     1.0  0.82384  0.13663  0.99414  1.0000
  H   H1839     1.0  0.84683  0.12697  0.97615  1.0000
  H   H1840     1.0  0.50477  0.23832  0.55394  1.0000
  C   C1023     1.0  0.85285  0.15833  0.99240  1.0000
  C   C1024     1.0  0.67014  0.99484  0.98485  1.0000
  C   C1025     1.0  0.55981  0.43697  0.16527  1.0000
  S   S225      1.0  0.79972  0.34561  0.48575  1.0000
  C   C1026     1.0  0.57647  0.26489  0.35174  1.0000
  C   C1027     1.0  0.82595  0.39434  0.01450  1.0000
  H   H1841     1.0  0.85317  0.45944  0.45183  1.0000
  C   C1028     1.0  0.59767  0.37873  0.23747  1.0000
  H   H1842     1.0  0.79557  0.30260  0.09483  1.0000
  H   H1843     1.0  0.68595  0.33551  0.42612  1.0000
  C   C1029     1.0  0.88994  0.38210  0.05043  1.0000
  H   H1844     1.0  0.51257  0.41080  0.25572  1.0000
  H   H1845     1.0  0.66769  0.35660  0.43883  1.0000
  Fe  Fe113     1.0  0.63305  0.46799  0.20400  1.0000
  S   S226      1.0  0.64712  0.43242  0.21013  1.0000
  S   S227      1.0  0.61357  0.47351  0.17216  1.0000
  C   C1030     1.0  0.84337  0.24679  0.06487  1.0000
  Fe  Fe114     1.0  0.88470  0.27895  0.02100  1.0000
  S   S228      1.0  0.88704  0.26054  0.05482  1.0000
  S   S229      1.0  0.90010  0.31276  0.01732  1.0000
  S   S230      1.0  0.70467  0.47529  0.04731  1.0000
  H   H1846     1.0  0.83670  0.43512  0.44725  1.0000
  H   H1847     1.0  0.57174  0.45069  0.16213  1.0000
  H   H1848     1.0  0.52931  0.42135  0.20746  1.0000
  C   C1031     1.0  0.65801  0.37354  0.35422  1.0000
  C   C1032     1.0  0.56954  0.41979  0.18178  1.0000
  Fe  Fe115     1.0  0.78567  0.37376  0.46460  1.0000
  S   S231      1.0  0.77609  0.37206  0.42752  1.0000
  S   S232      1.0  0.81543  0.39549  0.47033  1.0000
  Fe  Fe116     1.0  0.67213  0.33067  0.30085  1.0000
  S   S233      1.0  0.66098  0.31370  0.33346  1.0000
  S   S234      1.0  0.65676  0.36585  0.29488  1.0000
  Fe  Fe117     1.0  0.70613  0.29262  0.28982  1.0000
  S   S235      1.0  0.69753  0.27369  0.32167  1.0000
  S   S236      1.0  0.73456  0.28361  0.26429  1.0000
  Fe  Fe118     1.0  0.66113  0.28192  0.31408  1.0000
  H   H1849     1.0  0.81820  0.26185  0.41010  1.0000
  Fe  Fe119     1.0  0.69792  0.30680  0.33910  1.0000
  S   S237      1.0  0.71051  0.30876  0.37524  1.0000
  S   S238      1.0  0.66972  0.29914  0.28085  1.0000
  S   S239      1.0  0.70904  0.32543  0.30785  1.0000
  S   S240      1.0  0.63624  0.25309  0.31727  1.0000
  C   C1033     1.0  0.88363  0.33674  0.49000  1.0000
  H   H1850     1.0  0.89782  0.40479  0.49035  1.0000
  H   H1851     1.0  0.66804  0.46016  0.07569  1.0000
  H   H1852     1.0  0.63603  0.43889  0.40874  1.0000
  C   C1034     1.0  0.75823  0.35385  0.41329  1.0000
  C   C1035     1.0  0.74566  0.33761  0.42466  1.0000
  C   C1036     1.0  0.73172  0.32355  0.41260  1.0000
  C   C1037     1.0  0.72984  0.32577  0.38912  1.0000
  C   C1038     1.0  0.74284  0.34166  0.37768  1.0000
  C   C1039     1.0  0.75687  0.35566  0.38971  1.0000
  H   H1853     1.0  0.74650  0.33601  0.44276  1.0000
  H   H1854     1.0  0.72193  0.31117  0.42162  1.0000
  H   H1855     1.0  0.74199  0.34323  0.35959  1.0000
  H   H1856     1.0  0.76668  0.36804  0.38071  1.0000
  C   C1040     1.0  0.80887  0.47617  0.47948  1.0000
  H   H1857     1.0  0.52571  0.26552  0.25790  1.0000
  H   H1858     1.0  0.81090  0.46228  0.46823  1.0000
  C   C1041     1.0  0.74229  0.25770  0.25164  1.0000
  H   H1859     1.0  0.76774  0.45280  0.12326  1.0000
  H   H1860     1.0  0.61351  0.26622  0.26734  1.0000
  H   H1861     1.0  0.77490  0.30486  0.35850  1.0000
  H   H1862     1.0  0.78765  0.30439  0.05577  1.0000
  C   C1042     1.0  0.65094  0.41478  0.23425  1.0000
  C   C1043     1.0  0.64479  0.42139  0.25608  1.0000
  C   C1044     1.0  0.64689  0.40625  0.27436  1.0000
  C   C1045     1.0  0.65554  0.38443  0.27121  1.0000
  C   C1046     1.0  0.66222  0.37802  0.24946  1.0000
  C   C1047     1.0  0.65985  0.39308  0.23114  1.0000
  H   H1863     1.0  0.63826  0.43809  0.25888  1.0000
  H   H1864     1.0  0.64176  0.41147  0.29109  1.0000
  H   H1865     1.0  0.66889  0.36135  0.24671  1.0000
  H   H1866     1.0  0.66477  0.38775  0.21439  1.0000
  C   C1048     1.0  0.61816  0.36320  0.34406  1.0000
  H   H1867     1.0  0.83825  0.25625  0.05023  1.0000
  C   C1049     1.0  0.79866  0.31718  0.04791  1.0000
  H   H1868     1.0  0.85339  0.36638  0.40501  1.0000
  C   C1050     1.0  0.65075  0.41041  0.39123  1.0000
  H   H1869     1.0  0.82721  0.29678  0.12543  1.0000
  C   C1051     1.0  0.80395  0.27011  0.12413  1.0000
  H   H1870     1.0  0.63606  0.40989  0.38012  1.0000
  C   C1052     1.0  0.67248  0.40369  0.37784  1.0000
  H   H1871     1.0  0.60438  0.28470  0.33928  1.0000
  H   H1872     1.0  0.61519  0.37983  0.33615  1.0000
  H   H1873     1.0  0.96961  0.28156  0.00896  1.0000
  H   H1874     1.0  0.55346  0.26592  0.28417  1.0000
  H   H1875     1.0  0.89310  0.38217  0.06875  1.0000
  S   S241      1.0  0.85149  0.35546  0.01044  1.0000
  H   H1876     1.0  0.95714  0.40887  0.01938  1.0000
  H   H1877     1.0  0.63738  0.34751  0.37009  1.0000
  S   S242      1.0  0.76812  0.48352  0.02219  1.0000
  H   H1878     1.0  0.69742  0.35575  0.44448  1.0000
  H   H1879     1.0  0.55066  0.38953  0.22154  1.0000
  H   H1880     1.0  0.79185  0.33390  0.05252  1.0000
  C   C1053     1.0  0.69833  0.37599  0.36107  1.0000
  N   N59       1.0  0.67506  0.37952  0.37156  1.0000
  H   H1881     1.0  0.78852  0.29032  0.48006  1.0000
  H   H1882     1.0  0.82146  0.24913  0.24170  1.0000
  H   H1883     1.0  0.67643  0.34654  0.38652  1.0000
  C   C1054     1.0  0.63498  0.36460  0.36299  1.0000
  H   H1884     1.0  0.89983  0.36184  0.00878  1.0000
  C   C1055     1.0  0.91211  0.37810  0.03733  1.0000
  H   H1885     1.0  0.85913  0.25603  0.40143  1.0000
  H   H1886     1.0  0.73019  0.47061  0.11719  1.0000
  H   H1887     1.0  0.85300  0.37469  0.43405  1.0000
  H   H1888     1.0  0.75755  0.42675  0.11281  1.0000
  C   C1056     1.0  0.82190  0.28469  0.11288  1.0000
  C   C1057     1.0  0.67334  0.36412  0.39183  1.0000
  H   H1889     1.0  0.58831  0.41512  0.25853  1.0000
  H   H1890     1.0  0.56674  0.27915  0.35775  1.0000
  H   H1891     1.0  0.65610  0.36440  0.39943  1.0000
  H   H1892     1.0  0.92389  0.39100  0.04227  1.0000
  C   C1058     1.0  0.71441  0.48999  0.16466  1.0000
  C   C1059     1.0  0.56089  0.24951  0.28894  1.0000
  H   H1893     1.0  0.55713  0.40638  0.18420  1.0000
  H   H1894     1.0  0.72661  0.43309  0.22641  1.0000
  C   C1060     1.0  0.88870  0.29635  0.49231  1.0000
  H   H1895     1.0  0.59217  0.43842  0.20180  1.0000
  H   H1896     1.0  0.68717  0.38606  0.41742  1.0000
  C   C1061     1.0  0.70318  0.38867  0.33855  1.0000
  C   C1062     1.0  0.68475  0.35318  0.43138  1.0000
  H   H1897     1.0  0.70162  0.40692  0.34073  1.0000
  N   N60       1.0  0.92923  0.37930  0.99625  1.0000
  H   H1898     1.0  0.77755  0.24808  0.29585  1.0000
  H   H1899     1.0  0.82607  0.26058  0.20162  1.0000
  H   H1900     1.0  0.80149  0.33949  0.08738  1.0000
  H   H1901     1.0  0.58213  0.37362  0.24674  1.0000
  H   H1902     1.0  0.78901  0.27539  0.44061  1.0000
  H   H1903     1.0  0.98613  0.33893  0.01184  1.0000
  H   H1904     1.0  0.60185  0.35698  0.35092  1.0000
  H   H1905     1.0  0.76637  0.27282  0.22872  1.0000
  H   H1906     1.0  0.54362  0.44414  0.17200  1.0000
  C   C1063     1.0  0.69818  0.47578  0.15125  1.0000
  H   H1907     1.0  0.67254  0.41448  0.36249  1.0000
  C   C1064     1.0  0.57551  0.43044  0.20447  1.0000
  N   N61       1.0  0.57617  0.41468  0.22442  1.0000
  H   H1908     1.0  0.66609  0.43570  0.41151  1.0000
  H   H1909     1.0  0.55661  0.42895  0.14899  1.0000
  H   H1910     1.0  0.62454  0.35146  0.33099  1.0000
  H   H1911     1.0  0.50802  0.39394  0.23126  1.0000
  C   C1065     1.0  0.83914  0.25023  0.21012  1.0000
  H   H1912     1.0  0.68732  0.40896  0.38737  1.0000
  H   H1913     1.0  0.87799  0.36869  0.04714  1.0000
  H   H1914     1.0  0.55177  0.25850  0.24383  1.0000
  H   H1915     1.0  0.57385  0.47197  0.27894  1.0000
  H   H1916     1.0  0.65455  0.44611  0.38537  1.0000
  H   H1917     1.0  0.64780  0.39947  0.40612  1.0000
  H   H1918     1.0  0.62720  0.37511  0.37630  1.0000
  C   C1066     1.0  0.59235  0.39576  0.21834  1.0000
  H   H1919     1.0  0.88213  0.39838  0.04555  1.0000
  C   C1067     1.0  0.86778  0.42820  0.46516  1.0000
  H   H1920     1.0  0.53404  0.43765  0.23156  1.0000
  C   C1068     1.0  0.83052  0.26851  0.42179  1.0000
  H   H1921     1.0  0.56368  0.44455  0.20771  1.0000
  H   H1922     1.0  0.99403  0.36627  0.02075  1.0000
  C   C1069     1.0  0.85409  0.44147  0.44786  1.0000
  H   H1923     1.0  0.70148  0.35791  0.35788  1.0000
  C   C1070     1.0  0.72718  0.38374  0.32975  1.0000
  C   C1071     1.0  0.90719  0.33833  0.48700  1.0000
  H   H1924     1.0  0.92901  0.42105  0.02244  1.0000
  H   H1925     1.0  0.56436  0.25108  0.30715  1.0000
  H   H1926     1.0  0.55542  0.44044  0.26094  1.0000
  H   H1927     1.0  0.71155  0.38106  0.37275  1.0000
  H   H1928     1.0  0.69846  0.48183  0.13353  1.0000
  S   S243      1.0  0.55118  0.48833  0.19876  1.0000
  H   H1929     1.0  0.69147  0.38377  0.32535  1.0000
  H   H1930     1.0  0.80254  0.29853  0.01676  1.0000
  H   H1931     1.0  0.60074  0.46292  0.26725  1.0000
  H   H1932     1.0  0.50742  0.47384  0.21408  1.0000
  H   H1933     1.0  0.83672  0.27376  0.10859  1.0000
  H   H1934     1.0  0.70724  0.36614  0.40600  1.0000
  H   H1935     1.0  0.65472  0.38793  0.34265  1.0000
  C   C1072     1.0  0.60952  0.35779  0.22827  1.0000
  C   C1073     1.0  0.55334  0.40530  0.23062  1.0000
  H   H1936     1.0  0.82446  0.26597  0.43942  1.0000
  C   C1074     1.0  0.75886  0.25737  0.23423  1.0000
  H   H1937     1.0  0.58574  0.38607  0.20424  1.0000
  H   H1938     1.0  0.61459  0.34671  0.24248  1.0000
  H   H1939     1.0  0.66502  0.36017  0.34313  1.0000
  H   H1940     1.0  0.76864  0.29624  0.43302  1.0000
  C   C1075     1.0  0.94883  0.36665  0.00646  1.0000
  H   H1941     1.0  0.82700  0.34509  0.44456  1.0000
  H   H1942     1.0  0.76140  0.28125  0.47130  1.0000
  H   H1943     1.0  0.72854  0.45577  0.19162  1.0000
  H   H1944     1.0  0.72965  0.36571  0.32648  1.0000
  C   C1076     1.0  0.98355  0.28896  0.99971  1.0000
  H   H1945     1.0  0.88558  0.43340  0.46401  1.0000
  H   H1946     1.0  0.86791  0.41046  0.45999  1.0000
  H   H1947     1.0  0.79767  0.25787  0.11209  1.0000
  H   H1948     1.0  0.78516  0.27651  0.36226  1.0000
  H   H1949     1.0  0.60923  0.38605  0.24959  1.0000
  H   H1950     1.0  0.82765  0.37741  0.41812  1.0000
  C   C1077     1.0  0.59784  0.26811  0.34129  1.0000
  C   C1078     1.0  0.65202  0.43425  0.39968  1.0000
  N   N62       1.0  0.70212  0.45091  0.15223  1.0000
  C   C1079     1.0  0.72536  0.44435  0.14328  1.0000
  C   C1080     1.0  0.69831  0.44202  0.17598  1.0000
  C   C1081     1.0  0.68522  0.44030  0.13735  1.0000
  S   S244      1.0  0.86663  0.36171  0.49059  1.0000
  C   C1082     1.0  0.90849  0.37778  0.01154  1.0000
  C   C1083     1.0  0.73137  0.45220  0.11885  1.0000
  C   C1084     1.0  0.66008  0.44239  0.14519  1.0000
  C   C1085     1.0  0.71895  0.44022  0.19145  1.0000
  C   C1086     1.0  0.71160  0.43461  0.21569  1.0000
  C   C1087     1.0  0.58581  0.42666  0.24401  1.0000
  H   H1951     1.0  0.49622  0.42181  0.23282  1.0000
  C   C1088     1.0  0.64496  0.42946  0.12984  1.0000
  H   H1952     1.0  0.72750  0.42587  0.14397  1.0000
  H   H1953     1.0  0.73868  0.45074  0.15402  1.0000
  H   H1954     1.0  0.68491  0.45214  0.18481  1.0000
  H   H1955     1.0  0.69174  0.42476  0.17576  1.0000
  H   H1956     1.0  0.68936  0.42222  0.13546  1.0000
  H   H1957     1.0  0.68600  0.44770  0.12012  1.0000
  H   H1958     1.0  0.83106  0.39381  0.03182  1.0000
  H   H1959     1.0  0.84536  0.29511  0.40166  1.0000
  H   H1960     1.0  0.89589  0.39107  0.00712  1.0000
  H   H1961     1.0  0.60277  0.43300  0.23914  1.0000
  H   H1962     1.0  0.72012  0.44486  0.10648  1.0000
  H   H1963     1.0  0.78955  0.28049  0.13057  1.0000
  H   H1964     1.0  0.65425  0.46002  0.14489  1.0000
  H   H1965     1.0  0.65729  0.43573  0.16245  1.0000
  H   H1966     1.0  0.73059  0.42663  0.18558  1.0000
  S   S245      1.0  0.60813  0.48786  0.22478  1.0000
  C   C1089     1.0  0.51102  0.41106  0.23714  1.0000
  Fe  Fe120     1.0  0.96709  0.26308  0.48718  1.0000
  H   H1967     1.0  0.70021  0.44793  0.22257  1.0000
  H   H1968     1.0  0.58506  0.41228  0.17389  1.0000
  H   H1969     1.0  0.55271  0.40045  0.24878  1.0000
  C   C1090     1.0  0.68939  0.36877  0.41133  1.0000
  H   H1970     1.0  0.79713  0.29395  0.34032  1.0000
  C   C1091     1.0  0.81303  0.29619  0.09116  1.0000
  H   H1971     1.0  0.81101  0.28224  0.07925  1.0000
  H   H1972     1.0  0.64697  0.43529  0.11210  1.0000
  H   H1973     1.0  0.64913  0.41137  0.13085  1.0000
  H   H1974     1.0  0.62705  0.43206  0.13526  1.0000
  N   N63       1.0  0.82724  0.31430  0.08033  1.0000
  C   C1092     1.0  0.85201  0.30942  0.08374  1.0000
  H   H1975     1.0  0.81408  0.33112  0.12502  1.0000
  C   C1093     1.0  0.82348  0.31418  0.05529  1.0000
  C   C1094     1.0  0.82000  0.33691  0.08896  1.0000
  C   C1095     1.0  0.82490  0.34155  0.11385  1.0000
  C   C1096     1.0  0.86863  0.32662  0.07348  1.0000
  C   C1097     1.0  0.52354  0.49362  0.18802  1.0000
  H   H1976     1.0  0.80749  0.32806  0.01366  1.0000
  H   H1977     1.0  0.59773  0.27660  0.29134  1.0000
  C   C1098     1.0  0.81943  0.36585  0.11954  1.0000
  C   C1099     1.0  0.89288  0.32092  0.07986  1.0000
  C   C1100     1.0  0.53227  0.42037  0.22579  1.0000
  H   H1978     1.0  0.85672  0.29291  0.07657  1.0000
  H   H1979     1.0  0.85589  0.30785  0.10182  1.0000
  Fe  Fe121     1.0  0.82823  0.36809  0.49328  1.0000
  C   C1101     1.0  0.81177  0.41208  0.00704  1.0000
  H   H1980     1.0  0.83032  0.29835  0.04801  1.0000
  H   H1981     1.0  0.83282  0.32777  0.04661  1.0000
  H   H1982     1.0  0.82757  0.35032  0.07825  1.0000
  C   C1102     1.0  0.53471  0.25232  0.24826  1.0000
  H   H1983     1.0  0.84285  0.33833  0.11772  1.0000
  H   H1984     1.0  0.68099  0.48022  0.15774  1.0000
  H   H1985     1.0  0.86817  0.32680  0.05486  1.0000
  H   H1986     1.0  0.86460  0.34360  0.07963  1.0000
  H   H1987     1.0  0.52190  0.26546  0.21678  1.0000
  H   H1988     1.0  0.81264  0.31874  0.36809  1.0000
  C   C1103     1.0  0.75547  0.44516  0.11206  1.0000
  H   H1989     1.0  0.81133  0.26069  0.13849  1.0000
  H   H1990     1.0  0.60875  0.40241  0.21198  1.0000
  S   S246      1.0  0.85309  0.28981  0.00399  1.0000
  H   H1991     1.0  0.85249  0.33404  0.43173  1.0000
  H   H1992     1.0  0.83023  0.37718  0.10925  1.0000
  H   H1993     1.0  0.80142  0.36997  0.11644  1.0000
  H   H1994     1.0  0.82264  0.36868  0.13758  1.0000
  H   H1995     1.0  0.89467  0.32130  0.09840  1.0000
  H   H1996     1.0  0.89802  0.30414  0.07372  1.0000
  H   H1997     1.0  0.90445  0.33324  0.07202  1.0000
  C   C1104     1.0  0.50477  0.48418  0.19932  1.0000
  C   C1105     1.0  0.85234  0.25469  0.41898  1.0000
  H   H1998     1.0  0.91925  0.36172  0.04290  1.0000
  H   H1999     1.0  0.82278  0.29045  0.37245  1.0000
  N   N64       1.0  0.81439  0.30881  0.41633  1.0000
  C   C1106     1.0  0.79831  0.30225  0.39842  1.0000
  C   C1107     1.0  0.80206  0.30987  0.43893  1.0000
  C   C1108     1.0  0.82258  0.33188  0.41038  1.0000
  C   C1109     1.0  0.83483  0.29348  0.41735  1.0000
  H   H2000     1.0  0.77920  0.31820  0.01747  1.0000
  C   C1110     1.0  0.80786  0.30182  0.37392  1.0000
  C   C1111     1.0  0.83660  0.34344  0.42845  1.0000
  C   C1112     1.0  0.78327  0.29267  0.44385  1.0000
  H   H2001     1.0  0.52166  0.27032  0.30281  1.0000
  C   C1113     1.0  0.79015  0.29378  0.35784  1.0000
  C   C1114     1.0  0.84302  0.36691  0.42082  1.0000
  H   H2002     1.0  0.78340  0.31388  0.39864  1.0000
  H   H2003     1.0  0.79131  0.28558  0.40196  1.0000
  H   H2004     1.0  0.81429  0.30869  0.45282  1.0000
  H   H2005     1.0  0.79324  0.32636  0.44079  1.0000
  H   H2006     1.0  0.80802  0.34315  0.40643  1.0000
  H   H2007     1.0  0.83345  0.33157  0.39486  1.0000
  C   C1115     1.0  0.67291  0.47602  0.08218  1.0000
  H   H2008     1.0  0.84597  0.29855  0.43105  1.0000
  H   H2009     1.0  0.62497  0.36219  0.21838  1.0000
  H   H2010     1.0  0.73971  0.38895  0.34209  1.0000
  H   H2011     1.0  0.56834  0.45938  0.24073  1.0000
  H   H2012     1.0  0.59810  0.34857  0.21742  1.0000
  H   H2013     1.0  0.70263  0.41857  0.21648  1.0000
  C   C1116     1.0  0.59622  0.26903  0.27452  1.0000
  H   H2014     1.0  0.86214  0.43958  0.43090  1.0000
  H   H2015     1.0  0.73023  0.39300  0.31370  1.0000
  C   C1117     1.0  0.57164  0.44638  0.25372  1.0000
  H   H2016     1.0  0.58697  0.28082  0.26336  1.0000
  C   C1118     1.0  0.77463  0.29381  0.46826  1.0000
  C   C1119     1.0  0.58382  0.45725  0.27294  1.0000
  H   H2017     1.0  0.73229  0.48602  0.16030  1.0000
  C   C1120     1.0  0.86601  0.24632  0.07084  1.0000
  H   H2018     1.0  0.86525  0.26037  0.43072  1.0000
  H   H2019     1.0  0.76706  0.31051  0.47182  1.0000
  C   C1121     1.0  0.83354  0.37738  0.99981  1.0000
  C   C1122     1.0  0.79696  0.31535  0.02240  1.0000
  C   C1123     1.0  0.91226  0.29793  0.48935  1.0000
  H   H2020     1.0  0.80615  0.42493  0.01859  1.0000
  H   H2021     1.0  0.80485  0.26007  0.29147  1.0000
  H   H2022     1.0  0.64747  0.47593  0.10902  1.0000
  H   H2023     1.0  0.58584  0.44532  0.28724  1.0000
  H   H2024     1.0  0.87998  0.46762  0.47924  1.0000
  H   H2025     1.0  0.95277  0.37308  0.02323  1.0000
  C   C1124     1.0  0.94316  0.41732  0.01042  1.0000
  C   C1125     1.0  0.85762  0.42977  0.48955  1.0000
  H   H2026     1.0  0.75919  0.45087  0.09451  1.0000
  Fe  Fe122     1.0  0.73019  0.48617  0.01936  1.0000
  H   H2027     1.0  0.95723  0.44974  0.01612  1.0000
  C   C1126     1.0  0.95184  0.43971  0.00175  1.0000
  C   C1127     1.0  0.69043  0.48770  0.07115  1.0000
  H   H2028     1.0  0.93944  0.32068  0.48425  1.0000
  H   H2029     1.0  0.85203  0.26141  0.21667  1.0000
  H   H2030     1.0  0.81669  0.25837  0.01587  1.0000
  C   C1128     1.0  0.61040  0.24992  0.33291  1.0000
  C   C1129     1.0  0.66135  0.48478  0.10132  1.0000
  H   H2031     1.0  0.91453  0.35456  0.48491  1.0000
  C   C1130     1.0  0.58413  0.24687  0.27652  1.0000
  H   H2032     1.0  0.83961  0.43539  0.48882  1.0000
  H   H2033     1.0  0.94421  0.34893  0.00959  1.0000
  S   S247      1.0  0.99481  0.27066  0.46172  1.0000
  C   C1131     1.0  0.51099  0.25560  0.30089  1.0000
  H   H2034     1.0  0.71128  0.48733  0.18297  1.0000
  Fe  Fe123     1.0  0.86912  0.32304  0.99805  1.0000
  H   H2035     1.0  0.50204  0.25680  0.28479  1.0000
  C   C1132     1.0  0.92141  0.31910  0.48660  1.0000
  C   C1133     1.0  0.87447  0.31556  0.49259  1.0000
  C   C1134     1.0  0.99046  0.35597  0.00596  1.0000
  S   S248      1.0  0.92923  0.27293  0.48953  1.0000
  H   H2036     1.0  0.50068  0.25544  0.33644  1.0000
  S   S249      1.0  0.76510  0.38912  0.49304  1.0000
  H   H2037     1.0  0.85271  0.47287  0.49128  1.0000
  H   H2038     1.0  0.79029  0.24732  0.00760  1.0000
  C   C1135     1.0  0.80888  0.24575  0.00531  1.0000
  C   C1136     1.0  0.52241  0.24940  0.22627  1.0000
  C   C1137     1.0  0.79601  0.24446  0.29599  1.0000
  H   H2039     1.0  0.78097  0.27180  0.82837  1.0000
  H   H2040     1.0  0.75400  0.40928  0.89866  1.0000
  H   H2041     1.0  0.78553  0.39518  0.87234  1.0000
  H   H2042     1.0  0.60770  0.32017  0.75318  1.0000
  C   C1138     1.0  0.57576  0.26177  0.64865  1.0000
  H   H2043     1.0  0.91740  0.25423  0.53267  1.0000
  H   H2044     1.0  0.91955  0.41245  0.98470  1.0000
  H   H2045     1.0  0.88662  0.40097  0.51821  1.0000
  H   H2046     1.0  0.50360  0.26381  0.53755  1.0000
  H   H2047     1.0  0.88444  0.37133  0.93178  1.0000
  H   H2048     1.0  0.85314  0.25851  0.78295  1.0000
  Fe  Fe124     1.0  0.87083  0.27883  0.97172  1.0000
  H   H2049     1.0  0.57761  0.41043  0.85452  1.0000
  S   S250      1.0  0.88506  0.31296  0.96474  1.0000
  Fe  Fe125     1.0  0.78076  0.36213  0.51485  1.0000
  S   S251      1.0  0.75975  0.33846  0.53716  1.0000
  S   S252      1.0  0.81036  0.38275  0.52385  1.0000
  Fe  Fe126     1.0  0.69949  0.29126  0.70604  1.0000
  S   S253      1.0  0.66151  0.29266  0.70698  1.0000
  S   S254      1.0  0.71378  0.27443  0.73769  1.0000
  Fe  Fe127     1.0  0.70116  0.31891  0.66167  1.0000
  S   S255      1.0  0.66327  0.32109  0.65991  1.0000
  S   S256      1.0  0.72287  0.34210  0.63951  1.0000
  Fe  Fe128     1.0  0.66414  0.32876  0.69691  1.0000
  S   S257      1.0  0.63991  0.35527  0.71166  1.0000
  Fe  Fe129     1.0  0.66363  0.28482  0.67017  1.0000
  H   H2050     1.0  0.71296  0.39917  0.96451  1.0000
  S   S258      1.0  0.70173  0.32799  0.69850  1.0000
  S   S259      1.0  0.70187  0.28184  0.66945  1.0000
  H   H2051     1.0  0.73500  0.41809  0.97071  1.0000
  H   H2052     1.0  0.70742  0.44002  0.65118  1.0000
  H   H2053     1.0  0.65772  0.26552  0.58594  1.0000
  H   H2054     1.0  0.55691  0.28022  0.57148  1.0000
  C   C1139     1.0  0.72133  0.44017  0.89120  1.0000
  H   H2055     1.0  0.53511  0.26948  0.68024  1.0000
  Fe  Fe130     1.0  0.63966  0.47271  0.77835  1.0000
  S   S260      1.0  0.66176  0.44731  0.75869  1.0000
  S   S261      1.0  0.61870  0.46362  0.80888  1.0000
  C   C1140     1.0  0.85080  0.24527  0.92358  1.0000
  C   C1141     1.0  0.87788  0.25047  0.80776  1.0000
  H   H2056     1.0  0.72502  0.38258  0.66596  1.0000
  H   H2057     1.0  0.91531  0.25695  0.60005  1.0000
  C   C1142     1.0  0.64629  0.38031  0.72567  1.0000
  C   C1143     1.0  0.62855  0.39499  0.73220  1.0000
  C   C1144     1.0  0.63285  0.41529  0.74284  1.0000
  C   C1145     1.0  0.65502  0.42121  0.74701  1.0000
  C   C1146     1.0  0.67271  0.40640  0.74068  1.0000
  C   C1147     1.0  0.66841  0.38607  0.73014  1.0000
  H   H2058     1.0  0.61135  0.39073  0.72890  1.0000
  H   H2059     1.0  0.61905  0.42650  0.74753  1.0000
  H   H2060     1.0  0.68989  0.41073  0.74398  1.0000
  H   H2061     1.0  0.68222  0.37487  0.72549  1.0000
  H   H2062     1.0  0.56597  0.26460  0.72403  1.0000
  H   H2063     1.0  0.89204  0.25566  0.79644  1.0000
  H   H2064     1.0  0.60349  0.28407  0.65250  1.0000
  C   C1148     1.0  0.74949  0.34009  0.56561  1.0000
  C   C1149     1.0  0.75399  0.35803  0.57945  1.0000
  C   C1150     1.0  0.74567  0.35833  0.60194  1.0000
  C   C1151     1.0  0.73270  0.34079  0.61092  1.0000
  C   C1152     1.0  0.72808  0.32293  0.59706  1.0000
  C   C1153     1.0  0.73645  0.32260  0.57459  1.0000
  H   H2065     1.0  0.76399  0.37159  0.57285  1.0000
  H   H2066     1.0  0.74944  0.37220  0.61249  1.0000
  H   H2067     1.0  0.71819  0.30930  0.60367  1.0000
  H   H2068     1.0  0.73286  0.30863  0.56409  1.0000
  H   H2069     1.0  0.53625  0.29197  0.72635  1.0000
  C   C1154     1.0  0.54396  0.28871  0.70944  1.0000
  H   H2070     1.0  0.91419  0.37629  0.92822  1.0000
  C   C1155     1.0  0.59273  0.42049  0.85061  1.0000
  C   C1156     1.0  0.69862  0.44547  0.85574  1.0000
  H   H2071     1.0  0.78733  0.46170  0.90614  1.0000
  H   H2072     1.0  0.77182  0.46950  0.93125  1.0000
  C   C1157     1.0  0.71303  0.41052  0.63202  1.0000
  H   H2073     1.0  0.53021  0.48333  0.94589  1.0000
  H   H2074     1.0  0.94718  0.40426  0.97666  1.0000
  C   C1158     1.0  0.56019  0.24549  0.58400  1.0000
  N   N65       1.0  0.56695  0.47639  0.87399  1.0000
  C   C1159     1.0  0.56023  0.46724  0.89698  1.0000
  C   C1160     1.0  0.85702  0.44526  0.52760  1.0000
  H   H2075     1.0  0.60835  0.45020  0.86101  1.0000
  C   C1161     1.0  0.69741  0.42525  0.64723  1.0000
  H   H2076     1.0  0.51764  0.26695  0.57831  1.0000
  C   C1162     1.0  0.67537  0.39373  0.66395  1.0000
  C   C1163     1.0  0.65490  0.39685  0.64840  1.0000
  H   H2077     1.0  0.56864  0.30163  0.75128  1.0000
  H   H2078     1.0  0.77258  0.28108  0.79349  1.0000
  C   C1164     1.0  0.64445  0.37457  0.64334  1.0000
  H   H2079     1.0  0.66901  0.38627  0.68011  1.0000
  H   H2080     1.0  0.72937  0.41116  0.59895  1.0000
  H   H2081     1.0  0.52311  0.26351  0.60793  1.0000
  H   H2082     1.0  0.64150  0.40733  0.65657  1.0000
  H   H2083     1.0  0.65996  0.40459  0.63205  1.0000
  H   H2084     1.0  0.70713  0.37334  0.68869  1.0000
  C   C1165     1.0  0.80498  0.41322  0.98466  1.0000
  H   H2085     1.0  0.71919  0.42224  0.88747  1.0000
  H   H2086     1.0  0.65676  0.36380  0.63390  1.0000
  H   H2087     1.0  0.63915  0.36605  0.65923  1.0000
  H   H2088     1.0  0.62938  0.37730  0.63289  1.0000
  C   C1166     1.0  0.97127  0.36647  0.99247  1.0000
  H   H2089     1.0  0.96230  0.29204  0.55649  1.0000
  H   H2090     1.0  0.84878  0.40955  0.53095  1.0000
  C   C1167     1.0  0.52769  0.27295  0.59235  1.0000
  C   C1168     1.0  0.55289  0.27029  0.58689  1.0000
  H   H2091     1.0  0.83980  0.45236  0.52479  1.0000
  H   H2092     1.0  0.70031  0.41006  0.70247  1.0000
  H   H2093     1.0  0.69238  0.44708  0.70491  1.0000
  H   H2094     1.0  0.52828  0.25628  0.70699  1.0000
  H   H2095     1.0  0.57209  0.31011  0.67531  1.0000
  Fe  Fe131     1.0  0.63608  0.49096  0.82694  1.0000
  C   C1169     1.0  0.52885  0.27246  0.69772  1.0000
  H   H2096     1.0  0.56195  0.27750  0.60110  1.0000
  H   H2097     1.0  0.75179  0.26106  0.70779  1.0000
  C   C1170     1.0  0.73961  0.25973  0.74215  1.0000
  C   C1171     1.0  0.80950  0.27655  0.79242  1.0000
  H   H2098     1.0  0.63542  0.28589  0.58176  1.0000
  H   H2099     1.0  0.92591  0.29034  0.57856  1.0000
  H   H2100     1.0  0.91117  0.28506  0.55353  1.0000
  C   C1172     1.0  0.63960  0.26942  0.58949  1.0000
  H   H2101     1.0  0.60802  0.41031  0.85452  1.0000
  H   H2102     1.0  0.76921  0.30792  0.76280  1.0000
  C   C1173     1.0  0.52792  0.48846  0.79685  1.0000
  C   C1174     1.0  0.62514  0.25129  0.57985  1.0000
  C   C1175     1.0  0.93466  0.40327  0.99090  1.0000
  C   C1176     1.0  0.94600  0.29249  0.54775  1.0000
  C   C1177     1.0  0.78562  0.29897  0.76489  1.0000
  H   H2103     1.0  0.58615  0.34366  0.65700  1.0000
  C   C1178     1.0  0.59223  0.44167  0.86458  1.0000
  C   C1179     1.0  0.91206  0.24970  0.58332  1.0000
  H   H2104     1.0  0.51142  0.27951  0.69695  1.0000
  H   H2105     1.0  0.92412  0.40901  0.53387  1.0000
  C   C1180     1.0  0.92722  0.28134  0.56229  1.0000
  C   C1181     1.0  0.80053  0.47254  0.50144  1.0000
  Fe  Fe132     1.0  0.91528  0.30055  0.98463  1.0000
  H   H2106     1.0  0.59628  0.27342  0.58299  1.0000
  C   C1182     1.0  0.75082  0.46686  0.90129  1.0000
  C   C1183     1.0  0.95308  0.25273  0.57654  1.0000
  Fe  Fe133     1.0  0.76848  0.46644  0.98850  1.0000
  H   H2107     1.0  0.65191  0.45953  0.71068  1.0000
  H   H2108     1.0  0.73249  0.25560  0.77768  1.0000
  H   H2109     1.0  0.55707  0.44638  0.85730  1.0000
  H   H2110     1.0  0.73367  0.45273  0.85779  1.0000
  H   H2111     1.0  0.79940  0.31047  0.76014  1.0000
  C   C1184     1.0  0.71901  0.38641  0.68321  1.0000
  H   H2112     1.0  0.56313  0.27502  0.64853  1.0000
  H   H2113     1.0  0.52951  0.46916  0.84182  1.0000
  H   H2114     1.0  0.57364  0.27120  0.69568  1.0000
  C   C1185     1.0  0.76065  0.42639  0.89724  1.0000
  C   C1186     1.0  0.68454  0.48521  0.91972  1.0000
  H   H2115     1.0  0.97636  0.38354  0.98761  1.0000
  H   H2116     1.0  0.73756  0.47870  0.90766  1.0000
  C   C1187     1.0  0.85474  0.42326  0.54124  1.0000
  H   H2117     1.0  0.59653  0.27400  0.74860  1.0000
  S   S262      1.0  0.79432  0.44536  0.51245  1.0000
  H   H2118     1.0  0.65857  0.46453  0.90687  1.0000
  C   C1188     1.0  0.68208  0.45178  0.69019  1.0000
  H   H2119     1.0  0.58934  0.26581  0.54645  1.0000
  C   C1189     1.0  0.71999  0.41572  0.96027  1.0000
  H   H2120     1.0  0.75243  0.44061  0.93909  1.0000
  H   H2121     1.0  0.70189  0.42444  0.59997  1.0000
  H   H2122     1.0  0.71508  0.47152  0.87285  1.0000
  N   N66       1.0  0.81582  0.27138  0.81645  1.0000
  H   H2123     1.0  0.95325  0.32419  0.53150  1.0000
  C   C1190     1.0  0.92419  0.36816  0.97435  1.0000
  C   C1191     1.0  0.78774  0.29098  0.78929  1.0000
  C   C1192     1.0  0.82119  0.29284  0.82801  1.0000
  C   C1193     1.0  0.83872  0.29139  0.84705  1.0000
  C   C1194     1.0  0.85610  0.26246  0.80083  1.0000
  C   C1195     1.0  0.54386  0.48184  0.91171  1.0000
  H   H2124     1.0  0.94833  0.28393  0.53148  1.0000
  H   H2125     1.0  0.68646  0.38056  0.65641  1.0000
  C   C1196     1.0  0.83880  0.31290  0.86044  1.0000
  C   C1197     1.0  0.54865  0.49061  0.86349  1.0000
  C   C1198     1.0  0.90131  0.36761  0.93877  1.0000
  H   H2126     1.0  0.60901  0.32347  0.65864  1.0000
  H   H2127     1.0  0.92364  0.31858  0.53443  1.0000
  S   S263      1.0  0.95116  0.31038  0.97274  1.0000
  H   H2128     1.0  0.55187  0.45092  0.89550  1.0000
  H   H2129     1.0  0.65372  0.47473  0.68421  1.0000
  H   H2130     1.0  0.82334  0.28543  0.78335  1.0000
  H   H2131     1.0  0.82789  0.30530  0.81563  1.0000
  H   H2132     1.0  0.80542  0.30075  0.83504  1.0000
  H   H2133     1.0  0.85596  0.28872  0.83979  1.0000
  H   H2134     1.0  0.75343  0.47153  0.88335  1.0000
  H   H2135     1.0  0.67120  0.48206  0.70723  1.0000
  H   H2136     1.0  0.85869  0.28064  0.80184  1.0000
  H   H2137     1.0  0.78755  0.30583  0.80017  1.0000
  H   H2138     1.0  0.77607  0.44565  0.86900  1.0000
  H   H2139     1.0  0.57474  0.26533  0.50620  1.0000
  C   C1199     1.0  0.79590  0.26030  0.82790  1.0000
  C   C1200     1.0  0.77029  0.42859  0.87291  1.0000
  H   H2140     1.0  0.83563  0.27754  0.85911  1.0000
  H   H2141     1.0  0.63695  0.27037  0.60802  1.0000
  H   H2142     1.0  0.82219  0.31583  0.86907  1.0000
  H   H2143     1.0  0.85187  0.31154  0.87347  1.0000
  H   H2144     1.0  0.84271  0.32732  0.84921  1.0000
  C   C1201     1.0  0.58110  0.34272  0.76338  1.0000
  H   H2145     1.0  0.90469  0.34939  0.93790  1.0000
  H   H2146     1.0  0.80758  0.39688  0.95262  1.0000
  C   C1202     1.0  0.89412  0.43617  0.50901  1.0000
  H   H2147     1.0  0.93816  0.37071  0.96177  1.0000
  N   N67       1.0  0.87010  0.44412  0.50549  1.0000
  H   H2148     1.0  0.71998  0.42256  0.68355  1.0000
  C   C1203     1.0  0.51000  0.47339  0.79738  1.0000
  H   H2149     1.0  0.76285  0.25187  0.86114  1.0000
  H   H2150     1.0  0.59957  0.24748  0.71526  1.0000
  H   H2151     1.0  0.54364  0.30454  0.69973  1.0000
  H   H2152     1.0  0.51377  0.45571  0.79827  1.0000
  C   C1204     1.0  0.94009  0.31694  0.54286  1.0000
  H   H2153     1.0  0.57563  0.33250  0.77816  1.0000
  H   H2154     1.0  0.92331  0.34978  0.97691  1.0000
  C   C1205     1.0  0.83791  0.42602  0.56097  1.0000
  S   S264      1.0  0.73048  0.46713  0.98665  1.0000
  H   H2155     1.0  0.59313  0.35526  0.76907  1.0000
  H   H2156     1.0  0.85295  0.24978  0.58695  1.0000
  H   H2157     1.0  0.65918  0.43713  0.66744  1.0000
  H   H2158     1.0  0.59328  0.42471  0.83235  1.0000
  C   C1206     1.0  0.62997  0.24595  0.73371  1.0000
  H   H2159     1.0  0.79681  0.41425  0.85147  1.0000
  C   C1207     1.0  0.57199  0.45716  0.85837  1.0000
  H   H2160     1.0  0.73374  0.38752  0.71639  1.0000
  H   H2161     1.0  0.83686  0.41014  0.57068  1.0000
  H   H2162     1.0  0.84324  0.43929  0.57237  1.0000
  H   H2163     1.0  0.82083  0.43030  0.55472  1.0000
  C   C1208     1.0  0.66683  0.49055  0.88290  1.0000
  H   H2164     1.0  0.59149  0.43672  0.88262  1.0000
  H   H2165     1.0  0.64416  0.25658  0.73833  1.0000
  N   N68       1.0  0.58623  0.29412  0.71996  1.0000
  H   H2166     1.0  0.71114  0.41387  0.92571  1.0000
  C   C1209     1.0  0.59861  0.26697  0.65131  1.0000
  C   C1210     1.0  0.90182  0.37555  0.96306  1.0000
  C   C1211     1.0  0.57629  0.31068  0.73657  1.0000
  H   H2167     1.0  0.83238  0.36567  0.96587  1.0000
  C   C1212     1.0  0.56820  0.27882  0.71197  1.0000
  S   S265      1.0  0.55632  0.47775  0.79895  1.0000
  C   C1213     1.0  0.58310  0.32063  0.68533  1.0000
  H   H2168     1.0  0.88366  0.25795  0.91547  1.0000
  H   H2169     1.0  0.70218  0.42840  0.84947  1.0000
  S   S266      1.0  0.64414  0.25552  0.65613  1.0000
  H   H2170     1.0  0.72582  0.43818  0.61153  1.0000
  H   H2171     1.0  0.61852  0.28998  0.73607  1.0000
  H   H2172     1.0  0.66190  0.42239  0.69343  1.0000
  H   H2173     1.0  0.60726  0.34657  0.67781  1.0000
  C   C1214     1.0  0.66354  0.46797  0.69851  1.0000
  H   H2174     1.0  0.75728  0.42407  0.86081  1.0000
  C   C1215     1.0  0.82676  0.37848  0.97744  1.0000
  C   C1216     1.0  0.92243  0.40448  0.51596  1.0000
  H   H2175     1.0  0.80740  0.26082  0.78302  1.0000
  S   S267      1.0  0.64675  0.48147  0.86314  1.0000
  H   H2176     1.0  0.70622  0.44504  0.90171  1.0000
  H   H2177     1.0  0.80107  0.26705  0.86353  1.0000
  H   H2178     1.0  0.75204  0.39706  0.69345  1.0000
  C   C1217     1.0  0.59733  0.33434  0.66868  1.0000
  H   H2179     1.0  0.69287  0.46088  0.67786  1.0000
  C   C1218     1.0  0.81264  0.39626  0.96996  1.0000
  H   H2180     1.0  0.89932  0.39385  0.96264  1.0000
  H   H2181     1.0  0.90003  0.44210  0.52546  1.0000
  H   H2182     1.0  0.78628  0.28462  0.75330  1.0000
  C   C1219     1.0  0.79047  0.41270  0.86915  1.0000
  C   C1220     1.0  0.66902  0.47877  0.90347  1.0000
  C   C1221     1.0  0.60363  0.27997  0.73211  1.0000
  H   H2183     1.0  0.88469  0.27473  0.58074  1.0000
  H   H2184     1.0  0.80434  0.41683  0.88047  1.0000
  H   H2185     1.0  0.96658  0.43720  0.99008  1.0000
  H   H2186     1.0  0.74700  0.36777  0.69742  1.0000
  H   H2187     1.0  0.68300  0.44538  0.86644  1.0000
  H   H2188     1.0  0.68341  0.43202  0.63690  1.0000
  C   C1222     1.0  0.59805  0.30562  0.70044  1.0000
  H   H2189     1.0  0.62191  0.26378  0.70347  1.0000
  H   H2190     1.0  0.86503  0.45672  0.53931  1.0000
  C   C1223     1.0  0.73919  0.38471  0.69861  1.0000
  H   H2191     1.0  0.56227  0.32060  0.72922  1.0000
  H   H2192     1.0  0.61231  0.31552  0.70634  1.0000
  H   H2193     1.0  0.57258  0.33250  0.69536  1.0000
  H   H2194     1.0  0.59829  0.33937  0.73163  1.0000
  H   H2195     1.0  0.70696  0.42868  0.96442  1.0000
  C   C1224     1.0  0.71850  0.45369  0.86895  1.0000
  H   H2196     1.0  0.56626  0.35174  0.75636  1.0000
  H   H2197     1.0  0.72538  0.45308  0.93506  1.0000
  C   C1225     1.0  0.70697  0.40950  0.68483  1.0000
  S   S268      1.0  0.78719  0.43530  0.97401  1.0000
  C   C1226     1.0  0.77317  0.47221  0.91284  1.0000
  H   H2198     1.0  0.72955  0.40782  0.64002  1.0000
  H   H2199     1.0  0.70563  0.39420  0.62852  1.0000
  H   H2200     1.0  0.77487  0.42651  0.90912  1.0000
  N   N69       1.0  0.74272  0.44330  0.90411  1.0000
  Fe  Fe134     1.0  0.79600  0.40902  0.50017  1.0000
  C   C1227     1.0  0.67177  0.43088  0.67968  1.0000
  H   H2201     1.0  0.73882  0.40298  0.93206  1.0000
  H   H2202     1.0  0.68582  0.47600  0.93542  1.0000
  S   S269      1.0  0.99077  0.26165  0.51618  1.0000
  C   C1228     1.0  0.73711  0.43960  0.92884  1.0000
  C   C1229     1.0  0.72655  0.41684  0.93527  1.0000
  H   H2203     1.0  0.93921  0.32654  0.55869  1.0000
  H   H2204     1.0  0.60631  0.29327  0.68915  1.0000
  C   C1230     1.0  0.71775  0.42189  0.60927  1.0000
  N   N70       1.0  0.68822  0.41454  0.66860  1.0000
  C   C1231     1.0  0.59267  0.32809  0.74550  1.0000
  H   H2205     1.0  0.88718  0.36833  0.97239  1.0000
  H   H2206     1.0  0.69562  0.45674  0.84108  1.0000
  H   H2207     1.0  0.79109  0.48856  0.53260  1.0000
  C   C1232     1.0  0.97923  0.30308  0.98130  1.0000
  H   H2208     1.0  0.95567  0.26514  0.58995  1.0000
  H   H2209     1.0  0.87126  0.41830  0.54833  1.0000
  C   C1233     1.0  0.83554  0.25509  0.81562  1.0000
  C   C1234     1.0  0.52686  0.47819  0.85786  1.0000
  H   H2210     1.0  0.79097  0.24565  0.81802  1.0000
  S   S270      1.0  0.84791  0.25727  0.95081  1.0000
  H   H2211     1.0  0.86816  0.48973  0.52444  1.0000
  H   H2212     1.0  0.57556  0.46344  0.90689  1.0000
  S   S271      1.0  0.90182  0.26590  0.98934  1.0000
  H   H2213     1.0  0.81328  0.24917  0.98733  1.0000
  H   H2214     1.0  0.54991  0.25890  0.54032  1.0000
  C   C1235     1.0  0.54251  0.47302  0.93593  1.0000
  H   H2215     1.0  0.52332  0.29079  0.59506  1.0000
  H   H2216     1.0  0.88197  0.25461  0.82533  1.0000
  C   C1236     1.0  0.56249  0.24590  0.53515  1.0000
  H   H2217     1.0  0.96967  0.35662  0.97697  1.0000
  N   N71       1.0  0.93014  0.25654  0.56647  1.0000
  Fe  Fe135     1.0  0.59326  0.48955  0.79699  1.0000
  H   H2218     1.0  0.57536  0.46346  0.84090  1.0000
  C   C1237     1.0  0.61308  0.25908  0.71942  1.0000
  C   C1238     1.0  0.79886  0.25252  0.85260  1.0000
  C   C1239     1.0  0.59978  0.25534  0.58586  1.0000
  H   H2219     1.0  0.84153  0.25118  0.83270  1.0000
  H   H2220     1.0  0.88447  0.25421  0.55913  1.0000
  H   H2221     1.0  0.96667  0.25550  0.56359  1.0000
  H   H2222     1.0  0.99484  0.32326  0.95523  1.0000
  C   C1240     1.0  0.87986  0.48586  0.51007  1.0000
  C   C1241     1.0  0.88760  0.25675  0.57722  1.0000
  C   C1242     1.0  0.75517  0.25515  0.72467  1.0000
  H   H2223     1.0  0.89657  0.48079  0.51662  1.0000
  H   H2224     1.0  0.59766  0.25246  0.60435  1.0000
  H   H2225     1.0  0.53685  0.45551  0.93642  1.0000
  C   C1243     1.0  0.74435  0.25200  0.76402  1.0000
  H   H2226     1.0  0.59451  0.49378  0.85780  1.0000
  H   H2227     1.0  0.60187  0.47952  0.88299  1.0000
  C   C1244     1.0  0.61515  0.25005  0.65188  1.0000
  C   C1245     1.0  0.79761  0.49105  0.51561  1.0000
  H   H2228     1.0  0.52233  0.46566  0.87097  1.0000
  H   H2229     1.0  0.55921  0.47389  0.94386  1.0000
  C   C1246     1.0  0.86997  0.24809  0.90972  1.0000
  C   C1247     1.0  0.58821  0.48965  0.87513  1.0000
  H   H2230     1.0  0.52659  0.48167  0.90505  1.0000
  H   H2231     1.0  0.93544  0.41309  0.50550  1.0000
  H   H2232     1.0  0.92537  0.38622  0.51449  1.0000
  C   C1248     1.0  0.89883  0.41062  0.50791  1.0000
  H   H2233     1.0  0.85644  0.31398  0.49499  1.0000
  C   C1249     1.0  0.49801  0.24631  0.53852  1.0000
  H   H2234     1.0  0.85654  0.41241  0.49593  1.0000
  H   H2235     1.0  0.55100  0.24815  0.50083  1.0000
  C   C1250     1.0  0.56709  0.24892  0.50990  1.0000
  C   C1251     1.0  0.58442  0.24810  0.54865  1.0000
  H   H2236     1.0  0.87257  0.24626  0.60943  1.0000
  H   H2237     1.0  0.62817  0.25102  0.56136  1.0000
  H   H2238     1.0  0.93837  0.44921  0.99288  1.0000
  H   H2239     1.0  0.88137  0.28011  0.49445  1.0000
  H   H2240     1.0  0.94537  0.24434  0.53526  1.0000
  C   C1252     1.0  0.92865  0.24472  0.54424  1.0000
  H   H2241     1.0  0.90578  0.44378  0.49623  1.0000
  C   C1253     1.0  0.87017  0.46737  0.49542  1.0000
  H   H2242     1.0  0.65468  0.70420  0.23805  1.0000
  Fe  Fe136     1.0  0.87534  0.69026  0.02537  1.0000
  S   S272      1.0  0.89439  0.65822  0.01649  1.0000
  S   S273      1.0  0.85949  0.69772  0.06010  1.0000
  H   H2243     1.0  0.67532  0.52331  0.32231  1.0000
  Fe  Fe137     1.0  0.62891  0.51804  0.21621  1.0000
  S   S274      1.0  0.63545  0.54054  0.24632  1.0000
  S   S275      1.0  0.60883  0.52649  0.18542  1.0000
  Fe  Fe138     1.0  0.66130  0.68939  0.32412  1.0000
  S   S276      1.0  0.67455  0.65370  0.32352  1.0000
  S   S277      1.0  0.62741  0.69531  0.34279  1.0000
  Fe  Fe139     1.0  0.70072  0.70608  0.29437  1.0000
  S   S278      1.0  0.71644  0.67195  0.29218  1.0000
  H   H2244     1.0  0.53632  0.70995  0.27230  1.0000
  Fe  Fe140     1.0  0.68165  0.65934  0.28659  1.0000
  S   S279      1.0  0.67790  0.63726  0.25576  1.0000
  Fe  Fe141     1.0  0.70845  0.66855  0.32937  1.0000
  S   S280      1.0  0.73699  0.65104  0.34860  1.0000
  S   S281      1.0  0.66611  0.69384  0.28675  1.0000
  S   S282      1.0  0.69493  0.70389  0.33213  1.0000
  H   H2245     1.0  0.77552  0.72368  0.19623  1.0000
  H   H2246     1.0  0.52701  0.70444  0.35975  1.0000
  H   H2247     1.0  0.49881  0.71628  0.36069  1.0000
  H   H2248     1.0  0.67133  0.72686  0.24800  1.0000
  H   H2249     1.0  0.77773  0.69365  0.48710  1.0000
  H   H2250     1.0  0.55331  0.71669  0.32809  1.0000
  Fe  Fe142     1.0  0.78077  0.61827  0.47348  1.0000
  S   S283      1.0  0.75087  0.63222  0.45356  1.0000
  S   S284      1.0  0.81450  0.60607  0.46022  1.0000
  H   H2251     1.0  0.57046  0.69718  0.27671  1.0000
  H   H2252     1.0  0.80623  0.71609  0.01097  1.0000
  H   H2253     1.0  0.74094  0.61757  0.29635  1.0000
  C   C1254     1.0  0.74024  0.64585  0.37787  1.0000
  C   C1255     1.0  0.75866  0.63255  0.38489  1.0000
  C   C1256     1.0  0.76207  0.62799  0.40792  1.0000
  C   C1257     1.0  0.74725  0.63697  0.42425  1.0000
  C   C1258     1.0  0.72878  0.65017  0.41720  1.0000
  C   C1259     1.0  0.72525  0.65458  0.39416  1.0000
  H   H2254     1.0  0.77034  0.62569  0.37242  1.0000
  H   H2255     1.0  0.77602  0.61736  0.41302  1.0000
  H   H2256     1.0  0.71711  0.65707  0.42967  1.0000
  H   H2257     1.0  0.71100  0.66481  0.38904  1.0000
  S   S285      1.0  0.84915  0.68484  0.99954  1.0000
  C   C1260     1.0  0.70962  0.56133  0.04147  1.0000
  H   H2258     1.0  0.78128  0.71354  0.16831  1.0000
  H   H2259     1.0  0.79351  0.62745  0.02901  1.0000
  H   H2260     1.0  0.68604  0.53777  0.29739  1.0000
  H   H2261     1.0  0.75699  0.71683  0.27190  1.0000
  C   C1261     1.0  0.69619  0.50839  0.07964  1.0000
  C   C1262     1.0  0.66595  0.61039  0.25354  1.0000
  C   C1263     1.0  0.66637  0.59992  0.23247  1.0000
  C   C1264     1.0  0.65703  0.57869  0.22985  1.0000
  C   C1265     1.0  0.64712  0.56760  0.24833  1.0000
  C   C1266     1.0  0.64667  0.57811  0.26938  1.0000
  C   C1267     1.0  0.65603  0.59932  0.27201  1.0000
  H   H2262     1.0  0.67394  0.60827  0.21803  1.0000
  H   H2263     1.0  0.65754  0.57090  0.21355  1.0000
  H   H2264     1.0  0.63876  0.56988  0.28370  1.0000
  H   H2265     1.0  0.65534  0.60720  0.28826  1.0000
  H   H2266     1.0  0.72189  0.71779  0.19148  1.0000
  H   H2267     1.0  0.98271  0.65895  0.04237  1.0000
  H   H2268     1.0  0.84403  0.72857  0.02281  1.0000
  C   C1268     1.0  0.61144  0.72050  0.34630  1.0000
  C   C1269     1.0  0.58978  0.71962  0.35647  1.0000
  H   H2269     1.0  0.69309  0.52006  0.16506  1.0000
  H   H2270     1.0  0.74159  0.65866  0.20993  1.0000
  H   H2271     1.0  0.58332  0.70372  0.36206  1.0000
  S   S286      1.0  0.65399  0.51668  0.13488  1.0000
  H   H2272     1.0  0.77124  0.64906  0.23900  1.0000
  H   H2273     1.0  0.96959  0.69875  0.01968  1.0000
  H   H2274     1.0  0.76268  0.68504  0.19232  1.0000
  H   H2275     1.0  0.99359  0.66497  0.48872  1.0000
  H   H2276     1.0  0.87964  0.69535  0.46751  1.0000
  H   H2277     1.0  0.51652  0.54784  0.24084  1.0000
  C   C1270     1.0  0.53901  0.71916  0.31657  1.0000
  C   C1271     1.0  0.73220  0.70552  0.20118  1.0000
  H   H2278     1.0  0.81135  0.58217  0.03528  1.0000
  H   H2279     1.0  0.55440  0.73769  0.45374  1.0000
  C   C1272     1.0  0.98365  0.69330  0.00906  1.0000
  H   H2280     1.0  0.83544  0.61271  0.02045  1.0000
  H   H2281     1.0  0.74548  0.56577  0.01237  1.0000
  C   C1273     1.0  0.66734  0.50525  0.11006  1.0000
  C   C1274     1.0  0.76055  0.65858  0.25128  1.0000
  H   H2282     1.0  0.84158  0.72472  0.29185  1.0000
  H   H2283     1.0  0.70962  0.51761  0.07149  1.0000
  H   H2284     1.0  0.61444  0.71386  0.29615  1.0000
  H   H2285     1.0  0.73899  0.68775  0.25239  1.0000
  C   C1275     1.0  0.89006  0.68516  0.47839  1.0000
  N   N72       1.0  0.80603  0.68644  0.42295  1.0000
  C   C1276     1.0  0.79031  0.68665  0.40345  1.0000
  C   C1277     1.0  0.79303  0.67965  0.44401  1.0000
  C   C1278     1.0  0.81560  0.70936  0.42509  1.0000
  C   C1279     1.0  0.82545  0.67006  0.41938  1.0000
  C   C1280     1.0  0.81916  0.64642  0.41196  1.0000
  C   C1281     1.0  0.80125  0.69227  0.38013  1.0000
  H   H2286     1.0  0.73867  0.71520  0.21541  1.0000
  C   C1282     1.0  0.77278  0.69517  0.45086  1.0000
  N   N73       1.0  0.54577  0.73403  0.29684  1.0000
  C   C1283     1.0  0.84010  0.63121  0.41004  1.0000
  C   C1284     1.0  0.78475  0.68876  0.36128  1.0000
  S   S287      1.0  0.73073  0.51931  0.00122  1.0000
  H   H2287     1.0  0.77647  0.69922  0.40608  1.0000
  H   H2288     1.0  0.78154  0.67054  0.40254  1.0000
  H   H2289     1.0  0.78588  0.66290  0.44207  1.0000
  H   H2290     1.0  0.80449  0.67760  0.45846  1.0000
  H   H2291     1.0  0.98035  0.63184  0.05575  1.0000
  H   H2292     1.0  0.82770  0.71274  0.41088  1.0000
  H   H2293     1.0  0.83800  0.67656  0.40685  1.0000
  H   H2294     1.0  0.83497  0.66783  0.43514  1.0000
  H   H2295     1.0  0.81116  0.64682  0.39531  1.0000
  H   H2296     1.0  0.80737  0.63875  0.42433  1.0000
  H   H2297     1.0  0.80622  0.70997  0.37945  1.0000
  H   H2298     1.0  0.81643  0.68173  0.37649  1.0000
  H   H2299     1.0  0.66762  0.64068  0.38912  1.0000
  H   H2300     1.0  0.80220  0.72249  0.42339  1.0000
  S   S288      1.0  0.65528  0.49744  0.19744  1.0000
  H   H2301     1.0  0.75850  0.69249  0.43954  1.0000
  C   C1285     1.0  0.71051  0.51482  0.15986  1.0000
  H   H2302     1.0  0.71445  0.62123  0.00411  1.0000
  H   H2303     1.0  0.81602  0.71395  0.46164  1.0000
  H   H2304     1.0  0.83509  0.61426  0.40524  1.0000
  H   H2305     1.0  0.85209  0.63767  0.39699  1.0000
  H   H2306     1.0  0.84869  0.62993  0.42642  1.0000
  H   H2307     1.0  0.79231  0.69438  0.34494  1.0000
  H   H2308     1.0  0.78097  0.67082  0.36000  1.0000
  H   H2309     1.0  0.53379  0.51444  0.16004  1.0000
  H   H2310     1.0  0.75211  0.58477  0.33803  1.0000
  C   C1286     1.0  0.80872  0.72301  0.02793  1.0000
  H   H2311     1.0  0.70317  0.59361  0.02691  1.0000
  H   H2312     1.0  0.53230  0.70928  0.43297  1.0000
  H   H2313     1.0  0.65240  0.73148  0.22521  1.0000
  H   H2314     1.0  0.82165  0.50029  0.45525  1.0000
  H   H2315     1.0  0.65540  0.61351  0.39169  1.0000
  H   H2316     1.0  0.74583  0.69327  0.16884  1.0000
  H   H2317     1.0  0.74709  0.61741  0.02435  1.0000
  H   H2318     1.0  0.69705  0.61156  0.38606  1.0000
  H   H2319     1.0  0.72249  0.52465  0.16949  1.0000
  H   H2320     1.0  0.65621  0.53709  0.30330  1.0000
  H   H2321     1.0  0.54037  0.73684  0.26101  1.0000
  H   H2322     1.0  0.85307  0.73601  0.43251  1.0000
  S   S289      1.0  0.85513  0.65548  0.47750  1.0000
  H   H2323     1.0  0.72014  0.56788  0.99762  1.0000
  H   H2324     1.0  0.74835  0.64716  0.25962  1.0000
  Fe  Fe143     1.0  0.82996  0.62762  0.48641  1.0000
  S   S290      1.0  0.78889  0.54604  0.01465  1.0000
  H   H2325     1.0  0.91703  0.70897  0.47834  1.0000
  C   C1287     1.0  0.49747  0.51073  0.16135  1.0000
  C   C1288     1.0  0.66425  0.71921  0.23292  1.0000
  H   H2326     1.0  0.50595  0.69478  0.34079  1.0000
  H   H2327     1.0  0.81206  0.70896  0.03982  1.0000
  H   H2328     1.0  0.50157  0.71021  0.24820  1.0000
  H   H2329     1.0  0.82047  0.74059  0.30782  1.0000
  S   S291      1.0  0.82115  0.54311  0.47654  1.0000
  H   H2330     1.0  0.50422  0.73230  0.32254  1.0000
  H   H2331     1.0  0.53057  0.71232  0.40284  1.0000
  C   C1289     1.0  0.71810  0.58273  0.03021  1.0000
  H   H2332     1.0  0.66684  0.63561  0.18024  1.0000
  H   H2333     1.0  0.52798  0.54450  0.21267  1.0000
  H   H2334     1.0  0.65298  0.62959  0.36580  1.0000
  C   C1290     1.0  0.51925  0.72743  0.33214  1.0000
  H   H2335     1.0  0.77154  0.66524  0.26432  1.0000
  C   C1291     1.0  0.81485  0.49783  0.47213  1.0000
  H   H2336     1.0  0.76793  0.59627  0.01906  1.0000
  C   C1292     1.0  0.60456  0.70508  0.28354  1.0000
  H   H2337     1.0  0.49973  0.71929  0.28887  1.0000
  H   H2338     1.0  0.70027  0.56534  0.05738  1.0000
  H   H2339     1.0  0.76874  0.69832  0.36435  1.0000
  H   H2340     1.0  0.60771  0.71280  0.26670  1.0000
  Fe  Fe144     1.0  0.76878  0.51615  0.00233  1.0000
  C   C1293     1.0  0.82871  0.73861  0.02745  1.0000
  H   H2341     1.0  0.75600  0.55546  0.38066  1.0000
  C   C1294     1.0  0.75644  0.73098  0.26047  1.0000
  H   H2342     1.0  0.62050  0.72027  0.42267  1.0000
  C   C1295     1.0  0.82942  0.60035  0.00914  1.0000
  C   C1296     1.0  0.57942  0.70604  0.28989  1.0000
  H   H2343     1.0  0.86592  0.51332  0.48998  1.0000
  C   C1297     1.0  0.51967  0.50700  0.16897  1.0000
  C   C1298     1.0  0.53123  0.72154  0.41886  1.0000
  C   C1299     1.0  0.68469  0.51708  0.09888  1.0000
  C   C1300     1.0  0.67977  0.64797  0.17527  1.0000
  H   H2344     1.0  0.71787  0.61348  0.33107  1.0000
  H   H2345     1.0  0.79311  0.73199  0.03371  1.0000
  C   C1301     1.0  0.88221  0.66434  0.48609  1.0000
  H   H2346     1.0  0.69157  0.72877  0.21104  1.0000
  H   H2347     1.0  0.81235  0.72395  0.28458  1.0000
  C   C1302     1.0  0.80760  0.56660  0.00319  1.0000
  N   N74       1.0  0.71780  0.68671  0.20985  1.0000
  C   C1303     1.0  0.70704  0.67592  0.19018  1.0000
  H   H2348     1.0  0.72403  0.54997  0.04555  1.0000
  C   C1304     1.0  0.73166  0.66918  0.22204  1.0000
  C   C1305     1.0  0.70022  0.69610  0.22613  1.0000
  C   C1306     1.0  0.51244  0.70954  0.34937  1.0000
  C   C1307     1.0  0.68893  0.65842  0.19635  1.0000
  C   C1308     1.0  0.81575  0.58292  0.01752  1.0000
  H   H2349     1.0  0.76513  0.58388  0.37762  1.0000
  C   C1309     1.0  0.98262  0.64076  0.03939  1.0000
  C   C1310     1.0  0.51303  0.54150  0.22386  1.0000
  Fe  Fe145     1.0  0.81181  0.57906  0.48725  1.0000
  H   H2350     1.0  0.72013  0.66723  0.17958  1.0000
  H   H2351     1.0  0.69944  0.68867  0.17875  1.0000
  C   C1311     1.0  0.57078  0.73056  0.29211  1.0000
  S   S292      1.0  0.89632  0.71227  0.00240  1.0000
  H   H2352     1.0  0.96807  0.63724  0.02870  1.0000
  H   H2353     1.0  0.72038  0.65740  0.23130  1.0000
  H   H2354     1.0  0.69075  0.68251  0.23478  1.0000
  H   H2355     1.0  0.70841  0.70483  0.23995  1.0000
  C   C1312     1.0  0.78491  0.63914  0.01721  1.0000
  C   C1313     1.0  0.73650  0.74368  0.25871  1.0000
  H   H2356     1.0  0.69613  0.64476  0.20685  1.0000
  H   H2357     1.0  0.67439  0.66606  0.20573  1.0000
  H   H2358     1.0  0.71315  0.51864  0.14165  1.0000
  H   H2359     1.0  0.67488  0.70646  0.20102  1.0000
  H   H2360     1.0  0.70622  0.58041  0.29432  1.0000
  S   S293      1.0  0.71149  0.73729  0.27450  1.0000
  H   H2361     1.0  0.74952  0.70122  0.47899  1.0000
  H   H2362     1.0  0.68942  0.53302  0.10528  1.0000
  H   H2363     1.0  0.71356  0.62017  0.28386  1.0000
  H   H2364     1.0  0.57725  0.69669  0.30601  1.0000
  C   C1314     1.0  0.73147  0.57756  0.00806  1.0000
  H   H2365     1.0  0.53513  0.70218  0.31070  1.0000
  H   H2366     1.0  0.69351  0.63923  0.16562  1.0000
  C   C1315     1.0  0.75221  0.69876  0.18520  1.0000
  C   C1316     1.0  0.85986  0.72242  0.07627  1.0000
  H   H2367     1.0  0.69487  0.62722  0.36016  1.0000
  C   C1317     1.0  0.91135  0.69296  0.48449  1.0000
  H   H2368     1.0  0.72885  0.59088  0.04249  1.0000
  H   H2369     1.0  0.79114  0.72686  0.24915  1.0000
  H   H2370     1.0  0.69808  0.55261  0.03031  1.0000
  C   C1318     1.0  0.84002  0.73584  0.44625  1.0000
  C   C1319     1.0  0.68305  0.71311  0.21596  1.0000
  C   C1320     1.0  0.82571  0.73478  0.29078  1.0000
  Fe  Fe146     1.0  0.63443  0.50419  0.16669  1.0000
  H   H2371     1.0  0.67198  0.57385  0.31259  1.0000
  H   H2372     1.0  0.65969  0.55998  0.33667  1.0000
  H   H2373     1.0  0.67178  0.66090  0.16437  1.0000
  C   C1321     1.0  0.76761  0.71844  0.18049  1.0000
  C   C1322     1.0  0.82814  0.71354  0.44714  1.0000
  C   C1323     1.0  0.50749  0.73140  0.27689  1.0000
  H   H2374     1.0  0.77299  0.65002  0.02696  1.0000
  H   H2375     1.0  0.76122  0.68851  0.23144  1.0000
  H   H2376     1.0  0.84104  0.70033  0.45037  1.0000
  H   H2377     1.0  0.58060  0.73813  0.30570  1.0000
  C   C1324     1.0  0.81195  0.51635  0.48633  1.0000
  C   C1325     1.0  0.74820  0.67785  0.23946  1.0000
  C   C1326     1.0  0.53342  0.72786  0.27604  1.0000
  C   C1327     1.0  0.75672  0.60881  0.01059  1.0000
  H   H2378     1.0  0.73296  0.57843  0.30738  1.0000
  H   H2379     1.0  0.73442  0.60104  0.27234  1.0000
  H   H2380     1.0  0.77826  0.56234  0.36073  1.0000
  H   H2381     1.0  0.61062  0.68745  0.28309  1.0000
  H   H2382     1.0  0.89462  0.50518  0.48219  1.0000
  H   H2383     1.0  0.74257  0.55646  0.34157  1.0000
  H   H2384     1.0  0.83046  0.71350  0.09616  1.0000
  C   C1328     1.0  0.84324  0.72585  0.09328  1.0000
  N   N75       1.0  0.70253  0.58382  0.34480  1.0000
  C   C1329     1.0  0.69664  0.56089  0.33710  1.0000
  C   C1330     1.0  0.72233  0.58196  0.36024  1.0000
  C   C1331     1.0  0.68260  0.59284  0.35852  1.0000
  C   C1332     1.0  0.70732  0.59972  0.32540  1.0000
  C   C1333     1.0  0.71865  0.58987  0.30377  1.0000
  C   C1334     1.0  0.67416  0.55959  0.32442  1.0000
  C   C1335     1.0  0.68640  0.61481  0.37121  1.0000
  C   C1336     1.0  0.74477  0.57249  0.35011  1.0000
  C   C1337     1.0  0.76203  0.56832  0.36845  1.0000
  C   C1338     1.0  0.72744  0.60833  0.28816  1.0000
  C   C1339     1.0  0.67296  0.53808  0.31111  1.0000
  C   C1340     1.0  0.66417  0.62518  0.37995  1.0000
  H   H2385     1.0  0.69538  0.54922  0.35181  1.0000
  H   H2386     1.0  0.71020  0.55360  0.32617  1.0000
  H   H2387     1.0  0.72672  0.59864  0.36651  1.0000
  H   H2388     1.0  0.71770  0.57177  0.37543  1.0000
  H   H2389     1.0  0.67699  0.58029  0.37136  1.0000
  H   H2390     1.0  0.66790  0.59601  0.34755  1.0000
  H   H2391     1.0  0.69148  0.60803  0.31968  1.0000
  C   C1341     1.0  0.87639  0.73842  0.07289  1.0000
  H   H2392     1.0  0.79796  0.64967  0.00896  1.0000
  H   H2393     1.0  0.88953  0.73573  0.06022  1.0000
  H   H2394     1.0  0.77712  0.71298  0.44988  1.0000
  C   C1342     1.0  0.77587  0.73688  0.24775  1.0000
  H   H2395     1.0  0.75801  0.73281  0.17327  1.0000
  C   C1343     1.0  0.76440  0.69035  0.47492  1.0000
  C   C1344     1.0  0.77246  0.62642  0.99942  1.0000
  H   H2396     1.0  0.84846  0.73845  0.46243  1.0000
  H   H2397     1.0  0.51538  0.73161  0.42089  1.0000
  H   H2398     1.0  0.75923  0.67279  0.47684  1.0000
  C   C1345     1.0  0.57622  0.73906  0.35911  1.0000
  C   C1346     1.0  0.49747  0.72739  0.25392  1.0000
  H   H2399     1.0  0.56687  0.72544  0.41654  1.0000
  H   H2400     1.0  0.55942  0.73797  0.36639  1.0000
  C   C1347     1.0  0.61953  0.74118  0.33911  1.0000
  H   H2401     1.0  0.63617  0.74217  0.33131  1.0000
  C   C1348     1.0  0.55174  0.73652  0.41824  1.0000
  H   H2402     1.0  0.59338  0.73940  0.44845  1.0000
  H   H2403     1.0  0.57598  0.73926  0.27623  1.0000
  N   N76       1.0  0.74088  0.59728  0.99521  1.0000
  C   C1349     1.0  0.62580  0.73715  0.41717  1.0000
  H   H2404     1.0  0.52441  0.74217  0.34164  1.0000
  H   H2405     1.0  0.51055  0.52326  0.22506  1.0000
  H   H2406     1.0  0.63373  0.73584  0.40008  1.0000
  H   H2407     1.0  0.50401  0.73957  0.24126  1.0000
  H   H2408     1.0  0.63851  0.74329  0.42884  1.0000
  Fe  Fe147     1.0  0.58931  0.49510  0.19287  1.0000
  S   S294      1.0  0.61354  0.49724  0.76508  1.0000
  C   C1350     1.0  0.81586  0.67933  0.92443  1.0000
  H   H2409     1.0  0.87313  0.65911  0.88382  1.0000
  C   C1351     1.0  0.97957  0.68160  0.98943  1.0000
  H   H2410     1.0  0.62621  0.65974  0.68890  1.0000
  C   C1352     1.0  0.60357  0.62866  0.73301  1.0000
  Fe  Fe148     1.0  0.87114  0.70472  0.97580  1.0000
  S   S295      1.0  0.89000  0.67417  0.96403  1.0000
  H   H2411     1.0  0.90806  0.68664  0.56981  1.0000
  H   H2412     1.0  0.67459  0.64948  0.59955  1.0000
  H   H2413     1.0  0.63385  0.64831  0.75721  1.0000
  C   C1353     1.0  0.52261  0.51128  0.79571  1.0000
  H   H2414     1.0  0.78883  0.71914  0.73773  1.0000
  C   C1354     1.0  0.77493  0.72995  0.74302  1.0000
  Fe  Fe149     1.0  0.70672  0.67965  0.64887  1.0000
  S   S296      1.0  0.67283  0.66684  0.66027  1.0000
  S   S297      1.0  0.71697  0.67982  0.61145  1.0000
  Fe  Fe150     1.0  0.71869  0.69305  0.69661  1.0000
  S   S298      1.0  0.68584  0.68069  0.71160  1.0000
  S   S299      1.0  0.74997  0.70505  0.71457  1.0000
  Fe  Fe151     1.0  0.69070  0.65078  0.68948  1.0000
  S   S300      1.0  0.68327  0.61367  0.69547  1.0000
  Fe  Fe152     1.0  0.66949  0.69733  0.68146  1.0000
  S   S301      1.0  0.63521  0.71496  0.68784  1.0000
  S   S302      1.0  0.72486  0.66167  0.67648  1.0000
  S   S303      1.0  0.70212  0.71172  0.66804  1.0000
  Fe  Fe153     1.0  0.79522  0.61268  0.52268  1.0000
  S   S304      1.0  0.78871  0.61614  0.56061  1.0000
  S   S305      1.0  0.83004  0.59981  0.51228  1.0000
  Fe  Fe154     1.0  0.63099  0.52268  0.78584  1.0000
  S   S306      1.0  0.63711  0.55969  0.77766  1.0000
  S   S307      1.0  0.60917  0.51627  0.81715  1.0000
  H   H2415     1.0  0.84608  0.59276  0.88601  1.0000
  C   C1355     1.0  0.69172  0.55482  0.64068  1.0000
  N   N77       1.0  0.71509  0.59049  0.63522  1.0000
  C   C1356     1.0  0.61519  0.66754  0.73124  1.0000
  C   C1357     1.0  0.72260  0.61384  0.98880  1.0000
  C   C1358     1.0  0.67098  0.59880  0.71874  1.0000
  C   C1359     1.0  0.66511  0.57643  0.71598  1.0000
  C   C1360     1.0  0.65523  0.56400  0.73390  1.0000
  C   C1361     1.0  0.65088  0.57389  0.75479  1.0000
  C   C1362     1.0  0.65680  0.59625  0.75751  1.0000
  C   C1363     1.0  0.66705  0.60852  0.73973  1.0000
  H   H2416     1.0  0.66818  0.56863  0.69989  1.0000
  H   H2417     1.0  0.65070  0.54688  0.73149  1.0000
  H   H2418     1.0  0.65370  0.60404  0.77362  1.0000
  H   H2419     1.0  0.67226  0.62536  0.74242  1.0000
  C   C1364     1.0  0.73731  0.66230  0.59760  1.0000
  C   C1365     1.0  0.73747  0.66105  0.57399  1.0000
  C   C1366     1.0  0.75313  0.64712  0.56236  1.0000
  C   C1367     1.0  0.76879  0.63420  0.57428  1.0000
  C   C1368     1.0  0.76884  0.63566  0.59788  1.0000
  C   C1369     1.0  0.75331  0.64975  0.60945  1.0000
  H   H2420     1.0  0.72526  0.67081  0.56463  1.0000
  H   H2421     1.0  0.75290  0.64621  0.54420  1.0000
  H   H2422     1.0  0.78107  0.62596  0.60725  1.0000
  H   H2423     1.0  0.75394  0.65126  0.62751  1.0000
  C   C1370     1.0  0.61657  0.72626  0.66737  1.0000
  H   H2424     1.0  0.61700  0.60950  0.68943  1.0000
  H   H2425     1.0  0.72794  0.56868  0.95981  1.0000
  N   N78       1.0  0.60585  0.64890  0.71769  1.0000
  H   H2426     1.0  0.83150  0.58618  0.95414  1.0000
  H   H2427     1.0  0.80785  0.55533  0.96904  1.0000
  C   C1371     1.0  0.72691  0.58462  0.61316  1.0000
  C   C1372     1.0  0.75341  0.72670  0.73431  1.0000
  H   H2428     1.0  0.61959  0.68192  0.72011  1.0000
  H   H2429     1.0  0.66701  0.62107  0.59487  1.0000
  H   H2430     1.0  0.79893  0.72999  0.69158  1.0000
  H   H2431     1.0  0.85666  0.68944  0.92272  1.0000
  H   H2432     1.0  0.70820  0.52350  0.65064  1.0000
  H   H2433     1.0  0.87183  0.68882  0.88467  1.0000
  C   C1373     1.0  0.58844  0.59006  0.74113  1.0000
  C   C1374     1.0  0.75833  0.56572  0.93966  1.0000
  H   H2434     1.0  0.51096  0.50762  0.84264  1.0000
  C   C1375     1.0  0.49980  0.51879  0.79541  1.0000
  H   H2435     1.0  0.78416  0.68740  0.95870  1.0000
  H   H2436     1.0  0.63142  0.68739  0.77007  1.0000
  H   H2437     1.0  0.65063  0.65657  0.73313  1.0000
  Fe  Fe155     1.0  0.91424  0.68010  0.99203  1.0000
  H   H2438     1.0  0.67908  0.51827  0.86326  1.0000
  H   H2439     1.0  0.68323  0.60578  0.64609  1.0000
  C   C1376     1.0  0.69308  0.60252  0.63020  1.0000
  C   C1377     1.0  0.87409  0.67350  0.89509  1.0000
  C   C1378     1.0  0.67259  0.63285  0.60770  1.0000
  H   H2440     1.0  0.62285  0.51374  0.89443  1.0000
  H   H2441     1.0  0.49601  0.53647  0.79476  1.0000
  H   H2442     1.0  0.72503  0.56033  0.65335  1.0000
  H   H2443     1.0  0.58896  0.69255  0.70291  1.0000
  H   H2444     1.0  0.86058  0.62812  0.89929  1.0000
  H   H2445     1.0  0.69180  0.63814  0.96322  1.0000
  C   C1379     1.0  0.58305  0.65681  0.70964  1.0000
  S   S308      1.0  0.65857  0.49879  0.79696  1.0000
  H   H2446     1.0  0.63870  0.63813  0.70470  1.0000
  H   H2447     1.0  0.80082  0.52671  0.51932  1.0000
  H   H2448     1.0  0.83835  0.66842  0.87204  1.0000
  C   C1380     1.0  0.69803  0.50377  0.91579  1.0000
  H   H2449     1.0  0.80861  0.70385  0.96408  1.0000
  H   H2450     1.0  0.75053  0.55354  0.97284  1.0000
  H   H2451     1.0  0.75582  0.60345  0.96205  1.0000
  C   C1381     1.0  0.89796  0.67356  0.90410  1.0000
  S   S309      1.0  0.79608  0.64130  0.49815  1.0000
  C   C1382     1.0  0.75428  0.58960  0.97461  1.0000
  H   H2452     1.0  0.75347  0.61569  0.68668  1.0000
  S   S310      1.0  0.77712  0.59037  0.49921  1.0000
  C   C1383     1.0  0.74268  0.56364  0.61297  1.0000
  H   H2453     1.0  0.59742  0.62886  0.67624  1.0000
  H   H2454     1.0  0.67823  0.52194  0.64686  1.0000
  C   C1384     1.0  0.81370  0.56780  0.98030  1.0000
  C   C1385     1.0  0.69509  0.62507  0.61732  1.0000
  H   H2455     1.0  0.70614  0.52990  0.89189  1.0000
  C   C1386     1.0  0.82824  0.64295  0.91048  1.0000
  H   H2456     1.0  0.81913  0.69753  0.92453  1.0000
  H   H2457     1.0  0.75438  0.56315  0.62713  1.0000
  C   C1387     1.0  0.76379  0.61365  0.67093  1.0000
  C   C1388     1.0  0.70967  0.57046  0.64985  1.0000
  C   C1389     1.0  0.84258  0.62765  0.89473  1.0000
  H   H2458     1.0  0.71445  0.58188  0.59982  1.0000
  H   H2459     1.0  0.57446  0.64365  0.70050  1.0000
  H   H2460     1.0  0.80902  0.70789  0.88842  1.0000
  C   C1390     1.0  0.92524  0.68004  0.49844  1.0000
  H   H2461     1.0  0.81767  0.71575  0.50334  1.0000
  S   S311      1.0  0.77169  0.49898  0.96904  1.0000
  H   H2462     1.0  0.74587  0.56254  0.57629  1.0000
  H   H2463     1.0  0.65950  0.63436  0.62128  1.0000
  H   H2464     1.0  0.73260  0.54832  0.61414  1.0000
  H   H2465     1.0  0.61370  0.52761  0.86895  1.0000
  C   C1391     1.0  0.83545  0.60344  0.89732  1.0000
  H   H2466     1.0  0.55265  0.66970  0.67614  1.0000
  H   H2467     1.0  0.76386  0.59603  0.64000  1.0000
  C   C1392     1.0  0.82637  0.67541  0.88481  1.0000
  C   C1393     1.0  0.83504  0.60189  0.98617  1.0000
  C   C1394     1.0  0.62217  0.64413  0.69835  1.0000
  H   H2468     1.0  0.67463  0.56251  0.64311  1.0000
  H   H2469     1.0  0.79820  0.67768  0.91883  1.0000
  H   H2470     1.0  0.78075  0.60712  0.67545  1.0000
  C   C1395     1.0  0.62978  0.62654  0.66019  1.0000
  H   H2471     1.0  0.86197  0.66086  0.92759  1.0000
  H   H2472     1.0  0.58519  0.60734  0.70960  1.0000
  H   H2473     1.0  0.55985  0.69866  0.67501  1.0000
  H   H2474     1.0  0.84084  0.63245  0.87679  1.0000
  H   H2475     1.0  0.76748  0.54712  0.59100  1.0000
  H   H2476     1.0  0.60461  0.58160  0.73614  1.0000
  H   H2477     1.0  0.62802  0.64284  0.65126  1.0000
  H   H2478     1.0  0.76578  0.63017  0.66258  1.0000
  H   H2479     1.0  0.75305  0.54999  0.93196  1.0000
  H   H2480     1.0  0.73693  0.59899  0.60680  1.0000
  C   C1396     1.0  0.85275  0.73968  0.92715  1.0000
  C   C1397     1.0  0.69177  0.53244  0.65325  1.0000
  H   H2481     1.0  0.68860  0.53496  0.67156  1.0000
  H   H2482     1.0  0.83907  0.70920  0.88967  1.0000
  C   C1398     1.0  0.61501  0.62629  0.68158  1.0000
  C   C1399     1.0  0.96875  0.66384  0.56229  1.0000
  C   C1400     1.0  0.75274  0.59744  0.65524  1.0000
  C   C1401     1.0  0.82713  0.58540  0.97188  1.0000
  C   C1402     1.0  0.58300  0.67778  0.69400  1.0000
  N   N79       1.0  0.83215  0.66766  0.90829  1.0000
  N   N80       1.0  0.84077  0.66907  0.56330  1.0000
  C   C1403     1.0  0.83386  0.67160  0.53915  1.0000
  C   C1404     1.0  0.84586  0.64480  0.56838  1.0000
  C   C1405     1.0  0.82063  0.67594  0.57794  1.0000
  C   C1406     1.0  0.86060  0.68329  0.56878  1.0000
  C   C1407     1.0  0.87804  0.68801  0.54939  1.0000
  C   C1408     1.0  0.82401  0.69492  0.53263  1.0000
  C   C1409     1.0  0.82283  0.67160  0.60359  1.0000
  C   C1410     1.0  0.86486  0.63340  0.55413  1.0000
  C   C1411     1.0  0.86716  0.60868  0.56035  1.0000
  C   C1412     1.0  0.89934  0.69836  0.55814  1.0000
  C   C1413     1.0  0.80185  0.68676  0.96436  1.0000
  C   C1414     1.0  0.80480  0.68463  0.61710  1.0000
  H   H2483     1.0  0.82079  0.65922  0.53544  1.0000
  H   H2484     1.0  0.84801  0.66748  0.52728  1.0000
  H   H2485     1.0  0.85080  0.64241  0.58617  1.0000
  H   H2486     1.0  0.83037  0.63499  0.56650  1.0000
  H   H2487     1.0  0.80523  0.66723  0.57266  1.0000
  H   H2488     1.0  0.81673  0.69403  0.57571  1.0000
  H   H2489     1.0  0.85472  0.69996  0.57482  1.0000
  H   H2490     1.0  0.86989  0.67577  0.58316  1.0000
  H   H2491     1.0  0.87079  0.69983  0.53687  1.0000
  H   H2492     1.0  0.88321  0.67280  0.54029  1.0000
  H   H2493     1.0  0.80583  0.69587  0.53765  1.0000
  H   H2494     1.0  0.83262  0.70842  0.54132  1.0000
  H   H2495     1.0  0.83958  0.67645  0.60948  1.0000
  H   H2496     1.0  0.82051  0.65362  0.60746  1.0000
  H   H2497     1.0  0.86139  0.63451  0.53593  1.0000
  H   H2498     1.0  0.88131  0.64091  0.55743  1.0000
  H   H2499     1.0  0.88025  0.60064  0.54931  1.0000
  H   H2500     1.0  0.87221  0.60653  0.57812  1.0000
  H   H2501     1.0  0.85097  0.60014  0.55808  1.0000
  H   H2502     1.0  0.77689  0.56485  0.94161  1.0000
  S   S312      1.0  0.85022  0.73026  0.95560  1.0000
  H   H2503     1.0  0.60743  0.53982  0.89595  1.0000
  H   H2504     1.0  0.96381  0.66025  0.58009  1.0000
  H   H2505     1.0  0.71961  0.61106  0.66418  1.0000
  H   H2506     1.0  0.59388  0.67513  0.67878  1.0000
  H   H2507     1.0  0.80755  0.70281  0.61545  1.0000
  H   H2508     1.0  0.78770  0.68103  0.61112  1.0000
  H   H2509     1.0  0.80554  0.67982  0.63517  1.0000
  H   H2510     1.0  0.64770  0.62340  0.66426  1.0000
  H   H2511     1.0  0.59936  0.63382  0.75059  1.0000
  H   H2512     1.0  0.62005  0.61946  0.73390  1.0000
  H   H2513     1.0  0.57169  0.66050  0.72441  1.0000
  H   H2514     1.0  0.83390  0.67118  0.95545  1.0000
  C   C1415     1.0  0.77937  0.49652  0.90872  1.0000
  H   H2515     1.0  0.56827  0.61881  0.73214  1.0000
  C   C1416     1.0  0.72904  0.60604  0.64858  1.0000
  H   H2516     1.0  0.69454  0.55177  0.62246  1.0000
  H   H2517     1.0  0.70038  0.63806  0.62899  1.0000
  H   H2518     1.0  0.70329  0.57594  0.66677  1.0000
  H   H2519     1.0  0.70756  0.62404  0.60313  1.0000
  H   H2520     1.0  0.58854  0.59340  0.75947  1.0000
  H   H2521     1.0  0.81775  0.68627  0.49796  1.0000
  H   H2522     1.0  0.83772  0.59746  0.91490  1.0000
  H   H2523     1.0  0.81010  0.63951  0.90798  1.0000
  C   C1417     1.0  0.63670  0.66185  0.74464  1.0000
  H   H2524     1.0  0.54771  0.68705  0.70058  1.0000
  H   H2525     1.0  0.82389  0.72583  0.85436  1.0000
  S   S313      1.0  0.85117  0.62425  0.97426  1.0000
  H   H2526     1.0  0.68237  0.59193  0.61986  1.0000
  C   C1418     1.0  0.82622  0.70750  0.85626  1.0000
  H   H2527     1.0  0.64780  0.69623  0.74555  1.0000
  H   H2528     1.0  0.80951  0.65446  0.95139  1.0000
  H   H2529     1.0  0.80967  0.66896  0.88020  1.0000
  C   C1419     1.0  0.58520  0.61168  0.72759  1.0000
  C   C1420     1.0  0.64444  0.68212  0.75737  1.0000
  H   H2530     1.0  0.83211  0.63683  0.92775  1.0000
  C   C1421     1.0  0.91738  0.65923  0.50621  1.0000
  H   H2531     1.0  0.73201  0.62168  0.63908  1.0000
  C   C1422     1.0  0.81640  0.67142  0.94935  1.0000
  H   H2532     1.0  0.75207  0.58114  0.66414  1.0000
  H   H2533     1.0  0.60218  0.67390  0.74355  1.0000
  H   H2534     1.0  0.57450  0.57860  0.73791  1.0000
  C   C1423     1.0  0.82515  0.70105  0.88120  1.0000
  C   C1424     1.0  0.68047  0.50897  0.87890  1.0000
  H   H2535     1.0  0.91040  0.67456  0.88986  1.0000
  C   C1425     1.0  0.55928  0.68355  0.68602  1.0000
  H   H2536     1.0  0.79521  0.50004  0.91742  1.0000
  C   C1426     1.0  0.85601  0.67292  0.91451  1.0000
  H   H2537     1.0  0.75388  0.57976  0.92816  1.0000
  H   H2538     1.0  0.88565  0.72524  0.92044  1.0000
  H   H2539     1.0  0.81268  0.69934  0.84705  1.0000
  H   H2540     1.0  0.90020  0.68812  0.91503  1.0000
  Fe  Fe156     1.0  0.97443  0.71922  0.49783  1.0000
  H   H2541     1.0  0.86557  0.73242  0.77232  1.0000
  H   H2542     1.0  0.76816  0.57707  0.58968  1.0000
  H   H2543     1.0  0.84292  0.70276  0.84868  1.0000
  H   H2544     1.0  0.90153  0.65804  0.91389  1.0000
  C   C1427     1.0  0.60906  0.52387  0.88681  1.0000
  H   H2545     1.0  0.69614  0.58994  0.98099  1.0000
  C   C1428     1.0  0.73553  0.74063  0.74151  1.0000
  H   H2546     1.0  0.81753  0.60169  0.89281  1.0000
  C   C1429     1.0  0.75686  0.56258  0.59114  1.0000
  H   H2547     1.0  0.62452  0.61326  0.64877  1.0000
  H   H2548     1.0  0.59236  0.73816  0.69234  1.0000
  H   H2549     1.0  0.66027  0.67783  0.76618  1.0000
  H   H2550     1.0  0.53604  0.52316  0.79535  1.0000
  H   H2551     1.0  0.99482  0.67536  0.52753  1.0000
  C   C1430     1.0  0.59633  0.73702  0.67453  1.0000
  C   C1431     1.0  0.89611  0.65140  0.50003  1.0000
  C   C1432     1.0  0.81391  0.74037  0.68787  1.0000
  H   H2552     1.0  0.57351  0.52305  0.88236  1.0000
  H   H2553     1.0  0.91111  0.70205  0.54377  1.0000
  C   C1433     1.0  0.58682  0.51151  0.88861  1.0000
  C   C1434     1.0  0.69585  0.51554  0.89524  1.0000
  C   C1435     1.0  0.62141  0.72484  0.64430  1.0000
  C   C1436     1.0  0.68507  0.62260  0.97090  1.0000
  H   H2554     1.0  0.89062  0.63521  0.50583  1.0000
  C   C1437     1.0  0.70394  0.60512  0.97376  1.0000
  H   H2555     1.0  0.88764  0.73858  0.88065  1.0000
  C   C1438     1.0  0.80308  0.51278  0.50811  1.0000
  H   H2556     1.0  0.72995  0.62819  0.97946  1.0000
  C   C1439     1.0  0.82600  0.69951  0.50736  1.0000
  Fe  Fe157     1.0  0.73361  0.50015  0.96876  1.0000
  H   H2557     1.0  0.55508  0.49833  0.84743  1.0000
  H   H2558     1.0  0.82910  0.72923  0.68720  1.0000
  H   H2559     1.0  0.63685  0.71664  0.63848  1.0000
  S   S314      1.0  0.71790  0.51302  0.93570  1.0000
  H   H2560     1.0  0.58380  0.50776  0.90672  1.0000
  H   H2561     1.0  0.84400  0.70022  0.50184  1.0000
  H   H2562     1.0  0.80193  0.68040  0.98196  1.0000
  S   S315      1.0  0.95232  0.68900  0.50694  1.0000
  H   H2563     1.0  0.95597  0.65674  0.55126  1.0000
  H   H2564     1.0  0.96884  0.68220  0.55968  1.0000
  H   H2565     1.0  0.89517  0.71417  0.56692  1.0000
  H   H2566     1.0  0.92791  0.64899  0.51693  1.0000
  H   H2567     1.0  0.54885  0.49942  0.91215  1.0000
  C   C1440     1.0  0.74630  0.56853  0.96252  1.0000
  H   H2568     1.0  0.85195  0.74241  0.73446  1.0000
  H   H2569     1.0  0.78543  0.61829  0.98832  1.0000
  H   H2570     1.0  0.76584  0.50784  0.91548  1.0000
  H   H2571     1.0  0.77181  0.58511  0.97924  1.0000
  Fe  Fe158     1.0  0.86902  0.65442  0.98913  1.0000
  S   S316      1.0  0.95175  0.67446  0.98127  1.0000
  H   H2572     1.0  0.50202  0.50208  0.87144  1.0000
  H   H2573     1.0  0.61049  0.73334  0.61085  1.0000
  H   H2574     1.0  0.71103  0.60153  0.95672  1.0000
  H   H2575     1.0  0.67215  0.61610  0.95966  1.0000
  H   H2576     1.0  0.54376  0.50490  0.87425  1.0000
  C   C1441     1.0  0.87175  0.73480  0.91356  1.0000
  H   H2577     1.0  0.50092  0.74112  0.54753  1.0000
  H   H2578     1.0  0.67678  0.62643  0.98741  1.0000
  H   H2579     1.0  0.98720  0.64755  0.52244  1.0000
  C   C1442     1.0  0.87289  0.74256  0.89104  1.0000
  H   H2580     1.0  0.76300  0.63878  0.98917  1.0000
  H   H2581     1.0  0.88881  0.52068  0.50750  1.0000
  C   C1443     1.0  0.99212  0.65366  0.55702  1.0000
  C   C1444     1.0  0.60636  0.73430  0.62864  1.0000
  H   H2582     1.0  0.71890  0.73837  0.73500  1.0000
  H   H2583     1.0  0.78197  0.50000  0.89046  1.0000
  H   H2584     1.0  0.99132  0.63547  0.56056  1.0000
  H   H2585     1.0  0.99543  0.66576  0.96063  1.0000
  C   C1445     1.0  0.88247  0.50753  0.49653  1.0000
  C   C1446     1.0  0.50680  0.49432  0.85512  1.0000
  H   H2586     1.0  0.60621  0.76549  0.45001  1.0000
  C   C1447     1.0  0.60733  0.99108  0.15227  1.0000
  C   C1448     1.0  0.60611  0.76067  0.34211  1.0000
  H   H2587     1.0  0.88893  0.77418  0.20758  1.0000
  H   H2588     1.0  0.84306  0.82026  0.06418  1.0000
  H   H2589     1.0  0.54186  0.77270  0.26822  1.0000
  H   H2590     1.0  0.84755  0.83675  0.25966  1.0000
  H   H2591     1.0  0.84147  0.77619  0.30009  1.0000
  C   C1449     1.0  0.60544  0.75313  0.41636  1.0000
  H   H2592     1.0  0.82660  0.80386  0.08376  1.0000
  Fe  Fe159     1.0  0.71074  0.97177  0.12575  1.0000
  S   S317      1.0  0.72983  0.94894  0.15046  1.0000
  S   S318      1.0  0.68320  0.96186  0.10288  1.0000
  Fe  Fe160     1.0  0.53098  0.79061  0.36565  1.0000
  H   H2593     1.0  0.89612  0.77768  0.28485  1.0000
  S   S319      1.0  0.52189  0.81871  0.38928  1.0000
  Fe  Fe161     1.0  0.97826  0.86080  0.28220  1.0000
  S   S320      1.0  0.95571  0.83757  0.26254  1.0000
  S   S321      1.0  0.97261  0.87648  0.31634  1.0000
  Fe  Fe162     1.0  0.80953  0.79062  0.19305  1.0000
  S   S322      1.0  0.80095  0.79293  0.15622  1.0000
  S   S323      1.0  0.80116  0.76265  0.21847  1.0000
  Fe  Fe163     1.0  0.84214  0.82945  0.18965  1.0000
  S   S324      1.0  0.83572  0.83472  0.15282  1.0000
  S   S325      1.0  0.86416  0.85349  0.20873  1.0000
  Fe  Fe164     1.0  0.79901  0.83026  0.16142  1.0000
  S   S326      1.0  0.77310  0.85077  0.14126  1.0000
  Fe  Fe165     1.0  0.83806  0.79743  0.14945  1.0000
  S   S327      1.0  0.86012  0.78586  0.11938  1.0000
  S   S328      1.0  0.80491  0.82754  0.19869  1.0000
  S   S329      1.0  0.84709  0.79262  0.18581  1.0000
  H   H2594     1.0  0.92196  0.79072  0.47920  1.0000
  C   C1450     1.0  0.75587  0.76840  0.23157  1.0000
  H   H2595     1.0  0.75551  0.78292  0.22060  1.0000
  H   H2596     1.0  0.84462  0.80964  0.02391  1.0000
  H   H2597     1.0  0.81795  0.77740  0.05463  1.0000
  C   C1451     1.0  0.88971  0.84866  0.22345  1.0000
  C   C1452     1.0  0.89847  0.86602  0.23603  1.0000
  C   C1453     1.0  0.91868  0.86306  0.24790  1.0000
  C   C1454     1.0  0.93041  0.84260  0.24744  1.0000
  C   C1455     1.0  0.92160  0.82521  0.23492  1.0000
  C   C1456     1.0  0.90150  0.82823  0.22290  1.0000
  H   H2598     1.0  0.88959  0.88193  0.23657  1.0000
  H   H2599     1.0  0.92513  0.87659  0.25748  1.0000
  H   H2600     1.0  0.93051  0.80932  0.23434  1.0000
  H   H2601     1.0  0.89531  0.81488  0.21295  1.0000
  S   S330      1.0  0.50458  0.80065  0.34064  1.0000
  S   S331      1.0  0.97797  0.94176  0.30823  1.0000
  H   H2602     1.0  0.56834  0.77491  0.28229  1.0000
  H   H2603     1.0  0.54889  0.93860  0.31605  1.0000
  N   N81       1.0  0.84203  0.77664  0.01017  1.0000
  H   H2604     1.0  0.98854  0.77749  0.17945  1.0000
  C   C1457     1.0  0.74146  0.92154  0.14749  1.0000
  C   C1458     1.0  0.74051  0.90978  0.12743  1.0000
  C   C1459     1.0  0.75020  0.88815  0.12591  1.0000
  C   C1460     1.0  0.76105  0.87802  0.14432  1.0000
  C   C1461     1.0  0.76183  0.88971  0.16444  1.0000
  C   C1462     1.0  0.75209  0.91132  0.16598  1.0000
  H   H2605     1.0  0.73235  0.91734  0.11307  1.0000
  H   H2606     1.0  0.74936  0.87921  0.11029  1.0000
  H   H2607     1.0  0.76976  0.88204  0.17886  1.0000
  H   H2608     1.0  0.75279  0.92019  0.18165  1.0000
  H   H2609     1.0  0.55159  0.78935  0.46306  1.0000
  H   H2610     1.0  0.51640  0.86011  0.31742  1.0000
  H   H2611     1.0  0.83009  0.74751  0.11961  1.0000
  H   H2612     1.0  0.72110  0.77243  0.24274  1.0000
  H   H2613     1.0  0.53592  0.75849  0.44270  1.0000
  H   H2614     1.0  0.92641  0.97100  0.23274  1.0000
  Fe  Fe166     1.0  0.49787  0.79490  0.40638  1.0000
  H   H2615     1.0  0.52479  0.88602  0.28538  1.0000
  C   C1463     1.0  0.98067  0.79644  0.39041  1.0000
  H   H2616     1.0  0.82767  0.74973  0.44356  1.0000
  H   H2617     1.0  0.83661  0.82376  0.23540  1.0000
  H   H2618     1.0  0.81674  0.80073  0.02160  1.0000
  H   H2619     1.0  0.84806  0.78013  0.05705  1.0000
  S   S332      1.0  0.96409  0.75508  0.49247  1.0000
  C   C1464     1.0  0.86008  0.78331  0.24482  1.0000
  C   C1465     1.0  0.83242  0.78846  0.05129  1.0000
  H   H2620     1.0  0.52166  0.95405  0.38776  1.0000
  S   S333      1.0  0.56797  0.78477  0.35480  1.0000
  C   C1466     1.0  0.83393  0.79474  0.02597  1.0000
  H   H2621     1.0  0.99506  0.86323  0.20695  1.0000
  C   C1467     1.0  0.87627  0.75760  0.08634  1.0000
  C   C1468     1.0  0.96422  0.82713  0.46145  1.0000
  C   C1469     1.0  0.58300  0.80508  0.42376  1.0000
  H   H2622     1.0  0.54996  0.79064  0.42238  1.0000
  H   H2623     1.0  0.82383  0.80755  0.28335  1.0000
  H   H2624     1.0  0.81819  0.79508  0.25710  1.0000
  H   H2625     1.0  0.86531  0.75916  0.03234  1.0000
  C   C1470     1.0  0.50140  0.97335  0.32603  1.0000
  H   H2626     1.0  0.92001  0.78705  0.02218  1.0000
  H   H2627     1.0  0.54150  0.94337  0.35394  1.0000
  H   H2628     1.0  0.55050  0.80299  0.30825  1.0000
  H   H2629     1.0  0.79722  0.83176  0.25007  1.0000
  H   H2630     1.0  0.50242  0.74852  0.28185  1.0000
  C   C1471     1.0  0.99254  0.79183  0.41022  1.0000
  H   H2631     1.0  0.61148  0.76935  0.40972  1.0000
  C   C1472     1.0  0.88547  0.75985  0.21907  1.0000
  C   C1473     1.0  0.94895  0.81453  0.47858  1.0000
  H   H2632     1.0  0.87066  0.75484  0.00343  1.0000
  C   C1474     1.0  0.93270  0.79959  0.46657  1.0000
  C   C1475     1.0  0.52352  0.94838  0.35139  1.0000
  H   H2633     1.0  0.55043  0.74747  0.40323  1.0000
  H   H2634     1.0  0.90039  0.74838  0.21847  1.0000
  C   C1476     1.0  0.99501  0.87950  0.41840  1.0000
  C   C1477     1.0  0.69884  0.98507  0.01229  1.0000
  Fe  Fe167     1.0  0.49947  0.96463  0.25853  1.0000
  H   H2635     1.0  0.95231  0.83759  0.45152  1.0000
  N   N82       1.0  0.85259  0.79016  0.26818  1.0000
  H   H2636     1.0  0.76798  0.95434  0.11652  1.0000
  H   H2637     1.0  0.86411  0.79824  0.23434  1.0000
  C   C1478     1.0  0.83353  0.82675  0.25355  1.0000
  H   H2638     1.0  0.88014  0.79800  0.02927  1.0000
  H   H2639     1.0  0.83018  0.86218  0.07803  1.0000
  H   H2640     1.0  0.57045  0.77701  0.40548  1.0000
  H   H2641     1.0  0.96010  0.98485  0.32088  1.0000
  C   C1479     1.0  0.56980  0.95917  0.29498  1.0000
  N   N83       1.0  0.82321  0.91435  0.13748  1.0000
  C   C1480     1.0  0.82295  0.89096  0.12857  1.0000
  C   C1481     1.0  0.81684  0.91444  0.16233  1.0000
  C   C1482     1.0  0.80568  0.92795  0.12495  1.0000
  C   C1483     1.0  0.84578  0.92490  0.13329  1.0000
  C   C1484     1.0  0.86634  0.91282  0.14385  1.0000
  C   C1485     1.0  0.82737  0.88827  0.10292  1.0000
  C   C1486     1.0  0.79974  0.95149  0.13424  1.0000
  C   C1487     1.0  0.82322  0.89345  0.17661  1.0000
  C   C1488     1.0  0.81836  0.89730  0.20163  1.0000
  C   C1489     1.0  0.88832  0.92393  0.13654  1.0000
  C   C1490     1.0  0.82795  0.86369  0.09654  1.0000
  H   H2642     1.0  0.95014  0.97327  0.21304  1.0000
  H   H2643     1.0  0.80631  0.88354  0.13259  1.0000
  H   H2644     1.0  0.83538  0.88000  0.13708  1.0000
  H   H2645     1.0  0.82369  0.92933  0.17051  1.0000
  H   H2646     1.0  0.79827  0.91610  0.16473  1.0000
  H   H2647     1.0  0.78956  0.91876  0.12464  1.0000
  H   H2648     1.0  0.81111  0.93045  0.10705  1.0000
  H   H2649     1.0  0.84929  0.92710  0.11494  1.0000
  H   H2650     1.0  0.84560  0.94203  0.14008  1.0000
  H   H2651     1.0  0.86785  0.89517  0.13878  1.0000
  H   H2652     1.0  0.86505  0.91371  0.16246  1.0000
  H   H2653     1.0  0.81372  0.89649  0.09322  1.0000
  H   H2654     1.0  0.84377  0.89537  0.09756  1.0000
  H   H2655     1.0  0.81492  0.96173  0.13556  1.0000
  H   H2656     1.0  0.79138  0.95038  0.15113  1.0000
  H   H2657     1.0  0.81296  0.87915  0.17165  1.0000
  H   H2658     1.0  0.84120  0.88845  0.17446  1.0000
  H   H2659     1.0  0.82931  0.91047  0.20794  1.0000
  H   H2660     1.0  0.80037  0.90213  0.20466  1.0000
  H   H2661     1.0  0.82192  0.88169  0.21124  1.0000
  H   H2662     1.0  0.89096  0.92299  0.11801  1.0000
  H   H2663     1.0  0.88811  0.94165  0.14167  1.0000
  H   H2664     1.0  0.90273  0.91520  0.14469  1.0000
  H   H2665     1.0  0.88654  0.79362  0.99976  1.0000
  C   C1491     1.0  0.54190  0.75825  0.30262  1.0000
  H   H2666     1.0  0.58129  0.79145  0.46516  1.0000
  C   C1492     1.0  0.98791  0.81290  0.37474  1.0000
  H   H2667     1.0  0.58117  0.75195  0.48437  1.0000
  C   C1493     1.0  0.55269  0.75024  0.43994  1.0000
  N   N84       1.0  0.65821  0.92554  0.17109  1.0000
  C   C1494     1.0  0.67576  0.90804  0.16458  1.0000
  C   C1495     1.0  0.64643  0.93433  0.15038  1.0000
  C   C1496     1.0  0.67044  0.94455  0.18137  1.0000
  C   C1497     1.0  0.64131  0.91708  0.18845  1.0000
  C   C1498     1.0  0.62886  0.89561  0.18280  1.0000
  C   C1499     1.0  0.69060  0.89879  0.18381  1.0000
  C   C1500     1.0  0.65620  0.96614  0.18585  1.0000
  C   C1501     1.0  0.64274  0.91765  0.13113  1.0000
  C   C1502     1.0  0.62691  0.92742  0.11351  1.0000
  C   C1503     1.0  0.61453  0.88759  0.20295  1.0000
  C   C1504     1.0  0.70362  0.87773  0.17656  1.0000
  N   N85       1.0  0.52195  0.97128  0.34039  1.0000
  H   H2668     1.0  0.68749  0.91495  0.15137  1.0000
  H   H2669     1.0  0.66803  0.89362  0.15661  1.0000
  H   H2670     1.0  0.62987  0.94227  0.15517  1.0000
  H   H2671     1.0  0.65635  0.94787  0.14223  1.0000
  H   H2672     1.0  0.68498  0.94946  0.17027  1.0000
  H   H2673     1.0  0.67783  0.93927  0.19767  1.0000
  H   H2674     1.0  0.64933  0.91453  0.20502  1.0000
  H   H2675     1.0  0.62778  0.92983  0.19162  1.0000
  H   H2676     1.0  0.64071  0.88180  0.17824  1.0000
  H   H2677     1.0  0.61713  0.89899  0.16890  1.0000
  H   H2678     1.0  0.70312  0.91136  0.18832  1.0000
  H   H2679     1.0  0.68041  0.89446  0.19905  1.0000
  H   H2680     1.0  0.64032  0.96283  0.19536  1.0000
  C   C1505     1.0  0.88814  0.79217  0.29341  1.0000
  H   H2681     1.0  0.65912  0.91368  0.12242  1.0000
  H   H2682     1.0  0.63562  0.90181  0.13732  1.0000
  H   H2683     1.0  0.62420  0.91494  0.10032  1.0000
  H   H2684     1.0  0.61031  0.93215  0.12133  1.0000
  H   H2685     1.0  0.63436  0.94236  0.10530  1.0000
  H   H2686     1.0  0.60189  0.90063  0.20805  1.0000
  H   H2687     1.0  0.60536  0.87246  0.19836  1.0000
  H   H2688     1.0  0.62533  0.88334  0.21745  1.0000
  H   H2689     1.0  0.71593  0.87277  0.18956  1.0000
  H   H2690     1.0  0.69190  0.86381  0.17439  1.0000
  H   H2691     1.0  0.71300  0.88065  0.16043  1.0000
  H   H2692     1.0  0.95890  0.80389  0.49018  1.0000
  H   H2693     1.0  0.89982  0.82273  0.30838  1.0000
  H   H2694     1.0  0.81364  0.85643  0.24578  1.0000
  H   H2695     1.0  0.84222  0.85470  0.10465  1.0000
  C   C1506     1.0  0.83121  0.80414  0.26627  1.0000
  H   H2696     1.0  0.80886  0.84558  0.27388  1.0000
  S   S334      1.0  0.49665  0.78355  0.44377  1.0000
  C   C1507     1.0  0.81193  0.84093  0.25604  1.0000
  H   H2697     1.0  0.81284  0.81823  0.06093  1.0000
  N   N86       1.0  0.98242  0.84113  0.47098  1.0000
  C   C1508     1.0  0.87025  0.80429  0.27875  1.0000
  C   C1509     1.0  0.54764  0.95533  0.30800  1.0000
  S   S335      1.0  0.50647  0.92872  0.27162  1.0000
  N   N87       1.0  0.57094  0.76728  0.44092  1.0000
  C   C1510     1.0  0.98914  0.96914  0.30476  1.0000
  C   C1511     1.0  0.66931  0.98270  0.19941  1.0000
  H   H2698     1.0  0.97265  0.98996  0.24298  1.0000
  H   H2699     1.0  0.59383  0.74668  0.40391  1.0000
  H   H2700     1.0  0.86212  0.81684  0.29017  1.0000
  C   C1512     1.0  0.57069  0.98578  0.17195  1.0000
  S   S336      1.0  0.62575  0.98477  0.12865  1.0000
  H   H2701     1.0  0.81192  0.85564  0.10181  1.0000
  H   H2702     1.0  0.89633  0.77698  0.24790  1.0000
  C   C1513     1.0  0.50379  0.77915  0.48934  1.0000
  H   H2703     1.0  0.87940  0.75277  0.25396  1.0000
  H   H2704     1.0  0.59977  0.80058  0.43049  1.0000
  H   H2705     1.0  0.61259  0.77656  0.33653  1.0000
  H   H2706     1.0  0.96817  0.87685  0.44334  1.0000
  H   H2707     1.0  0.97850  0.81622  0.35967  1.0000
  C   C1514     1.0  0.82846  0.80905  0.06580  1.0000
  H   H2708     1.0  0.54134  0.98974  0.31515  1.0000
  C   C1515     1.0  0.51205  0.94520  0.37496  1.0000
  H   H2709     1.0  0.90581  0.76650  0.03928  1.0000
  H   H2710     1.0  0.54986  0.81138  0.27905  1.0000
  H   H2711     1.0  0.53417  0.95508  0.29560  1.0000
  Fe  Fe168     1.0  0.69727  0.98698  0.07765  1.0000
  H   H2712     1.0  0.50140  0.91107  0.37022  1.0000
  H   H2713     1.0  0.87937  0.81423  0.26554  1.0000
  C   C1516     1.0  0.97232  0.85900  0.48610  1.0000
  C   C1517     1.0  0.73637  0.76239  0.24416  1.0000
  S   S337      1.0  0.98229  0.77095  0.42944  1.0000
  H   H2714     1.0  0.73087  0.97474  0.99749  1.0000
  C   C1518     1.0  0.77580  0.75573  0.23340  1.0000
  S   S338      1.0  0.50862  0.76646  0.38375  1.0000
  H   H2715     1.0  0.52461  0.80144  0.29290  1.0000
  C   C1519     1.0  0.84301  0.74511  0.10665  1.0000
  H   H2716     1.0  0.57482  0.81743  0.43529  1.0000
  S   S339      1.0  0.49868  0.97107  0.22087  1.0000
  H   H2717     1.0  0.80790  0.76445  0.01176  1.0000
  C   C1520     1.0  0.82884  0.75459  0.27464  1.0000
  C   C1521     1.0  0.67688  0.99236  0.00746  1.0000
  C   C1522     1.0  0.84712  0.77033  0.28310  1.0000
  H   H2718     1.0  0.56936  0.97556  0.28608  1.0000
  C   C1523     1.0  0.51166  0.89040  0.29759  1.0000
  C   C1524     1.0  0.85959  0.76110  0.10329  1.0000
  H   H2719     1.0  0.65184  0.97441  0.16972  1.0000
  H   H2720     1.0  0.95222  0.95559  0.23768  1.0000
  C   C1525     1.0  0.98035  0.86554  0.43447  1.0000
  H   H2721     1.0  0.50032  0.82892  0.46170  1.0000
  C   C1526     1.0  0.54324  0.79925  0.29171  1.0000
  H   H2722     1.0  0.68574  0.98635  0.19093  1.0000
  C   C1527     1.0  0.56712  0.76446  0.48459  1.0000
  S   S340      1.0  0.99498  0.89102  0.26728  1.0000
  C   C1528     1.0  0.58434  0.75973  0.35200  1.0000
  C   C1529     1.0  0.90687  0.80786  0.29956  1.0000
  H   H2723     1.0  0.91894  0.79910  0.31078  1.0000
  Fe  Fe169     1.0  0.99185  0.90602  0.30180  1.0000
  C   C1530     1.0  0.82551  0.75780  0.00999  1.0000
  H   H2724     1.0  0.57057  0.82131  0.39329  1.0000
  H   H2725     1.0  0.88927  0.76977  0.08368  1.0000
  H   H2726     1.0  0.88009  0.78614  0.30939  1.0000
  H   H2727     1.0  0.87069  0.75081  0.21304  1.0000
  S   S341      1.0  0.70872  0.98192  0.04047  1.0000
  H   H2728     1.0  0.50415  0.91880  0.39909  1.0000
  H   H2729     1.0  0.96566  0.78724  0.38715  1.0000
  C   C1531     1.0  0.78344  0.96406  0.11882  1.0000
  H   H2730     1.0  0.84605  0.77544  0.23602  1.0000
  H   H2731     1.0  0.59677  0.83173  0.40293  1.0000
  H   H2732     1.0  0.57240  0.94599  0.28220  1.0000
  H   H2733     1.0  0.55089  0.75563  0.48608  1.0000
  H   H2734     1.0  0.67238  0.97593  0.21656  1.0000
  H   H2735     1.0  0.59641  0.80519  0.38928  1.0000
  C   C1532     1.0  0.56781  0.78440  0.42234  1.0000
  H   H2736     1.0  0.97094  0.85405  0.42384  1.0000
  Fe  Fe170     1.0  0.99043  0.75605  0.46430  1.0000
  H   H2737     1.0  0.95554  0.86458  0.47987  1.0000
  C   C1533     1.0  0.58685  0.81647  0.40089  1.0000
  H   H2738     1.0  0.91631  0.81337  0.28419  1.0000
  H   H2739     1.0  0.55794  0.97550  0.33559  1.0000
  C   C1534     1.0  0.54264  0.97408  0.32527  1.0000
  C   C1535     1.0  0.97627  0.98761  0.31261  1.0000
  C   C1536     1.0  0.99493  0.85207  0.45141  1.0000
  H   H2740     1.0  0.98267  0.87425  0.48527  1.0000
  C   C1537     1.0  0.56767  0.77930  0.46301  1.0000
  C   C1538     1.0  0.51171  0.92060  0.38190  1.0000
  C   C1539     1.0  0.90675  0.77430  0.02225  1.0000
  H   H2741     1.0  0.86229  0.75971  0.28601  1.0000
  H   H2742     1.0  0.55080  0.76192  0.31829  1.0000
  H   H2743     1.0  0.52907  0.91327  0.38190  1.0000
  C   C1540     1.0  0.50691  0.87559  0.31576  1.0000
  H   H2744     1.0  0.81221  0.76327  0.27355  1.0000
  H   H2745     1.0  0.83362  0.74784  0.25787  1.0000
  H   H2746     1.0  0.94214  0.78696  0.45638  1.0000
  H   H2747     1.0  0.97187  0.81481  0.44949  1.0000
  C   C1541     1.0  0.86528  0.76781  0.01579  1.0000
  H   H2748     1.0  0.92162  0.80963  0.45537  1.0000
  C   C1542     1.0  0.94507  0.97157  0.23108  1.0000
  H   H2749     1.0  0.77833  0.98025  0.12642  1.0000
  C   C1543     1.0  0.59404  0.75608  0.44006  1.0000
  C   C1544     1.0  0.52229  0.98935  0.35781  1.0000
  C   C1545     1.0  0.50136  0.79424  0.47114  1.0000
  H   H2750     1.0  0.58144  0.96947  0.14117  1.0000
  H   H2751     1.0  0.55442  0.97801  0.17278  1.0000
  C   C1546     1.0  0.58612  0.98097  0.15399  1.0000
  H   H2752     1.0  0.50338  0.76147  0.48630  1.0000
  H   H2753     1.0  0.83081  0.74463  0.04469  1.0000
  H   H2754     1.0  0.58422  0.95848  0.30652  1.0000
  C   C1547     1.0  0.88414  0.78526  0.01636  1.0000
  H   H2755     1.0  0.98421  0.88828  0.40596  1.0000
  C   C1548     1.0  0.88120  0.76781  0.24313  1.0000
  H   H2756     1.0  0.79155  0.96736  0.10209  1.0000
  H   H2757     1.0  0.51684  0.93561  0.34001  1.0000
  H   H2758     1.0  0.53831  0.98807  0.36717  1.0000
  S   S342      1.0  0.52428  0.99172  0.26456  1.0000
  H   H2759     1.0  0.93843  0.82655  0.48847  1.0000
  C   C1549     1.0  0.54972  0.77556  0.28460  1.0000
  H   H2760     1.0  0.91175  0.76142  0.00974  1.0000
  C   C1550     1.0  0.49959  0.91072  0.29502  1.0000
  C   C1551     1.0  0.50217  0.81705  0.47542  1.0000
  H   H2761     1.0  0.50145  0.95986  0.31344  1.0000
  C   C1552     1.0  0.95398  0.99083  0.24453  1.0000
  H   H2762     1.0  0.50185  0.98893  0.31565  1.0000
  H   H2763     1.0  0.52389  0.76208  0.30664  1.0000
  H   H2764     1.0  0.50879  0.98726  0.37082  1.0000
  Fe  Fe171     1.0  0.66305  0.99063  0.11842  1.0000
  H   H2765     1.0  0.94912  0.98781  0.26243  1.0000
  C   C1553     1.0  0.98051  0.98726  0.67704  1.0000
  H   H2766     1.0  0.56180  0.78975  0.68635  1.0000
  H   H2767     1.0  0.62775  0.81651  0.65688  1.0000
  H   H2768     1.0  0.81723  0.74854  0.72250  1.0000
  C   C1554     1.0  0.62626  0.78800  0.63597  1.0000
  H   H2769     1.0  0.55543  0.79155  0.50638  1.0000
  Fe  Fe172     1.0  0.71195  0.96996  0.86043  1.0000
  S   S343      1.0  0.67670  0.97335  0.87546  1.0000
  S   S344      1.0  0.72357  0.93894  0.84084  1.0000
  Fe  Fe173     1.0  0.83511  0.78906  0.83377  1.0000
  S   S345      1.0  0.83204  0.78488  0.79613  1.0000
  C   C1555     1.0  0.82220  0.79613  0.73431  1.0000
  Fe  Fe174     1.0  0.80772  0.83300  0.83368  1.0000
  S   S346      1.0  0.80259  0.83180  0.79660  1.0000
  S   S347      1.0  0.79633  0.86093  0.85747  1.0000
  Fe  Fe175     1.0  0.79576  0.79530  0.80178  1.0000
  S   S348      1.0  0.76404  0.78210  0.78598  1.0000
  Fe  Fe176     1.0  0.83933  0.82147  0.79338  1.0000
  S   S349      1.0  0.85811  0.84073  0.76539  1.0000
  S   S350      1.0  0.79824  0.79715  0.83956  1.0000
  S   S351      1.0  0.84494  0.82498  0.83038  1.0000
  C   C1556     1.0  0.83504  0.75258  0.91800  1.0000
  S   S352      1.0  0.95976  0.83684  0.72649  1.0000
  S   S353      1.0  0.97577  0.87633  0.67102  1.0000
  H   H2770     1.0  0.75761  0.79913  0.88427  1.0000
  C   C1557     1.0  0.81593  0.75762  0.70629  1.0000
  H   H2771     1.0  0.58560  0.78645  0.50608  1.0000
  H   H2772     1.0  0.49761  0.86209  0.70303  1.0000
  H   H2773     1.0  0.60724  0.94553  0.92130  1.0000
  H   H2774     1.0  0.79985  0.76741  0.70695  1.0000
  Fe  Fe177     1.0  0.53477  0.77689  0.61448  1.0000
  S   S354      1.0  0.53217  0.99165  0.72383  1.0000
  S   S355      1.0  0.53316  0.81352  0.60561  1.0000
  C   C1558     1.0  0.77857  0.74683  0.75873  1.0000
  H   H2775     1.0  0.53553  0.98604  0.86363  1.0000
  Fe  Fe178     1.0  0.50648  0.96486  0.71892  1.0000
  H   H2776     1.0  0.98745  0.92249  0.58762  1.0000
  Fe  Fe179     1.0  0.98216  0.85992  0.70482  1.0000
  H   H2777     1.0  0.56449  0.81334  0.70445  1.0000
  H   H2778     1.0  0.83637  0.79447  0.94150  1.0000
  C   C1559     1.0  0.87598  0.80603  0.69748  1.0000
  H   H2779     1.0  0.82251  0.77039  0.88875  1.0000
  H   H2780     1.0  0.64038  0.94614  0.85239  1.0000
  C   C1560     1.0  0.88653  0.83935  0.75505  1.0000
  C   C1561     1.0  0.90152  0.82216  0.76113  1.0000
  C   C1562     1.0  0.92380  0.82172  0.75219  1.0000
  C   C1563     1.0  0.93147  0.83849  0.73723  1.0000
  C   C1564     1.0  0.91643  0.85567  0.73116  1.0000
  C   C1565     1.0  0.89408  0.85599  0.73992  1.0000
  H   H2781     1.0  0.89603  0.80923  0.77274  1.0000
  H   H2782     1.0  0.93528  0.80835  0.75700  1.0000
  H   H2783     1.0  0.92201  0.86863  0.71963  1.0000
  H   H2784     1.0  0.88261  0.86932  0.73501  1.0000
  C   C1566     1.0  0.56893  0.77844  0.50573  1.0000
  C   C1567     1.0  0.58125  0.74647  0.65885  1.0000
  C   C1568     1.0  0.83628  0.76055  0.89555  1.0000
  H   H2785     1.0  0.64379  0.79032  0.62952  1.0000
  N   N88       1.0  0.84238  0.78863  0.72014  1.0000
  H   H2786     1.0  0.77031  0.82375  0.72584  1.0000
  Fe  Fe180     1.0  0.99220  0.76391  0.51563  1.0000
  C   C1569     1.0  0.74527  0.91868  0.84556  1.0000
  C   C1570     1.0  0.75190  0.90448  0.82786  1.0000
  C   C1571     1.0  0.76785  0.88706  0.83110  1.0000
  C   C1572     1.0  0.77719  0.88346  0.85220  1.0000
  C   C1573     1.0  0.77088  0.89788  0.86983  1.0000
  C   C1574     1.0  0.75504  0.91544  0.86655  1.0000
  H   H2787     1.0  0.74442  0.90684  0.81157  1.0000
  H   H2788     1.0  0.77259  0.87618  0.81736  1.0000
  H   H2789     1.0  0.77806  0.89530  0.88623  1.0000
  H   H2790     1.0  0.75005  0.92616  0.88035  1.0000
  H   H2791     1.0  0.87541  0.77364  0.72581  1.0000
  H   H2792     1.0  0.64144  0.93279  0.87984  1.0000
  C   C1575     1.0  0.50895  0.90748  0.65770  1.0000
  H   H2793     1.0  0.83268  0.82092  0.95541  1.0000
  H   H2794     1.0  0.81172  0.74867  0.67124  1.0000
  C   C1576     1.0  0.50082  0.87468  0.69024  1.0000
  C   C1577     1.0  0.59472  0.86725  0.71079  1.0000
  H   H2795     1.0  0.85323  0.77514  0.97517  1.0000
  C   C1578     1.0  0.97919  0.81805  0.57887  1.0000
  H   H2796     1.0  0.57750  0.83309  0.62495  1.0000
  H   H2797     1.0  0.57726  0.95204  0.92121  1.0000
  H   H2798     1.0  0.93811  0.87172  0.51757  1.0000
  S   S356      1.0  0.98265  0.79180  0.54090  1.0000
  S   S357      1.0  0.56892  0.75819  0.61504  1.0000
  H   H2799     1.0  0.51202  0.92010  0.64491  1.0000
  H   H2800     1.0  0.57647  0.88643  0.62132  1.0000
  S   S358      1.0  0.72753  0.98808  0.88895  1.0000
  C   C1579     1.0  0.82095  0.79236  0.97520  1.0000
  H   H2801     1.0  0.81096  0.82857  0.72095  1.0000
  C   C1580     1.0  0.76178  0.81667  0.88768  1.0000
  H   H2802     1.0  0.99059  0.95493  0.63241  1.0000
  H   H2803     1.0  0.59714  0.82705  0.69269  1.0000
  C   C1581     1.0  0.99524  0.96888  0.68069  1.0000
  H   H2804     1.0  0.81171  0.77699  0.97164  1.0000
  H   H2805     1.0  0.78379  0.81713  0.75198  1.0000
  C   C1582     1.0  0.50684  0.80953  0.51589  1.0000
  C   C1583     1.0  0.55502  0.80662  0.69034  1.0000
  H   H2806     1.0  0.85492  0.82211  0.72274  1.0000
  H   H2807     1.0  0.98624  0.85198  0.51961  1.0000
  H   H2808     1.0  0.82024  0.75642  0.92833  1.0000
  H   H2809     1.0  0.96303  0.98432  0.67358  1.0000
  C   C1584     1.0  0.80478  0.81124  0.72193  1.0000
  H   H2810     1.0  0.96149  0.83682  0.51466  1.0000
  H   H2811     1.0  0.58213  0.79793  0.64228  1.0000
  H   H2812     1.0  0.83201  0.78268  0.68595  1.0000
  Fe  Fe181     1.0  0.50364  0.81564  0.63031  1.0000
  H   H2813     1.0  0.59414  0.85301  0.63817  1.0000
  H   H2814     1.0  0.58143  0.87434  0.67843  1.0000
  H   H2815     1.0  0.89930  0.82416  0.67571  1.0000
  C   C1585     1.0  0.50259  0.86839  0.66748  1.0000
  H   H2816     1.0  0.85329  0.80230  0.98665  1.0000
  C   C1586     1.0  0.57842  0.84335  0.64039  1.0000
  H   H2817     1.0  0.72776  0.82905  0.88993  1.0000
  H   H2818     1.0  0.61234  0.87118  0.70569  1.0000
  C   C1587     1.0  0.55811  0.86000  0.63884  1.0000
  H   H2819     1.0  0.63735  0.98997  0.74452  1.0000
  H   H2820     1.0  0.72514  0.76805  0.76276  1.0000
  H   H2821     1.0  0.96946  0.88659  0.59597  1.0000
  C   C1588     1.0  0.98969  0.91485  0.60444  1.0000
  C   C1589     1.0  0.59216  0.80725  0.65452  1.0000
  N   N89       1.0  0.57969  0.82849  0.66116  1.0000
  H   H2822     1.0  0.55313  0.96427  0.85098  1.0000
  H   H2823     1.0  0.56293  0.86719  0.60299  1.0000
  H   H2824     1.0  0.87196  0.90984  0.89036  1.0000
  H   H2825     1.0  0.60304  0.95652  0.79943  1.0000
  H   H2826     1.0  0.99128  0.81769  0.49774  1.0000
  H   H2827     1.0  0.82653  0.74926  0.99348  1.0000
  Fe  Fe182     1.0  0.50795  0.80455  0.57943  1.0000
  N   N90       1.0  0.86120  0.89381  0.82007  1.0000
  C   C1590     1.0  0.84692  0.88661  0.80094  1.0000
  C   C1591     1.0  0.88249  0.87958  0.82029  1.0000
  C   C1592     1.0  0.84782  0.88910  0.84166  1.0000
  C   C1593     1.0  0.86661  0.91829  0.81862  1.0000
  C   C1594     1.0  0.86867  0.92903  0.79471  1.0000
  C   C1595     1.0  0.82255  0.89653  0.80099  1.0000
  C   C1596     1.0  0.86012  0.88843  0.86442  1.0000
  C   C1597     1.0  0.89838  0.88107  0.79928  1.0000
  C   C1598     1.0  0.91760  0.86376  0.80059  1.0000
  C   C1599     1.0  0.87800  0.95250  0.79565  1.0000
  C   C1600     1.0  0.81173  0.89406  0.77815  1.0000
  C   C1601     1.0  0.86904  0.91070  0.87199  1.0000
  H   H2828     1.0  0.84524  0.86819  0.80148  1.0000
  H   H2829     1.0  0.85501  0.89011  0.78430  1.0000
  H   H2830     1.0  0.89313  0.88409  0.83455  1.0000
  H   H2831     1.0  0.87812  0.86176  0.82299  1.0000
  H   H2832     1.0  0.84012  0.87243  0.84070  1.0000
  H   H2833     1.0  0.83319  0.90091  0.84369  1.0000
  H   H2834     1.0  0.85354  0.92847  0.82781  1.0000
  H   H2835     1.0  0.88266  0.92135  0.82712  1.0000
  H   H2836     1.0  0.85191  0.93048  0.78693  1.0000
  H   H2837     1.0  0.87981  0.91920  0.78323  1.0000
  H   H2838     1.0  0.81208  0.88745  0.81365  1.0000
  H   H2839     1.0  0.82201  0.91437  0.80551  1.0000
  H   H2840     1.0  0.87353  0.87527  0.86499  1.0000
  H   H2841     1.0  0.84741  0.88315  0.87743  1.0000
  H   H2842     1.0  0.88946  0.87810  0.78356  1.0000
  H   H2843     1.0  0.90621  0.89766  0.79829  1.0000
  H   H2844     1.0  0.91082  0.84667  0.80172  1.0000
  H   H2845     1.0  0.92852  0.86489  0.78515  1.0000
  H   H2846     1.0  0.92807  0.86664  0.81543  1.0000
  H   H2847     1.0  0.89533  0.95197  0.80230  1.0000
  H   H2848     1.0  0.87875  0.95995  0.77845  1.0000
  H   H2849     1.0  0.86697  0.96328  0.80649  1.0000
  H   H2850     1.0  0.81219  0.87635  0.77302  1.0000
  H   H2851     1.0  0.79386  0.89995  0.77925  1.0000
  H   H2852     1.0  0.82075  0.90415  0.76512  1.0000
  H   H2853     1.0  0.96337  0.88728  0.52224  1.0000
  H   H2854     1.0  0.85666  0.92446  0.86886  1.0000
  H   H2855     1.0  0.79511  0.74888  0.76548  1.0000
  N   N91       1.0  0.71809  0.84127  0.84482  1.0000
  C   C1602     1.0  0.71199  0.86220  0.85762  1.0000
  C   C1603     1.0  0.73941  0.83063  0.85398  1.0000
  C   C1604     1.0  0.72256  0.84798  0.82054  1.0000
  C   C1605     1.0  0.69914  0.82492  0.84522  1.0000
  C   C1606     1.0  0.69068  0.81655  0.86859  1.0000
  C   C1607     1.0  0.69230  0.87674  0.84837  1.0000
  C   C1608     1.0  0.73306  0.82978  0.80492  1.0000
  C   C1609     1.0  0.74310  0.83258  0.87970  1.0000
  H   H2856     1.0  0.80873  0.80731  0.94421  1.0000
  C   C1610     1.0  0.66984  0.80228  0.86652  1.0000
  C   C1611     1.0  0.68533  0.89513  0.86483  1.0000
  C   C1612     1.0  0.73754  0.83921  0.78123  1.0000
  H   H2857     1.0  0.72693  0.87310  0.85796  1.0000
  H   H2858     1.0  0.70788  0.85851  0.87554  1.0000
  H   H2859     1.0  0.74066  0.81271  0.84939  1.0000
  H   H2860     1.0  0.75458  0.83837  0.84596  1.0000
  H   H2861     1.0  0.73391  0.86237  0.81961  1.0000
  H   H2862     1.0  0.70670  0.85383  0.81253  1.0000
  H   H2863     1.0  0.68444  0.83185  0.83601  1.0000
  H   H2864     1.0  0.70437  0.80968  0.83587  1.0000
  H   H2865     1.0  0.68595  0.83047  0.87990  1.0000
  H   H2866     1.0  0.70386  0.80584  0.87642  1.0000
  H   H2867     1.0  0.69760  0.88501  0.83231  1.0000
  H   H2868     1.0  0.67723  0.86673  0.84544  1.0000
  H   H2869     1.0  0.72161  0.81558  0.80341  1.0000
  H   H2870     1.0  0.74941  0.82332  0.81122  1.0000
  S   S359      1.0  0.50943  0.82020  0.54366  1.0000
  C   C1613     1.0  0.50297  0.89715  0.69669  1.0000
  H   H2871     1.0  0.97602  0.92144  0.61582  1.0000
  C   C1614     1.0  0.96957  0.85303  0.51161  1.0000
  C   C1615     1.0  0.85522  0.75553  0.88189  1.0000
  H   H2872     1.0  0.67369  0.78770  0.85567  1.0000
  H   H2873     1.0  0.60871  0.98407  0.75293  1.0000
  H   H2874     1.0  0.65572  0.81224  0.85928  1.0000
  H   H2875     1.0  0.67778  0.88790  0.88051  1.0000
  H   H2876     1.0  0.70010  0.90510  0.86917  1.0000
  H   H2877     1.0  0.67269  0.90650  0.85698  1.0000
  H   H2878     1.0  0.72169  0.84586  0.77391  1.0000
  H   H2879     1.0  0.75009  0.85264  0.78160  1.0000
  H   H2880     1.0  0.74439  0.82579  0.77019  1.0000
  H   H2881     1.0  0.66437  0.79607  0.88344  1.0000
  C   C1616     1.0  0.88215  0.82657  0.68335  1.0000
  H   H2882     1.0  0.63413  0.97239  0.82098  1.0000
  H   H2883     1.0  0.52316  0.82031  0.70382  1.0000
  S   S360      1.0  0.85728  0.76415  0.85314  1.0000
  H   H2884     1.0  0.81325  0.78179  0.74201  1.0000
  S   S361      1.0  0.51145  0.76808  0.58683  1.0000
  H   H2885     1.0  0.57108  0.96586  0.88785  1.0000
  H   H2886     1.0  0.54737  0.81395  0.65554  1.0000
  C   C1617     1.0  0.58150  0.86009  0.69049  1.0000
  H   H2887     1.0  0.60028  0.94066  0.88566  1.0000
  H   H2888     1.0  0.59423  0.79588  0.66928  1.0000
  C   C1618     1.0  0.59275  0.83940  0.67928  1.0000
  H   H2889     1.0  0.55533  0.86977  0.65429  1.0000
  C   C1619     1.0  0.85300  0.75573  0.74710  1.0000
  C   C1620     1.0  0.50660  0.88505  0.65124  1.0000
  H   H2890     1.0  0.88947  0.80361  0.70997  1.0000
  N   N92       1.0  0.59908  0.98690  0.89572  1.0000
  S   S362      1.0  0.51024  0.94262  0.68741  1.0000
  C   C1621     1.0  0.82500  0.80451  0.95273  1.0000
  Fe  Fe183     1.0  0.53000  0.98278  0.76084  1.0000
  H   H2891     1.0  0.87308  0.76084  0.77687  1.0000
  C   C1622     1.0  0.61699  0.97346  0.88302  1.0000
  H   H2892     1.0  0.83668  0.75722  0.75644  1.0000
  H   H2893     1.0  0.85114  0.76249  0.69659  1.0000
  C   C1623     1.0  0.58629  0.74533  0.63576  1.0000
  C   C1624     1.0  0.63047  0.93694  0.86546  1.0000
  C   C1625     1.0  0.55634  0.82218  0.66930  1.0000
  H   H2894     1.0  0.82775  0.80576  0.74898  1.0000
  H   H2895     1.0  0.74816  0.84980  0.88356  1.0000
  C   C1626     1.0  0.60993  0.95083  0.87330  1.0000
  H   H2896     1.0  0.61626  0.82182  0.62952  1.0000
  C   C1627     1.0  0.59269  0.95444  0.95318  1.0000
  H   H2897     1.0  0.96168  0.82009  0.57450  1.0000
  S   S363      1.0  0.50573  0.95475  0.75553  1.0000
  C   C1628     1.0  0.99362  0.80444  0.56544  1.0000
  H   H2898     1.0  0.60927  0.84508  0.67239  1.0000
  H   H2899     1.0  0.50143  0.90157  0.71424  1.0000
  C   C1629     1.0  0.95548  0.87074  0.52410  1.0000
  C   C1630     1.0  0.73914  0.75747  0.75728  1.0000
  C   C1631     1.0  0.59935  0.98129  0.92056  1.0000
  C   C1632     1.0  0.56128  0.87631  0.61910  1.0000
  C   C1633     1.0  0.61625  0.81017  0.64415  1.0000
  H   H2900     1.0  0.88549  0.91425  0.86362  1.0000
  C   C1634     1.0  0.76064  0.76066  0.76602  1.0000
  H   H2901     1.0  0.77430  0.79510  0.73434  1.0000
  H   H2902     1.0  0.58659  0.88241  0.71816  1.0000
  H   H2903     1.0  0.61620  0.78158  0.62207  1.0000
  C   C1635     1.0  0.83625  0.77311  0.70153  1.0000
  H   H2904     1.0  0.80223  0.80560  0.70452  1.0000
  S   S364      1.0  0.56249  0.97503  0.78060  1.0000
  H   H2905     1.0  0.58907  0.93689  0.95783  1.0000
  C   C1636     1.0  0.53064  0.80397  0.69871  1.0000
  H   H2906     1.0  0.54640  0.88780  0.61819  1.0000
  H   H2907     1.0  0.56403  0.85698  0.69657  1.0000
  C   C1637     1.0  0.59373  0.95710  0.92756  1.0000
  H   H2908     1.0  0.60908  0.95875  0.96046  1.0000
  H   H2909     1.0  0.54246  0.85080  0.63598  1.0000
  S   S365      1.0  0.49974  0.83957  0.66049  1.0000
  H   H2910     1.0  0.63171  0.97028  0.89394  1.0000
  H   H2911     1.0  0.59917  0.95363  0.85850  1.0000
  H   H2912     1.0  0.84119  0.81710  0.69731  1.0000
  H   H2913     1.0  0.59483  0.85390  0.72391  1.0000
  H   H2914     1.0  0.77806  0.82066  0.87913  1.0000
  H   H2915     1.0  0.62664  0.77552  0.64994  1.0000
  C   C1638     1.0  0.50678  0.78670  0.51148  1.0000
  C   C1639     1.0  0.60237  0.97397  0.80371  1.0000
  H   H2916     1.0  0.62488  0.92119  0.85807  1.0000
  H   H2917     1.0  0.87001  0.82933  0.66963  1.0000
  C   C1640     1.0  0.85274  0.80928  0.70973  1.0000
  C   C1641     1.0  0.78193  0.81181  0.73434  1.0000
  H   H2918     1.0  0.52029  0.79700  0.68533  1.0000
  H   H2919     1.0  0.56583  0.75474  0.66457  1.0000
  H   H2920     1.0  0.87606  0.79144  0.68625  1.0000
  H   H2921     1.0  0.88222  0.84158  0.69404  1.0000
  C   C1642     1.0  0.62008  0.98292  0.81599  1.0000
  H   H2922     1.0  0.97561  0.83915  0.60815  1.0000
  S   S366      1.0  0.50660  0.77903  0.64046  1.0000
  H   H2923     1.0  0.54585  0.83714  0.67336  1.0000
  C   C1643     1.0  0.58400  0.98737  0.79663  1.0000
  H   H2924     1.0  0.80990  0.80321  0.98584  1.0000
  H   H2925     1.0  0.56705  0.76763  0.52095  1.0000
  H   H2926     1.0  0.54801  0.98994  0.83590  1.0000
  C   C1644     1.0  0.68522  0.99028  0.96664  1.0000
  H   H2927     1.0  0.76385  0.81847  0.90606  1.0000
  C   C1645     1.0  0.50706  0.91382  0.68046  1.0000
  H   H2928     1.0  0.50907  0.77486  0.52511  1.0000
  C   C1646     1.0  0.70717  0.98303  0.97150  1.0000
  H   H2929     1.0  0.62391  0.98313  0.86839  1.0000
  H   H2930     1.0  0.61640  0.98384  0.92733  1.0000
  C   C1647     1.0  0.98706  0.82894  0.59805  1.0000
  H   H2931     1.0  0.95438  0.86627  0.54230  1.0000
  C   C1648     1.0  0.98642  0.88978  0.60251  1.0000
  H   H2932     1.0  0.50498  0.84228  0.50070  1.0000
  H   H2933     1.0  0.50766  0.88071  0.63366  1.0000
  H   H2934     1.0  0.86434  0.78988  0.74849  1.0000
  C   C1649     1.0  0.57565  0.98364  0.88719  1.0000
  H   H2935     1.0  0.57913  0.96531  0.96059  1.0000
  C   C1650     1.0  0.55075  0.98255  0.85288  1.0000
  C   C1651     1.0  0.85960  0.77788  0.73535  1.0000
  H   H2936     1.0  0.98822  0.95759  0.60309  1.0000
  C   C1652     1.0  0.50477  0.82458  0.49762  1.0000
  C   C1653     1.0  0.71386  0.98042  0.99410  1.0000
  H   H2937     1.0  0.71899  0.97933  0.95784  1.0000
  S   S367      1.0  0.98480  0.94117  0.67798  1.0000
  H   H2938     1.0  0.53010  0.79247  0.71348  1.0000
  C   C1654     1.0  0.84363  0.78664  0.98668  1.0000
  H   H2939     1.0  0.98773  0.88149  0.61926  1.0000
  H   H2940     1.0  0.58623  0.98883  0.85166  1.0000
  H   H2941     1.0  0.56291  0.99208  0.89844  1.0000
  H   H2942     1.0  0.58760  0.99277  0.92998  1.0000
  C   C1655     1.0  0.57159  0.99257  0.86296  1.0000
  C   C1656     1.0  0.87087  0.74810  0.76379  1.0000
  Fe  Fe184     1.0  0.69196  0.99397  0.90257  1.0000
  S   S368      1.0  0.67554  0.99367  0.93840  1.0000
  H   H2943     1.0  0.97129  0.99367  0.63002  1.0000
  H   H2944     1.0  0.88733  0.74495  0.75495  1.0000
