data_image0
_chemical_formula_structural       FeSHFeS2FeSFeS3FeS2FeS2FeSFeS3FeS2FeS2FeSFeS3HC2H2CHCH2CHCH2C6H4CHC2H4C5HC6H5NC2H2CHCH4NC12H28NH2C4HNCH2CH10CH4NC5HC4HCH10C2H10C2H2CHNH3C2H2CH7CH2C2H2CH2C2HCH5CH7CHC2H2C3H2CH4CH2SCHCH3CH3CH2CH9C2H4CHC5HC3HCH5C2H7C3H5FeS2FeS2FeSFeHS2FeS2FeS2FeSFeS3FeS2FeS2FeSFeS3CHCH2C6H4C6H6C3H4CHC2H2C2H2CH2CH2C2H2CHC2H2NC12H18NH16C3H11NC6HCH3CH3CH5NC5H13CHCHC3HCH6CHC5H3CH2CH4CHCH2CH3C2H4CH2C2H3CH3CH5CH3CHCHC3H3CH5CH7C4HCHNH2C2H2C2HNH2CSC2HC2H6C3HCH4CH8NH2CH6CHFeSCFeS2FeSFeS3FeS2FeS2FeSFeS3FeS2FeS2FeSFeS3C3H2C3HC2HC2HCH4C6H4C3H2C3H2C6H4C5H6CH2C6H13NC12H28CHCH3CH7CH2NH2CH2CH3CNC4HC5HCH19CHCH5CHNCSC2HC2HCHCH5CH8CH2CH13C4HCH2CH3CH3CH5CHCH4CNH3CHCHC2H2C3H3C7NH2FeS2FeSCFeSFeS3FeS2FeS2FeSFeS3FeS2FeS2FeSFeS3C2H3CHCH2C6H4C3H2C6H4C5HCH3CHCH6C3H4CH5CHC2H2CH3C6HCHCH4CH7CH4CH3NHCH3C4HC2H5CHC2H18CNC6H16CHNH4CH4C2H3C3H4CNH3C3H2CHNC3H3CH5C3H2C2NC10H17CH2CH2C2H3CH3CH3CH7CH3C3H2CH3C2HCH3FeS2FeS2FeSFeHS2FeS2FeH2FeSFeCS2H2CH5CHC7H4C3HCH3CH4CH2CH5CHCH2C4HSHCHCH2CH2CHCH2SNHCH3CH2C2HCHCH5C2H2CH3CHCH4CH4CH5CH2C2HCH2CHCH2CH3C2HCH4CNH5C2H2SCHCH2CH3CH3NCH3CHCHCHCH5CH2CH3CFeS2FeS2FeSFeS3FeSHFeS2FeSFeHS2C2H2C5HC7H4NHCHCHCHCHCHC2HCH2C2H2CHC2H5CH2C2H2CH6CHCHCHC3H3CH3CHCH7CHCHCH2CH2CH7C2HCH5CNH9C2H4C2H3CH5C2H2CH2CH4CH6CHSH3CFeS2FeS2FeSFeS3FeHSFeS2FeSFeCS2CH5CH2CH4C7H8C4H11CHC2H2C3HNH4CH2CH6CHCHCHSHCSCHCH2CH4CH10CH5CHCH3CNHCHC2HC7H9C2HCHCH5C3HC2H3CH2C2H4CHCHCHCH5NCHFeSHFeS2FeSFeCS2FeS2FeSHFeSFeHS2CH5CHCH2C2H2C6H5CHCH2CHC2HCH4CHSHCHCH2CH2CH5CH2NC12H18CH12C3H2CHNH6CSHC2H2CNH5C2H5CH3SHCH4C2H2C2HCHCH2CH6SCHC4H2CH2CH3C2HCSHCH6CHFeS2FeS2FeSFeS3FeS2FeS2FeSFeS3FeS2FeS2FeSFeHS2C3HCHCH3C2H2C7H5C2H2CH2CHC3HC6H4C3H2C3H2C2H2CHCH3CH3CH14NC2H3NCHCH2CH2C3H7CH3CH2SH3CH5CHCHNC12H28NC4H4NHCH7C2H2NC12H8NCH9CHCHCH4CH2CHCH3CHC2H3C2H5CH2NCHC2H2C2H2CH2CH2CHCHSCHCHC3H3CH3C2H4CH6CH2CH9CH7C2H4CHFeS2FeS2FeSFeS3FeS2FeS2FeSFeS3FeS2FeS2FeCFeS3HC2H2C6H4C2H7C6H8SC2H3C2H4C2HC3H3C2H2CH7NC4HCH2C2HCH2CH3CH3CH3CH6NC7H2C2H14C3H13C2NCHC2HC3H2CHCH2CH4NH5CH2CH2CHNC12H25CH4C2H3CHC9H4CH4CH3C2H7CHCHC2H4CH6C2H3NHC2HNH4CH6CSHC2H3CH2C3HCH3C2H4C2HCH2CHCFeS2FeS2FeSFeS3FeS2FeS2FeSFeS3FeS2FeS2FeSFeHS2C2H3CH3CHCHC2HC6H4C2H3C2H3C2H3CH3C6H4C2H6CH2CH3C2H9NC5HC4HC2H21CHCH3C4H5CNC8HC3H15CH4C2H11CH5CH2CH3CHCH11CNCH2CHCH4CHC3HCH2C3H2C3H5CH6C2NCHCNCH5C2H4C2HCH5C2HCH2CNH5CH4C3HC2HCHCH3C2HCHCHSHC2H7NHCH2CH2C2HFeS2FeSCFeSFeS3FeS2FeS2FeSFeS3FeS2FeS2FeSFeS3CH2C8H4CHCH2C6H4NCHC2HCH3C3H3CH2C4HC2NH5C3HC2H6C2H2C2H7CH2C2HCHCH2CHCHCHC3H3CH2C2H4C2H2SH3NC9H28C2H3CH5CH4CH2CH4C3H3CHCH7C4H5CH6CHCNH2C2H3C3H6CNCH8C4H4CH3CH7NH3CH2CH3C3
_chemical_formula_sum              "Fe128 S256 H2048 C1152 N64"
_cell_length_a       58.9651
_cell_length_b       58.7532
_cell_length_c       46.3798
_cell_angle_alpha    89.3123
_cell_angle_beta     89.4696
_cell_angle_gamma    87.058

_space_group_name_H-M_alt    "P 1"
_space_group_IT_number       1

loop_
  _space_group_symop_operation_xyz
  'x, y, z'

loop_
  _atom_site_type_symbol
  _atom_site_label
  _atom_site_symmetry_multiplicity
  _atom_site_fract_x
  _atom_site_fract_y
  _atom_site_fract_z
  _atom_site_occupancy
  Fe  Fe1       1.0  0.28503  0.10363  0.31320  1.0000
  S   S1        1.0  0.24766  0.09758  0.30923  1.0000
  H   H1        1.0  0.26276  0.22695  0.22562  1.0000
  Fe  Fe2       1.0  0.28300  0.09764  0.37978  1.0000
  S   S2        1.0  0.24584  0.09162  0.37984  1.0000
  S   S3        1.0  0.30426  0.09721  0.42083  1.0000
  Fe  Fe3       1.0  0.25395  0.06871  0.34173  1.0000
  S   S4        1.0  0.23752  0.03392  0.34037  1.0000
  Fe  Fe4       1.0  0.24287  0.12065  0.34755  1.0000
  S   S5        1.0  0.22183  0.15379  0.35510  1.0000
  S   S6        1.0  0.29147  0.07330  0.34332  1.0000
  S   S7        1.0  0.27996  0.12798  0.34983  1.0000
  Fe  Fe5       1.0  0.07104  0.26382  0.34393  1.0000
  S   S8        1.0  0.09373  0.28911  0.36428  1.0000
  S   S9        1.0  0.03298  0.27353  0.35026  1.0000
  Fe  Fe6       1.0  0.11230  0.23095  0.33115  1.0000
  S   S10       1.0  0.13650  0.25390  0.35111  1.0000
  S   S11       1.0  0.12599  0.19687  0.31357  1.0000
  Fe  Fe7       1.0  0.11060  0.25864  0.38648  1.0000
  S   S12       1.0  0.12092  0.24930  0.43247  1.0000
  Fe  Fe8       1.0  0.11769  0.28207  0.32659  1.0000
  S   S13       1.0  0.14180  0.30735  0.30608  1.0000
  S   S14       1.0  0.08723  0.23381  0.36785  1.0000
  S   S15       1.0  0.09408  0.25884  0.30477  1.0000
  Fe  Fe9       1.0  0.21288  0.36267  0.09084  1.0000
  S   S16       1.0  0.23806  0.38697  0.10686  1.0000
  S   S17       1.0  0.21381  0.34883  0.04514  1.0000
  Fe  Fe10      1.0  0.19301  0.35427  0.15235  1.0000
  S   S18       1.0  0.21709  0.37799  0.17198  1.0000
  S   S19       1.0  0.16499  0.33492  0.17542  1.0000
  Fe  Fe11      1.0  0.20922  0.40174  0.13435  1.0000
  S   S20       1.0  0.19474  0.43850  0.14002  1.0000
  Fe  Fe12      1.0  0.24360  0.36110  0.14276  1.0000
  S   S21       1.0  0.27876  0.34926  0.15839  1.0000
  S   S22       1.0  0.18365  0.37869  0.11585  1.0000
  S   S23       1.0  0.21999  0.33608  0.12545  1.0000
  H   H2        1.0  0.23048  0.39855  0.22854  1.0000
  C   C1        1.0  0.23849  0.16704  0.43402  1.0000
  C   C2        1.0  0.12901  0.16530  0.39869  1.0000
  H   H3        1.0  0.20161  0.39676  0.03153  1.0000
  H   H4        1.0  0.01324  0.23581  0.41310  1.0000
  C   C3        1.0  0.00702  0.26158  0.33997  1.0000
  H   H5        1.0  0.30666  0.27565  0.00408  1.0000
  C   C4        1.0  0.00613  0.24394  0.32005  1.0000
  H   H6        1.0  0.99802  0.28732  0.23141  1.0000
  H   H7        1.0  0.02170  0.23684  0.31049  1.0000
  C   C5        1.0  0.11534  0.26422  0.46486  1.0000
  H   H8        1.0  0.25494  0.32968  0.01908  1.0000
  C   C6        1.0  0.10934  0.28754  0.46532  1.0000
  H   H9        1.0  0.27433  0.99939  0.42808  1.0000
  H   H10       1.0  0.10821  0.29716  0.44532  1.0000
  C   C7        1.0  0.14841  0.31363  0.26938  1.0000
  C   C8        1.0  0.16919  0.32336  0.26269  1.0000
  C   C9        1.0  0.17480  0.32952  0.23407  1.0000
  C   C10       1.0  0.15936  0.32671  0.21183  1.0000
  C   C11       1.0  0.13870  0.31672  0.21848  1.0000
  C   C12       1.0  0.13331  0.31006  0.24699  1.0000
  H   H11       1.0  0.18107  0.32608  0.27980  1.0000
  H   H12       1.0  0.19107  0.33635  0.22921  1.0000
  H   H13       1.0  0.12669  0.31423  0.20144  1.0000
  H   H14       1.0  0.11722  0.30270  0.25174  1.0000
  C   C13       1.0  0.27141  0.25859  0.18443  1.0000
  H   H15       1.0  0.30003  0.20608  0.18431  1.0000
  C   C14       1.0  0.28091  0.31041  0.12530  1.0000
  C   C15       1.0  0.29187  0.32364  0.14518  1.0000
  H   H16       1.0  0.13764  0.19897  0.41036  1.0000
  H   H17       1.0  0.20970  0.19137  0.46512  1.0000
  H   H18       1.0  0.17853  0.26056  0.43043  1.0000
  H   H19       1.0  0.26388  0.31531  0.11864  1.0000
  C   C16       1.0  0.15804  0.44987  0.20818  1.0000
  C   C17       1.0  0.29242  0.10385  0.45538  1.0000
  C   C18       1.0  0.26980  0.11183  0.45871  1.0000
  C   C19       1.0  0.30602  0.10105  0.48011  1.0000
  C   C20       1.0  0.25811  0.03723  0.47822  1.0000
  H   H20       1.0  0.13945  0.16456  0.37866  1.0000
  C   C21       1.0  0.19512  0.16483  0.34272  1.0000
  C   C22       1.0  0.18080  0.15247  0.32562  1.0000
  C   C23       1.0  0.15962  0.16240  0.31677  1.0000
  C   C24       1.0  0.15251  0.18458  0.32527  1.0000
  C   C25       1.0  0.16687  0.19672  0.34247  1.0000
  C   C26       1.0  0.18812  0.18706  0.35073  1.0000
  H   H21       1.0  0.18603  0.13533  0.31921  1.0000
  H   H22       1.0  0.14866  0.15281  0.30344  1.0000
  H   H23       1.0  0.16180  0.21365  0.34927  1.0000
  H   H24       1.0  0.19929  0.19698  0.36326  1.0000
  H   H25       1.0  0.12743  0.18157  0.43953  1.0000
  N   N1        1.0  0.17609  0.19065  0.44632  1.0000
  C   C27       1.0  0.23103  0.46737  0.13733  1.0000
  C   C28       1.0  0.20754  0.46538  0.13981  1.0000
  H   H26       1.0  0.27149  0.28308  0.22053  1.0000
  H   H27       1.0  0.24209  0.45220  0.13531  1.0000
  C   C29       1.0  0.10530  0.29855  0.49186  1.0000
  H   H28       1.0  0.26751  0.36579  0.01504  1.0000
  C   C30       1.0  0.24879  0.00515  0.33726  1.0000
  H   H29       1.0  0.29089  0.03847  0.49664  1.0000
  H   H30       1.0  0.26195  0.01886  0.47398  1.0000
  H   H31       1.0  0.28390  0.01313  0.33408  1.0000
  H   H32       1.0  0.04044  0.33071  0.42269  1.0000
  N   N2        1.0  0.17621  0.23949  0.25372  1.0000
  C   C31       1.0  0.18047  0.25906  0.23339  1.0000
  C   C32       1.0  0.17456  0.24843  0.28409  1.0000
  C   C33       1.0  0.19539  0.22166  0.25057  1.0000
  C   C34       1.0  0.15419  0.22869  0.24694  1.0000
  C   C35       1.0  0.13332  0.24538  0.24187  1.0000
  C   C36       1.0  0.18215  0.25288  0.20096  1.0000
  C   C37       1.0  0.19566  0.20188  0.27303  1.0000
  C   C38       1.0  0.19644  0.25833  0.29612  1.0000
  C   C39       1.0  0.19379  0.26375  0.32815  1.0000
  C   C40       1.0  0.11174  0.23242  0.23805  1.0000
  C   C41       1.0  0.18090  0.27424  0.18185  1.0000
  C   C42       1.0  0.21481  0.18408  0.26666  1.0000
  H   H33       1.0  0.19675  0.26678  0.23850  1.0000
  H   H34       1.0  0.16736  0.27317  0.23643  1.0000
  H   H35       1.0  0.16107  0.26230  0.28567  1.0000
  H   H36       1.0  0.16892  0.23497  0.29929  1.0000
  H   H37       1.0  0.21213  0.22956  0.25109  1.0000
  H   H38       1.0  0.19479  0.21365  0.22897  1.0000
  H   H39       1.0  0.15607  0.21756  0.22773  1.0000
  H   H40       1.0  0.14948  0.21695  0.26477  1.0000
  H   H41       1.0  0.13558  0.25584  0.22207  1.0000
  H   H42       1.0  0.13057  0.25706  0.26028  1.0000
  H   H43       1.0  0.19864  0.24351  0.19652  1.0000
  H   H44       1.0  0.16835  0.24203  0.19430  1.0000
  H   H45       1.0  0.17947  0.19311  0.27282  1.0000
  H   H46       1.0  0.19835  0.20825  0.29508  1.0000
  H   H47       1.0  0.21138  0.24625  0.29389  1.0000
  H   H48       1.0  0.20009  0.27447  0.28471  1.0000
  H   H49       1.0  0.17968  0.27672  0.33159  1.0000
  H   H50       1.0  0.19040  0.24809  0.34079  1.0000
  H   H51       1.0  0.20966  0.27074  0.33621  1.0000
  H   H52       1.0  0.09704  0.24472  0.23467  1.0000
  H   H53       1.0  0.11340  0.22110  0.21906  1.0000
  H   H54       1.0  0.10828  0.22197  0.25758  1.0000
  H   H55       1.0  0.18477  0.26964  0.15911  1.0000
  H   H56       1.0  0.16352  0.28243  0.18268  1.0000
  H   H57       1.0  0.19320  0.28671  0.18887  1.0000
  H   H58       1.0  0.21239  0.17624  0.24530  1.0000
  H   H59       1.0  0.23153  0.19188  0.26706  1.0000
  H   H60       1.0  0.21483  0.17035  0.28335  1.0000
  N   N3        1.0  0.03760  0.26272  0.45263  1.0000
  H   H61       1.0  0.25680  0.06867  0.45299  1.0000
  H   H62       1.0  0.32128  0.32405  0.08609  1.0000
  C   C43       1.0  0.03632  0.28398  0.43388  1.0000
  C   C44       1.0  0.05414  0.24569  0.43861  1.0000
  C   C45       1.0  0.05752  0.22222  0.45388  1.0000
  C   C46       1.0  0.05796  0.29791  0.43235  1.0000
  H   H63       1.0  0.27028  0.19768  0.12872  1.0000
  N   N4        1.0  0.29261  0.34959  0.04384  1.0000
  C   C47       1.0  0.07211  0.20557  0.43559  1.0000
  H   H64       1.0  0.15125  0.43986  0.25263  1.0000
  H   H65       1.0  0.29310  0.39811  0.03296  1.0000
  C   C48       1.0  0.30615  0.35669  0.06944  1.0000
  H   H66       1.0  0.04952  0.24300  0.41573  1.0000
  H   H67       1.0  0.07132  0.25253  0.43735  1.0000
  H   H68       1.0  0.21150  0.43973  0.03706  1.0000
  H   H69       1.0  0.17258  0.17122  0.40727  1.0000
  H   H70       1.0  0.07234  0.28765  0.42280  1.0000
  H   H71       1.0  0.06298  0.30365  0.45395  1.0000
  H   H72       1.0  0.24288  0.30301  0.05831  1.0000
  H   H73       1.0  0.18123  0.44555  0.03871  1.0000
  H   H74       1.0  0.29272  0.20553  0.10444  1.0000
  H   H75       1.0  0.24777  0.15943  0.41521  1.0000
  C   C49       1.0  0.16357  0.17418  0.42821  1.0000
  H   H76       1.0  0.07460  0.18903  0.44725  1.0000
  H   H77       1.0  0.03264  0.27965  0.41119  1.0000
  H   H78       1.0  0.02205  0.29574  0.44113  1.0000
  H   H79       1.0  0.21216  0.18365  0.40853  1.0000
  N   N5        1.0  0.15945  0.40878  0.22955  1.0000
  C   C50       1.0  0.14891  0.43274  0.23074  1.0000
  C   C51       1.0  0.14891  0.39371  0.25218  1.0000
  C   C52       1.0  0.18441  0.41020  0.23640  1.0000
  C   C53       1.0  0.15773  0.39866  0.19991  1.0000
  C   C54       1.0  0.13344  0.39697  0.18794  1.0000
  H   H80       1.0  0.04118  0.21425  0.45806  1.0000
  C   C55       1.0  0.19761  0.38733  0.24379  1.0000
  C   C56       1.0  0.12308  0.39745  0.25840  1.0000
  C   C57       1.0  0.11425  0.37767  0.27628  1.0000
  C   C58       1.0  0.13370  0.39232  0.15564  1.0000
  H   H81       1.0  0.06657  0.22421  0.47451  1.0000
  C   C59       1.0  0.22286  0.39085  0.24813  1.0000
  H   H82       1.0  0.18563  0.48824  0.07981  1.0000
  H   H83       1.0  0.13027  0.43308  0.22790  1.0000
  H   H84       1.0  0.15248  0.37540  0.24680  1.0000
  H   H85       1.0  0.15690  0.39617  0.27355  1.0000
  H   H86       1.0  0.18665  0.42164  0.25507  1.0000
  H   H87       1.0  0.19363  0.41793  0.21793  1.0000
  H   H88       1.0  0.16800  0.40815  0.18396  1.0000
  H   H89       1.0  0.16553  0.38104  0.19963  1.0000
  H   H90       1.0  0.12287  0.41287  0.19104  1.0000
  H   H91       1.0  0.12516  0.38254  0.19870  1.0000
  C   C60       1.0  0.31386  0.31662  0.15416  1.0000
  C   C61       1.0  0.26237  0.05052  0.45031  1.0000
  H   H92       1.0  0.19597  0.37493  0.22635  1.0000
  H   H93       1.0  0.19120  0.37953  0.26399  1.0000
  H   H94       1.0  0.11991  0.41333  0.27094  1.0000
  H   H95       1.0  0.11283  0.39912  0.23863  1.0000
  H   H96       1.0  0.09595  0.38102  0.28137  1.0000
  H   H97       1.0  0.11618  0.36149  0.26407  1.0000
  H   H98       1.0  0.12366  0.37555  0.29687  1.0000
  H   H99       1.0  0.14254  0.37561  0.15120  1.0000
  H   H100      1.0  0.11602  0.39173  0.14776  1.0000
  H   H101      1.0  0.14223  0.40599  0.14358  1.0000
  C   C62       1.0  0.25436  0.29714  0.04043  1.0000
  C   C63       1.0  0.26088  0.11676  0.48638  1.0000
  H   H102      1.0  0.22530  0.40215  0.26676  1.0000
  H   H103      1.0  0.23388  0.28743  0.17475  1.0000
  C   C64       1.0  0.30719  0.34551  0.01736  1.0000
  H   H104      1.0  0.23197  0.37416  0.25246  1.0000
  N   N6        1.0  0.28779  0.24018  0.19651  1.0000
  H   H105      1.0  0.25956  0.00466  0.39485  1.0000
  H   H106      1.0  0.06997  0.32855  0.41206  1.0000
  H   H107      1.0  0.27130  0.32988  0.07155  1.0000
  C   C65       1.0  0.25758  0.40798  0.03338  1.0000
  C   C66       1.0  0.28037  0.23296  0.22638  1.0000
  H   H108      1.0  0.04932  0.31446  0.39122  1.0000
  H   H109      1.0  0.21573  0.99119  0.34018  1.0000
  C   C67       1.0  0.05408  0.31921  0.41342  1.0000
  H   H110      1.0  0.25727  0.25083  0.17287  1.0000
  H   H111      1.0  0.29477  0.35852  0.08878  1.0000
  H   H112      1.0  0.20712  0.15479  0.41906  1.0000
  H   H113      1.0  0.19814  0.44702  0.07100  1.0000
  H   H114      1.0  0.16138  0.22351  0.43341  1.0000
  H   H115      1.0  0.21353  0.21990  0.42748  1.0000
  H   H116      1.0  0.26628  0.28329  0.04847  1.0000
  C   C68       1.0  0.28730  0.21001  0.27242  1.0000
  H   H117      1.0  0.26945  0.20489  0.27284  1.0000
  H   H118      1.0  0.24188  0.40406  0.04544  1.0000
  C   C69       1.0  0.19401  0.25138  0.42166  1.0000
  C   C70       1.0  0.19776  0.45049  0.04737  1.0000
  H   H119      1.0  0.24713  0.26586  0.21978  1.0000
  H   H120      1.0  0.16337  0.15717  0.43912  1.0000
  C   C71       1.0  0.27211  0.99963  0.33475  1.0000
  H   H121      1.0  0.06371  0.20249  0.41475  1.0000
  H   H122      1.0  0.23540  0.30465  0.20655  1.0000
  C   C72       1.0  0.17726  0.21291  0.42983  1.0000
  C   C73       1.0  0.31445  0.28455  0.12147  1.0000
  H   H123      1.0  0.27030  0.21179  0.17950  1.0000
  C   C74       1.0  0.24559  0.29436  0.19067  1.0000
  H   H124      1.0  0.27917  0.39516  0.06721  1.0000
  H   H125      1.0  0.04017  0.28707  0.48728  1.0000
  H   H126      1.0  0.15443  0.44442  0.18592  1.0000
  H   H127      1.0  0.25236  0.04379  0.43245  1.0000
  H   H128      1.0  0.24333  0.12284  0.48866  1.0000
  C   C75       1.0  0.28209  0.32744  0.05187  1.0000
  H   H129      1.0  0.25714  0.30584  0.17933  1.0000
  H   H130      1.0  0.32246  0.32670  0.16964  1.0000
  H   H131      1.0  0.16064  0.17696  0.48476  1.0000
  H   H132      1.0  0.25914  0.11412  0.43994  1.0000
  H   H133      1.0  0.28006  0.26906  0.16786  1.0000
  H   H134      1.0  0.16979  0.22791  0.48942  1.0000
  H   H135      1.0  0.19219  0.24963  0.39797  1.0000
  C   C76       1.0  0.29536  0.21393  0.24138  1.0000
  H   H136      1.0  0.24047  0.15508  0.45261  1.0000
  C   C77       1.0  0.29181  0.22376  0.14484  1.0000
  C   C78       1.0  0.28712  0.21954  0.17744  1.0000
  H   H137      1.0  0.12812  0.47333  0.20904  1.0000
  H   H138      1.0  0.28064  0.04931  0.44413  1.0000
  C   C79       1.0  0.25929  0.27519  0.20618  1.0000
  C   C80       1.0  0.21162  0.36461  0.01237  1.0000
  C   C81       1.0  0.31676  0.26777  0.21629  1.0000
  H   H139      1.0  0.29939  0.18782  0.13550  1.0000
  H   H140      1.0  0.28372  0.28126  0.09753  1.0000
  C   C82       1.0  0.14677  0.47365  0.21203  1.0000
  H   H141      1.0  0.20885  0.26171  0.42583  1.0000
  H   H142      1.0  0.27947  0.24755  0.24132  1.0000
  H   H143      1.0  0.23980  0.03944  0.48339  1.0000
  H   H144      1.0  0.11148  0.17134  0.39282  1.0000
  C   C83       1.0  0.01393  0.25404  0.45457  1.0000
  H   H145      1.0  0.10068  0.31661  0.49212  1.0000
  H   H146      1.0  0.31649  0.25390  0.17401  1.0000
  S   S24       1.0  0.30669  0.10843  0.27209  1.0000
  C   C84       1.0  0.28828  0.20233  0.12742  1.0000
  H   H147      1.0  0.12203  0.23410  0.49080  1.0000
  C   C85       1.0  0.19747  0.22794  0.43612  1.0000
  H   H148      1.0  0.25822  0.36345  0.05126  1.0000
  H   H149      1.0  0.01348  0.23844  0.46816  1.0000
  H   H150      1.0  0.16609  0.48429  0.05187  1.0000
  C   C86       1.0  0.29217  0.29105  0.11343  1.0000
  H   H151      1.0  0.31387  0.16567  0.34085  1.0000
  H   H152      1.0  0.28061  0.23770  0.13566  1.0000
  H   H153      1.0  0.28867  0.22569  0.28531  1.0000
  C   C87       1.0  0.04577  0.26913  0.48223  1.0000
  H   H154      1.0  0.06470  0.26872  0.48259  1.0000
  H   H155      1.0  0.17783  0.20995  0.40616  1.0000
  C   C88       1.0  0.27335  0.36705  0.03773  1.0000
  H   H156      1.0  0.29799  0.19616  0.28272  1.0000
  H   H157      1.0  0.31861  0.32998  0.02044  1.0000
  H   H158      1.0  0.14553  0.20132  0.46996  1.0000
  H   H159      1.0  0.20154  0.47822  0.01741  1.0000
  H   H160      1.0  0.12850  0.14788  0.40817  1.0000
  H   H161      1.0  0.19973  0.23060  0.45944  1.0000
  H   H162      1.0  0.26114  0.42605  0.03731  1.0000
  H   H163      1.0  0.08907  0.21233  0.43125  1.0000
  H   H164      1.0  0.30962  0.22832  0.14148  1.0000
  C   C89       1.0  0.31917  0.13168  0.25357  1.0000
  C   C90       1.0  0.24032  0.48907  0.13803  1.0000
  H   H165      1.0  0.24617  0.18332  0.43931  1.0000
  H   H166      1.0  0.29448  0.19751  0.22997  1.0000
  H   H167      1.0  0.24378  0.29022  0.02323  1.0000
  H   H168      1.0  0.31704  0.15498  0.28891  1.0000
  C   C91       1.0  0.20138  0.47566  0.04104  1.0000
  H   H169      1.0  0.19749  0.16467  0.46769  1.0000
  C   C92       1.0  0.16290  0.19387  0.47420  1.0000
  C   C93       1.0  0.20544  0.38791  0.01162  1.0000
  C   C94       1.0  0.21341  0.17119  0.42661  1.0000
  C   C95       1.0  0.31179  0.24796  0.19602  1.0000
  C   C96       1.0  0.17269  0.20991  0.49671  1.0000
  H   H170      1.0  0.17535  0.48409  0.14474  1.0000
  C   C97       1.0  0.11752  0.25212  0.49105  1.0000
  C   C98       1.0  0.26740  0.31697  0.02831  1.0000
  C   C99       1.0  0.13869  0.18164  0.42024  1.0000
  H   H171      1.0  0.27835  0.31022  0.01050  1.0000
  C   C100      1.0  0.19921  0.17969  0.45304  1.0000
  H   H172      1.0  0.15032  0.48026  0.23379  1.0000
  H   H173      1.0  0.17661  0.45149  0.21019  1.0000
  H   H174      1.0  0.21853  0.47917  0.04898  1.0000
  H   H175      1.0  0.29528  0.31396  0.05737  1.0000
  H   H176      1.0  0.30809  0.28380  0.20829  1.0000
  C   C101      1.0  0.27752  0.39246  0.04366  1.0000
  C   C102      1.0  0.32164  0.36534  0.00718  1.0000
  H   H177      1.0  0.31335  0.21852  0.24225  1.0000
  H   H178      1.0  0.31297  0.37373  0.06587  1.0000
  H   H179      1.0  0.31877  0.24212  0.03210  1.0000
  H   H180      1.0  0.31128  0.26439  0.23876  1.0000
  H   H181      1.0  0.15368  0.48549  0.19569  1.0000
  H   H182      1.0  0.00244  0.26688  0.46562  1.0000
  H   H183      1.0  0.24353  0.00343  0.42783  1.0000
  C   C103      1.0  0.25863  0.99602  0.41616  1.0000
  C   C104      1.0  0.19352  0.48538  0.14264  1.0000
  C   C105      1.0  0.00266  0.24847  0.42551  1.0000
  H   H184      1.0  0.25467  0.40567  0.01000  1.0000
  H   H185      1.0  0.99983  0.26408  0.41210  1.0000
  H   H186      1.0  0.25852  0.49039  0.13646  1.0000
  H   H187      1.0  0.31043  0.37944  0.99839  1.0000
  H   H188      1.0  0.29641  0.34171  0.99864  1.0000
  Fe  Fe13      1.0  0.27730  0.07422  0.63753  1.0000
  S   S25       1.0  0.30192  0.09708  0.61490  1.0000
  S   S26       1.0  0.28981  0.03640  0.63696  1.0000
  Fe  Fe14      1.0  0.24340  0.11496  0.64821  1.0000
  S   S27       1.0  0.26564  0.13910  0.62559  1.0000
  S   S28       1.0  0.21126  0.13089  0.66885  1.0000
  Fe  Fe15      1.0  0.27107  0.11212  0.59195  1.0000
  S   S29       1.0  0.26219  0.12144  0.54513  1.0000
  Fe  Fe16      1.0  0.29417  0.12205  0.65110  1.0000
  H   H189      1.0  0.30791  0.10453  0.52653  1.0000
  S   S30       1.0  0.24684  0.08867  0.61332  1.0000
  S   S31       1.0  0.27168  0.09840  0.67508  1.0000
  Fe  Fe17      1.0  0.23430  0.40384  0.82638  1.0000
  S   S32       1.0  0.19847  0.40354  0.84238  1.0000
  S   S33       1.0  0.24802  0.43599  0.80596  1.0000
  Fe  Fe18      1.0  0.24511  0.35456  0.84720  1.0000
  S   S34       1.0  0.20970  0.35197  0.86531  1.0000
  S   S35       1.0  0.26478  0.32066  0.85461  1.0000
  Fe  Fe19      1.0  0.19822  0.36822  0.82332  1.0000
  S   S36       1.0  0.16777  0.35522  0.79884  1.0000
  Fe  Fe20      1.0  0.21364  0.38711  0.88240  1.0000
  S   S37       1.0  0.20460  0.40327  0.92575  1.0000
  S   S38       1.0  0.23333  0.36951  0.80466  1.0000
  S   S39       1.0  0.24973  0.38879  0.86713  1.0000
  Fe  Fe21      1.0  0.12930  0.23797  0.62044  1.0000
  S   S40       1.0  0.14286  0.27226  0.61122  1.0000
  S   S41       1.0  0.14969  0.20691  0.60332  1.0000
  Fe  Fe22      1.0  0.08393  0.25925  0.64329  1.0000
  S   S42       1.0  0.09503  0.29520  0.63645  1.0000
  S   S43       1.0  0.04989  0.24686  0.66034  1.0000
  Fe  Fe23      1.0  0.10839  0.28191  0.59363  1.0000
  S   S44       1.0  0.10221  0.30071  0.55104  1.0000
  Fe  Fe24      1.0  0.12896  0.28257  0.65508  1.0000
  S   S45       1.0  0.15636  0.29993  0.68144  1.0000
  S   S46       1.0  0.09565  0.24700  0.59968  1.0000
  S   S47       1.0  0.11698  0.24729  0.66494  1.0000
  C   C106      1.0  0.02164  0.25602  0.65016  1.0000
  H   H190      1.0  0.31360  0.20276  0.90517  1.0000
  C   C107      1.0  0.01717  0.27399  0.63060  1.0000
  H   H191      1.0  0.00628  0.23088  0.67722  1.0000
  H   H192      1.0  0.03115  0.28290  0.62133  1.0000
  C   C108      1.0  0.16515  0.33956  0.76630  1.0000
  C   C109      1.0  0.14371  0.33209  0.75869  1.0000
  C   C110      1.0  0.14063  0.31997  0.73296  1.0000
  C   C111      1.0  0.15897  0.31530  0.71423  1.0000
  C   C112      1.0  0.18044  0.32287  0.72179  1.0000
  C   C113      1.0  0.18355  0.33482  0.74765  1.0000
  H   H193      1.0  0.12931  0.33566  0.77284  1.0000
  H   H194      1.0  0.12402  0.31432  0.72759  1.0000
  H   H195      1.0  0.19476  0.31945  0.70748  1.0000
  H   H196      1.0  0.20007  0.34058  0.75299  1.0000
  C   C114      1.0  0.19445  0.15220  0.65049  1.0000
  C   C115      1.0  0.19635  0.15545  0.62067  1.0000
  C   C116      1.0  0.18257  0.17236  0.60665  1.0000
  C   C117      1.0  0.16703  0.18644  0.62231  1.0000
  C   C118      1.0  0.16529  0.18339  0.65219  1.0000
  C   C119      1.0  0.17880  0.16619  0.66615  1.0000
  H   H197      1.0  0.20828  0.14475  0.60835  1.0000
  H   H198      1.0  0.18401  0.17455  0.58353  1.0000
  H   H199      1.0  0.15348  0.19417  0.66449  1.0000
  H   H200      1.0  0.17724  0.16376  0.68924  1.0000
  H   H201      1.0  0.24592  0.23869  0.77989  1.0000
  H   H202      1.0  0.32060  0.13019  0.77688  1.0000
  C   C120      1.0  0.30703  0.32314  0.82756  1.0000
  C   C121      1.0  0.29156  0.30979  0.84214  1.0000
  C   C122      1.0  0.29728  0.28664  0.84723  1.0000
  H   H203      1.0  0.28574  0.03214  0.57377  1.0000
  H   H204      1.0  0.30280  0.34101  0.82346  1.0000
  H   H205      1.0  0.28515  0.27612  0.85785  1.0000
  H   H206      1.0  0.26837  0.17147  0.67360  1.0000
  C   C123      1.0  0.22829  0.05900  0.53399  1.0000
  H   H207      1.0  0.27786  0.26755  0.66625  1.0000
  C   C124      1.0  0.20788  0.38814  0.95886  1.0000
  C   C125      1.0  0.21431  0.36491  0.95966  1.0000
  H   H208      1.0  0.22052  0.33512  0.98662  1.0000
  H   H209      1.0  0.21738  0.35586  0.93972  1.0000
  C   C126      1.0  0.27750  0.45414  0.87026  1.0000
  C   C127      1.0  0.10763  0.28643  0.51810  1.0000
  H   H210      1.0  0.23216  0.27626  0.73416  1.0000
  H   H211      1.0  0.16110  0.46479  0.87168  1.0000
  C   C128      1.0  0.25185  0.05454  0.54792  1.0000
  H   H212      1.0  0.21010  0.06723  0.57404  1.0000
  H   H213      1.0  0.26575  0.48063  0.79869  1.0000
  C   C129      1.0  0.27448  0.25814  0.68664  1.0000
  H   H214      1.0  0.30055  0.25059  0.98425  1.0000
  H   H215      1.0  0.19632  0.07802  0.54176  1.0000
  C   C130      1.0  0.21218  0.46732  0.81721  1.0000
  C   C131      1.0  0.23510  0.46388  0.80976  1.0000
  H   H216      1.0  0.13679  0.42353  0.83187  1.0000
  H   H217      1.0  0.20199  0.45283  0.82108  1.0000
  C   C132      1.0  0.00311  0.24477  0.66204  1.0000
  H   H218      1.0  0.28656  0.25708  0.93449  1.0000
  C   C133      1.0  0.27669  0.00968  0.63742  1.0000
  C   C134      1.0  0.25400  0.00746  0.64559  1.0000
  H   H219      1.0  0.19846  0.41756  0.98451  1.0000
  H   H220      1.0  0.24367  0.02243  0.65162  1.0000
  N   N7        1.0  0.08610  0.17397  0.63471  1.0000
  C   C135      1.0  0.10266  0.18279  0.65599  1.0000
  C   C136      1.0  0.09822  0.17002  0.60621  1.0000
  C   C137      1.0  0.06771  0.19254  0.63004  1.0000
  C   C138      1.0  0.07516  0.15261  0.64520  1.0000
  C   C139      1.0  0.08957  0.13611  0.66509  1.0000
  C   C140      1.0  0.09202  0.19161  0.68479  1.0000
  C   C141      1.0  0.05046  0.18848  0.60577  1.0000
  C   C142      1.0  0.11808  0.15173  0.60586  1.0000
  C   C143      1.0  0.12986  0.15082  0.57634  1.0000
  C   C144      1.0  0.07833  0.11341  0.66920  1.0000
  C   C145      1.0  0.10985  0.19277  0.70837  1.0000
  C   C146      1.0  0.03048  0.20611  0.60664  1.0000
  H   H221      1.0  0.11175  0.19719  0.64616  1.0000
  H   H222      1.0  0.11634  0.16977  0.66112  1.0000
  H   H223      1.0  0.08630  0.16434  0.58970  1.0000
  H   H224      1.0  0.10476  0.18638  0.59792  1.0000
  H   H225      1.0  0.07538  0.20908  0.62525  1.0000
  H   H226      1.0  0.05756  0.19542  0.65017  1.0000
  H   H227      1.0  0.05930  0.15699  0.65766  1.0000
  H   H228      1.0  0.06947  0.14274  0.62646  1.0000
  H   H229      1.0  0.09126  0.14360  0.68676  1.0000
  H   H230      1.0  0.10695  0.13243  0.65665  1.0000
  H   H231      1.0  0.08425  0.20908  0.68150  1.0000
  H   H232      1.0  0.07843  0.18069  0.69268  1.0000
  H   H233      1.0  0.04363  0.17128  0.60780  1.0000
  H   H234      1.0  0.05866  0.19023  0.58426  1.0000
  H   H235      1.0  0.13113  0.15514  0.62204  1.0000
  H   H236      1.0  0.11156  0.13461  0.60992  1.0000
  H   H237      1.0  0.14441  0.13803  0.57697  1.0000
  H   H238      1.0  0.08863  0.10225  0.68413  1.0000
  N   N8        1.0  0.26775  0.03724  0.53336  1.0000
  H   H239      1.0  0.14081  0.36709  0.70860  1.0000
  H   H240      1.0  0.12354  0.20399  0.70151  1.0000
  H   H241      1.0  0.10176  0.19989  0.72826  1.0000
  H   H242      1.0  0.11739  0.17549  0.71345  1.0000
  H   H243      1.0  0.03659  0.22359  0.60377  1.0000
  H   H244      1.0  0.02117  0.20508  0.62751  1.0000
  H   H245      1.0  0.29050  0.26290  0.78993  1.0000
  H   H246      1.0  0.27383  0.21886  0.65909  1.0000
  H   H247      1.0  0.21496  0.29332  0.75738  1.0000
  H   H248      1.0  0.01849  0.20294  0.58899  1.0000
  H   H249      1.0  0.27361  0.24918  0.81693  1.0000
  H   H250      1.0  0.24381  0.31521  0.73764  1.0000
  H   H251      1.0  0.27592  0.29650  0.91175  1.0000
  H   H252      1.0  0.26054  0.35137  0.74907  1.0000
  H   H253      1.0  0.26796  0.33487  0.95608  1.0000
  H   H254      1.0  0.25261  0.33129  0.92318  1.0000
  C   C147      1.0  0.23489  0.27697  0.80889  1.0000
  C   C148      1.0  0.21633  0.29586  0.81566  1.0000
  C   C149      1.0  0.20681  0.29285  0.84616  1.0000
  H   H255      1.0  0.30462  0.30878  0.96451  1.0000
  H   H256      1.0  0.22812  0.26038  0.81567  1.0000
  H   H257      1.0  0.24898  0.27947  0.82414  1.0000
  H   H258      1.0  0.20169  0.29555  0.80089  1.0000
  H   H259      1.0  0.22358  0.31287  0.81458  1.0000
  H   H260      1.0  0.20294  0.25403  0.78150  1.0000
  H   H261      1.0  0.19314  0.30617  0.85021  1.0000
  H   H262      1.0  0.19937  0.27595  0.84878  1.0000
  H   H263      1.0  0.22034  0.29455  0.86240  1.0000
  H   H264      1.0  0.24048  0.01402  0.57533  1.0000
  H   H265      1.0  0.29677  0.22604  0.76432  1.0000
  N   N9        1.0  0.17862  0.41938  0.74364  1.0000
  C   C150      1.0  0.16152  0.40397  0.73120  1.0000
  C   C151      1.0  0.19864  0.40577  0.75634  1.0000
  C   C152      1.0  0.21678  0.39505  0.73499  1.0000
  C   C153      1.0  0.16864  0.39006  0.70417  1.0000
  C   C154      1.0  0.14844  0.37814  0.69192  1.0000
  C   C155      1.0  0.24016  0.40492  0.73765  1.0000
  H   H266      1.0  0.29516  0.07143  0.55912  1.0000
  C   C156      1.0  0.05018  0.26062  0.53594  1.0000
  H   H267      1.0  0.18994  0.26937  0.71996  1.0000
  H   H268      1.0  0.20752  0.41602  0.77240  1.0000
  H   H269      1.0  0.19242  0.39138  0.76949  1.0000
  C   C157      1.0  0.18578  0.43643  0.72116  1.0000
  H   H270      1.0  0.21894  0.37648  0.73981  1.0000
  H   H271      1.0  0.17540  0.40092  0.68675  1.0000
  H   H272      1.0  0.18146  0.37636  0.71004  1.0000
  C   C158      1.0  0.25816  0.01387  0.53305  1.0000
  H   H273      1.0  0.13527  0.39083  0.68399  1.0000
  H   H274      1.0  0.15419  0.36719  0.67362  1.0000
  H   H275      1.0  0.25240  0.39579  0.72297  1.0000
  H   H276      1.0  0.23955  0.42324  0.73162  1.0000
  H   H277      1.0  0.24222  0.01395  0.52058  1.0000
  N   N10       1.0  0.23885  0.20978  0.65580  1.0000
  C   C159      1.0  0.23815  0.19449  0.68222  1.0000
  C   C160      1.0  0.21561  0.22098  0.65002  1.0000
  C   C161      1.0  0.24533  0.19479  0.63044  1.0000
  C   C162      1.0  0.20036  0.22746  0.67643  1.0000
  C   C163      1.0  0.17969  0.24244  0.66726  1.0000
  H   H278      1.0  0.22557  0.18123  0.67901  1.0000
  H   H279      1.0  0.23199  0.20396  0.70150  1.0000
  H   H280      1.0  0.21714  0.23648  0.63619  1.0000
  H   H281      1.0  0.20522  0.20939  0.63740  1.0000
  H   H282      1.0  0.23479  0.17959  0.63059  1.0000
  H   H283      1.0  0.22554  0.21270  0.59566  1.0000
  H   H284      1.0  0.19406  0.21178  0.68673  1.0000
  H   H285      1.0  0.20947  0.23668  0.69297  1.0000
  H   H286      1.0  0.18502  0.25916  0.65888  1.0000
  H   H287      1.0  0.17011  0.23406  0.65024  1.0000
  H   H288      1.0  0.16812  0.24554  0.68597  1.0000
  H   H289      1.0  0.18151  0.45599  0.93180  1.0000
  H   H290      1.0  0.28657  0.21724  0.91301  1.0000
  C   C164      1.0  0.16317  0.45511  0.89229  1.0000
  H   H291      1.0  0.15422  0.44581  0.75829  1.0000
  C   C165      1.0  0.26799  0.33525  0.75853  1.0000
  H   H292      1.0  0.07722  0.10456  0.64826  1.0000
  C   C166      1.0  0.16671  0.43286  0.76753  1.0000
  C   C167      1.0  0.15356  0.41906  0.79034  1.0000
  C   C168      1.0  0.29711  0.10619  0.50782  1.0000
  H   H293      1.0  0.16713  0.22024  0.54115  1.0000
  C   C169      1.0  0.16092  0.20746  0.52604  1.0000
  H   H294      1.0  0.18828  0.46882  0.74398  1.0000
  H   H295      1.0  0.30984  0.12239  0.72635  1.0000
  H   H296      1.0  0.24662  0.40279  0.75994  1.0000
  H   H297      1.0  0.19564  0.42823  0.70342  1.0000
  H   H298      1.0  0.16848  0.43708  0.88763  1.0000
  H   H299      1.0  0.25949  0.07142  0.54823  1.0000
  C   C170      1.0  0.21608  0.35321  0.98628  1.0000
  H   H300      1.0  0.24755  0.19669  0.55490  1.0000
  C   C171      1.0  0.27347  0.04497  0.50296  1.0000
  C   C172      1.0  0.30437  0.05636  0.54965  1.0000
  C   C173      1.0  0.29690  0.29569  0.95104  1.0000
  C   C174      1.0  0.29095  0.22656  0.78717  1.0000
  C   C175      1.0  0.21301  0.07493  0.55240  1.0000
  H   H301      1.0  0.28264  0.32925  0.74489  1.0000
  H   H302      1.0  0.14561  0.41420  0.72585  1.0000
  H   H303      1.0  0.20901  0.44715  0.89193  1.0000
  C   C176      1.0  0.25280  0.00303  0.56289  1.0000
  H   H304      1.0  0.25815  0.44177  0.90562  1.0000
  H   H305      1.0  0.22079  0.09162  0.55492  1.0000
  C   C177      1.0  0.30365  0.25978  0.92497  1.0000
  H   H306      1.0  0.21937  0.04303  0.53134  1.0000
  H   H307      1.0  0.28454  0.28711  0.96522  1.0000
  H   H308      1.0  0.13802  0.41243  0.78084  1.0000
  H   H309      1.0  0.24943  0.04996  0.57104  1.0000
  C   C178      1.0  0.11387  0.26316  0.51755  1.0000
  H   H310      1.0  0.28966  0.24698  0.69216  1.0000
  C   C179      1.0  0.28948  0.03529  0.55053  1.0000
  H   H311      1.0  0.21279  0.44985  0.74828  1.0000
  H   H312      1.0  0.11789  0.14588  0.55944  1.0000
  C   C180      1.0  0.24312  0.20593  0.59993  1.0000
  H   H313      1.0  0.16088  0.44078  0.82658  1.0000
  H   H314      1.0  0.25060  0.31055  0.95184  1.0000
  H   H315      1.0  0.25667  0.23819  0.63840  1.0000
  C   C181      1.0  0.26224  0.32210  0.94063  1.0000
  C   C182      1.0  0.24920  0.18848  0.57652  1.0000
  H   H316      1.0  0.27324  0.28868  0.75604  1.0000
  H   H317      1.0  0.17432  0.48354  0.91576  1.0000
  H   H318      1.0  0.30036  0.26487  0.90220  1.0000
  H   H319      1.0  0.16419  0.40446  0.79869  1.0000
  C   C183      1.0  0.14597  0.43392  0.81584  1.0000
  H   H320      1.0  0.21553  0.24161  0.74948  1.0000
  H   H321      1.0  0.30616  0.22432  0.80112  1.0000
  C   C184      1.0  0.26098  0.18215  0.69115  1.0000
  C   C185      1.0  0.25759  0.16633  0.71706  1.0000
  H   H322      1.0  0.23885  0.25610  0.67969  1.0000
  H   H323      1.0  0.25476  0.22006  0.59734  1.0000
  H   H324      1.0  0.30360  0.22628  0.88263  1.0000
  C   C186      1.0  0.25650  0.22732  0.65818  1.0000
  H   H325      1.0  0.26329  0.18822  0.63209  1.0000
  H   H326      1.0  0.25085  0.17607  0.73592  1.0000
  H   H327      1.0  0.26230  0.25085  0.75183  1.0000
  C   C187      1.0  0.18605  0.26392  0.74240  1.0000
  H   H328      1.0  0.25114  0.23489  0.70440  1.0000
  H   H329      1.0  0.13441  0.44833  0.80853  1.0000
  H   H330      1.0  0.27355  0.19462  0.69730  1.0000
  H   H331      1.0  0.23758  0.17416  0.57762  1.0000
  H   H332      1.0  0.30956  0.06072  0.52732  1.0000
  C   C188      1.0  0.25360  0.24399  0.68366  1.0000
  H   H333      1.0  0.13653  0.16760  0.57049  1.0000
  H   H334      1.0  0.21208  0.39624  0.71208  1.0000
  H   H335      1.0  0.24572  0.15295  0.71163  1.0000
  C   C189      1.0  0.27443  0.11401  0.51110  1.0000
  H   H336      1.0  0.26697  0.18151  0.57897  1.0000
  C   C190      1.0  0.28254  0.30855  0.92747  1.0000
  H   H337      1.0  0.27988  0.21214  0.79152  1.0000
  C   C191      1.0  0.18067  0.46586  0.91125  1.0000
  C   C192      1.0  0.30415  0.21962  0.90516  1.0000
  C   C193      1.0  0.31442  0.26105  0.99181  1.0000
  H   H338      1.0  0.17913  0.44269  0.77957  1.0000
  H   H339      1.0  0.22404  0.45709  0.69700  1.0000
  H   H340      1.0  0.27411  0.15775  0.72306  1.0000
  C   C194      1.0  0.21153  0.46873  0.70826  1.0000
  H   H341      1.0  0.17049  0.44449  0.71041  1.0000
  H   H342      1.0  0.27027  0.00177  0.52167  1.0000
  H   H343      1.0  0.16477  0.19022  0.53541  1.0000
  H   H344      1.0  0.29285  0.32096  0.91560  1.0000
  H   H345      1.0  0.15670  0.39096  0.74751  1.0000
  C   C195      1.0  0.27835  0.24935  0.79372  1.0000
  H   H346      1.0  0.27158  0.27078  0.70407  1.0000
  H   H347      1.0  0.17517  0.24907  0.74172  1.0000
  H   H348      1.0  0.11582  0.25365  0.53757  1.0000
  H   H349      1.0  0.04891  0.27923  0.54017  1.0000
  H   H350      1.0  0.14649  0.45537  0.90364  1.0000
  H   H351      1.0  0.17632  0.27808  0.75338  1.0000
  H   H352      1.0  0.27413  0.33884  0.78051  1.0000
  C   C196      1.0  0.24805  0.48305  0.80480  1.0000
  C   C197      1.0  0.22490  0.27678  0.75643  1.0000
  C   C198      1.0  0.26007  0.29441  0.77217  1.0000
  C   C199      1.0  0.20361  0.39963  0.98495  1.0000
  H   H353      1.0  0.26972  0.29816  0.79191  1.0000
  C   C200      1.0  0.20784  0.25757  0.75883  1.0000
  H   H354      1.0  0.06102  0.11617  0.67860  1.0000
  N   N11       1.0  0.24379  0.27574  0.77823  1.0000
  H   H355      1.0  0.14224  0.21031  0.52422  1.0000
  H   H356      1.0  0.23568  0.32428  0.77322  1.0000
  C   C201      1.0  0.25001  0.31742  0.75994  1.0000
  C   C202      1.0  0.25687  0.25310  0.77472  1.0000
  H   H357      1.0  0.04287  0.25159  0.55476  1.0000
  H   H358      1.0  0.26669  0.45955  0.99563  1.0000
  C   C203      1.0  0.31616  0.23588  0.92469  1.0000
  C   C204      1.0  0.19972  0.45613  0.73268  1.0000
  H   H359      1.0  0.22893  0.44452  0.93547  1.0000
  N   N12       1.0  0.31505  0.27862  0.94034  1.0000
  H   H360      1.0  0.30036  0.02035  0.54317  1.0000
  H   H361      1.0  0.29220  0.00021  0.72703  1.0000
  C   C205      1.0  0.20234  0.48962  0.81960  1.0000
  S   S48       1.0  0.31856  0.14671  0.67167  1.0000
  C   C206      1.0  0.20421  0.46540  0.89606  1.0000
  C   C207      1.0  0.22730  0.46316  0.93963  1.0000
  H   H362      1.0  0.19890  0.47588  0.69254  1.0000
  C   C208      1.0  0.25215  0.45400  0.98289  1.0000
  C   C209      1.0  0.31843  0.27689  0.83843  1.0000
  H   H363      1.0  0.26846  0.00008  0.57570  1.0000
  H   H364      1.0  0.25616  0.43636  0.97535  1.0000
  H   H365      1.0  0.21245  0.46521  0.95449  1.0000
  H   H366      1.0  0.30735  0.99136  0.62331  1.0000
  H   H367      1.0  0.30634  0.99566  0.69264  1.0000
  H   H368      1.0  0.32076  0.29759  0.90067  1.0000
  C   C210      1.0  0.24818  0.46998  0.95705  1.0000
  C   C211      1.0  0.30831  0.99407  0.71641  1.0000
  C   C212      1.0  0.31898  0.13739  0.73110  1.0000
  H   H369      1.0  0.24351  0.44275  0.87179  1.0000
  C   C213      1.0  0.99454  0.28082  0.62352  1.0000
  H   H370      1.0  0.23025  0.06761  0.51274  1.0000
  H   H371      1.0  0.32210  0.04788  0.58978  1.0000
  H   H372      1.0  0.31660  0.22817  0.94666  1.0000
  H   H373      1.0  0.28426  0.43692  0.86388  1.0000
  C   C214      1.0  0.25477  0.45219  0.88593  1.0000
  H   H374      1.0  0.20197  0.47330  0.87441  1.0000
  H   H375      1.0  0.27392  0.06391  0.50193  1.0000
  H   H376      1.0  0.06838  0.25500  0.53393  1.0000
  H   H377      1.0  0.03965  0.23648  0.50512  1.0000
  H   H378      1.0  0.23948  0.48409  0.87146  1.0000
  H   H379      1.0  0.99140  0.29507  0.60891  1.0000
  H   H380      1.0  0.27542  0.46475  0.85042  1.0000
  H   H381      1.0  0.22076  0.48301  0.71732  1.0000
  N   N13       1.0  0.22287  0.47637  0.91200  1.0000
  H   H382      1.0  0.29000  0.46183  0.88449  1.0000
  H   H383      1.0  0.26394  0.46906  0.94383  1.0000
  C   C215      1.0  0.24368  0.47609  0.89276  1.0000
  H   H384      1.0  0.23687  0.45410  0.99707  1.0000
  H   H385      1.0  0.25682  0.48688  0.90177  1.0000
  H   H386      1.0  0.24548  0.48757  0.96533  1.0000
  H   H387      1.0  0.32246  0.25906  0.84247  1.0000
  H   H388      1.0  0.32199  0.00518  0.72299  1.0000
  H   H389      1.0  0.01911  0.25925  0.51257  1.0000
  C   C216      1.0  0.03745  0.25506  0.50853  1.0000
  H   H390      1.0  0.19105  0.20636  0.50038  1.0000
  Fe  Fe25      1.0  0.28053  0.84552  0.31674  1.0000
  S   S49       1.0  0.25694  0.87186  0.29554  1.0000
  C   C217      1.0  0.11630  0.73150  0.48019  1.0000
  Fe  Fe26      1.0  0.25776  0.85367  0.37685  1.0000
  S   S50       1.0  0.23334  0.88079  0.35922  1.0000
  S   S51       1.0  0.25075  0.84164  0.42282  1.0000
  Fe  Fe27      1.0  0.22943  0.85634  0.32273  1.0000
  S   S52       1.0  0.19330  0.84891  0.31031  1.0000
  Fe  Fe28      1.0  0.26288  0.89392  0.33419  1.0000
  S   S53       1.0  0.27665  0.92993  0.33198  1.0000
  S   S54       1.0  0.25261  0.82876  0.34138  1.0000
  S   S55       1.0  0.28782  0.86804  0.35438  1.0000
  Fe  Fe29      1.0  0.23796  0.61886  0.10892  1.0000
  S   S56       1.0  0.20174  0.62973  0.09956  1.0000
  S   S57       1.0  0.26030  0.64800  0.09614  1.0000
  Fe  Fe30      1.0  0.22353  0.57153  0.12966  1.0000
  S   S58       1.0  0.18635  0.58064  0.12284  1.0000
  S   S59       1.0  0.23887  0.53603  0.14206  1.0000
  Fe  Fe31      1.0  0.19842  0.59540  0.08048  1.0000
  S   S60       1.0  0.18097  0.58771  0.03824  1.0000
  Fe  Fe32      1.0  0.19330  0.61466  0.14299  1.0000
  S   S61       1.0  0.17359  0.64225  0.16948  1.0000
  S   S62       1.0  0.23516  0.58530  0.08660  1.0000
  S   S63       1.0  0.22985  0.60453  0.15280  1.0000
  Fe  Fe33      1.0  0.07445  0.72495  0.32985  1.0000
  S   S64       1.0  0.07842  0.68828  0.34295  1.0000
  S   S65       1.0  0.03939  0.74009  0.31663  1.0000
  Fe  Fe34      1.0  0.12495  0.73291  0.34117  1.0000
  S   S66       1.0  0.13123  0.69636  0.35596  1.0000
  S   S67       1.0  0.15858  0.75078  0.34211  1.0000
  Fe  Fe35      1.0  0.11114  0.68724  0.31715  1.0000
  S   S68       1.0  0.12083  0.65560  0.29012  1.0000
  Fe  Fe36      1.0  0.09819  0.70100  0.38022  1.0000
  S   S69       1.0  0.08952  0.68706  0.42490  1.0000
  S   S70       1.0  0.10605  0.72341  0.30127  1.0000
  S   S71       1.0  0.09301  0.73802  0.36827  1.0000
  C   C218      1.0  0.28020  0.97658  0.33314  1.0000
  C   C219      1.0  0.01273  0.72743  0.32121  1.0000
  C   C220      1.0  0.01088  0.70600  0.33424  1.0000
  H   H391      1.0  0.99399  0.75587  0.30144  1.0000
  H   H392      1.0  0.02587  0.69700  0.34270  1.0000
  C   C221      1.0  0.09866  0.70046  0.45638  1.0000
  C   C222      1.0  0.10910  0.72125  0.45486  1.0000
  C   C223      1.0  0.01403  0.68874  0.23926  1.0000
  H   H393      1.0  0.11172  0.72935  0.43410  1.0000
  C   C224      1.0  0.12580  0.79784  0.45935  1.0000
  C   C225      1.0  0.22628  0.50908  0.14083  1.0000
  H   H394      1.0  0.25108  0.89093  0.23657  1.0000
  C   C226      1.0  0.20280  0.50706  0.14317  1.0000
  C   C227      1.0  0.32036  0.73389  0.04362  1.0000
  H   H395      1.0  0.19189  0.52223  0.14607  1.0000
  C   C228      1.0  0.30749  0.68918  0.12655  1.0000
  H   H396      1.0  0.99142  0.72025  0.44891  1.0000
  H   H397      1.0  0.20433  0.74018  0.44868  1.0000
  H   H398      1.0  0.22192  0.61105  0.02279  1.0000
  H   H399      1.0  0.18303  0.83968  0.37398  1.0000
  C   C229      1.0  0.15968  0.64544  0.20362  1.0000
  C   C230      1.0  0.15546  0.62692  0.22177  1.0000
  C   C231      1.0  0.14370  0.63041  0.24817  1.0000
  C   C232      1.0  0.13636  0.65243  0.25708  1.0000
  C   C233      1.0  0.14077  0.67099  0.23905  1.0000
  C   C234      1.0  0.15224  0.66748  0.21247  1.0000
  H   H400      1.0  0.16097  0.60988  0.21530  1.0000
  H   H401      1.0  0.14031  0.61591  0.26185  1.0000
  H   H402      1.0  0.13517  0.68803  0.24546  1.0000
  H   H403      1.0  0.15534  0.68195  0.19860  1.0000
  C   C235      1.0  0.26518  0.95866  0.33401  1.0000
  C   C236      1.0  0.24188  0.96414  0.33661  1.0000
  C   C237      1.0  0.30464  0.82542  0.23624  1.0000
  H   H404      1.0  0.23005  0.95067  0.33724  1.0000
  H   H405      1.0  0.30155  0.70789  0.06565  1.0000
  C   C238      1.0  0.26389  0.85275  0.45331  1.0000
  C   C239      1.0  0.25655  0.97046  0.41223  1.0000
  C   C240      1.0  0.28442  0.86353  0.45103  1.0000
  H   H406      1.0  0.12369  0.53255  0.11802  1.0000
  H   H407      1.0  0.29269  0.86500  0.43024  1.0000
  C   C241      1.0  0.16647  0.77782  0.32906  1.0000
  C   C242      1.0  0.18911  0.78018  0.32026  1.0000
  C   C243      1.0  0.19740  0.80179  0.31416  1.0000
  C   C244      1.0  0.18302  0.82136  0.31643  1.0000
  C   C245      1.0  0.16005  0.81895  0.32383  1.0000
  C   C246      1.0  0.15182  0.79730  0.33036  1.0000
  H   H408      1.0  0.20043  0.76520  0.31858  1.0000
  H   H409      1.0  0.21494  0.80331  0.30775  1.0000
  H   H410      1.0  0.14871  0.83398  0.32525  1.0000
  H   H411      1.0  0.13436  0.79578  0.33715  1.0000
  C   C247      1.0  0.02824  0.73214  0.41502  1.0000
  C   C248      1.0  0.16909  0.73379  0.44403  1.0000
  C   C249      1.0  0.28795  0.68094  0.11392  1.0000
  C   C250      1.0  0.28379  0.65762  0.11502  1.0000
  C   C251      1.0  0.29928  0.64254  0.12897  1.0000
  H   H412      1.0  0.15250  0.52777  0.13002  1.0000
  H   H413      1.0  0.21772  0.53850  0.08295  1.0000
  H   H414      1.0  0.27599  0.69269  0.10319  1.0000
  H   H415      1.0  0.29639  0.62450  0.12960  1.0000
  H   H416      1.0  0.99266  0.68342  0.20202  1.0000
  H   H417      1.0  0.26636  0.92616  0.39816  1.0000
  C   C252      1.0  0.27820  0.91409  0.24444  1.0000
  H   H418      1.0  0.29047  0.83751  0.23970  1.0000
  H   H419      1.0  0.27479  0.91534  0.26796  1.0000
  C   C253      1.0  0.20470  0.79976  0.39520  1.0000
  C   C254      1.0  0.22021  0.76108  0.38506  1.0000
  C   C255      1.0  0.23991  0.77065  0.36688  1.0000
  C   C256      1.0  0.18499  0.81457  0.40899  1.0000
  C   C257      1.0  0.18490  0.83912  0.39777  1.0000
  C   C258      1.0  0.25023  0.75270  0.34634  1.0000
  H   H420      1.0  0.22018  0.80988  0.39418  1.0000
  H   H421      1.0  0.19940  0.79809  0.37247  1.0000
  H   H422      1.0  0.20675  0.75661  0.36968  1.0000
  H   H423      1.0  0.24273  0.78675  0.42344  1.0000
  H   H424      1.0  0.25377  0.77630  0.38063  1.0000
  H   H425      1.0  0.23361  0.78533  0.35352  1.0000
  H   H426      1.0  0.16846  0.80762  0.40320  1.0000
  H   H427      1.0  0.18587  0.81499  0.43274  1.0000
  H   H428      1.0  0.17043  0.84928  0.40745  1.0000
  H   H429      1.0  0.20096  0.84700  0.40344  1.0000
  H   H430      1.0  0.26367  0.76031  0.33293  1.0000
  H   H431      1.0  0.25799  0.73800  0.35864  1.0000
  H   H432      1.0  0.23708  0.74657  0.33174  1.0000
  N   N14       1.0  0.23667  0.67670  0.20227  1.0000
  C   C259      1.0  0.23045  0.67449  0.17092  1.0000
  C   C260      1.0  0.25143  0.65624  0.21204  1.0000
  C   C261      1.0  0.21483  0.67674  0.21969  1.0000
  C   C262      1.0  0.24795  0.69867  0.20811  1.0000
  C   C263      1.0  0.26930  0.70356  0.18979  1.0000
  C   C264      1.0  0.21522  0.69431  0.15798  1.0000
  C   C265      1.0  0.21744  0.67671  0.25304  1.0000
  C   C266      1.0  0.26907  0.64598  0.19019  1.0000
  C   C267      1.0  0.28467  0.62761  0.20438  1.0000
  C   C268      1.0  0.27609  0.72812  0.19344  1.0000
  C   C269      1.0  0.21150  0.69098  0.12580  1.0000
  C   C270      1.0  0.19446  0.67500  0.26818  1.0000
  H   H433      1.0  0.22161  0.65837  0.16777  1.0000
  H   H434      1.0  0.24576  0.67281  0.15690  1.0000
  H   H435      1.0  0.26073  0.66029  0.23198  1.0000
  H   H436      1.0  0.24066  0.64177  0.21796  1.0000
  H   H437      1.0  0.20505  0.66168  0.21402  1.0000
  H   H438      1.0  0.20359  0.69195  0.21441  1.0000
  H   H439      1.0  0.23547  0.71344  0.20578  1.0000
  H   H440      1.0  0.25350  0.69915  0.23093  1.0000
  H   H441      1.0  0.26663  0.70105  0.16648  1.0000
  H   H442      1.0  0.28394  0.69245  0.19713  1.0000
  H   H443      1.0  0.19818  0.69522  0.16837  1.0000
  H   H444      1.0  0.22313  0.71089  0.16046  1.0000
  H   H445      1.0  0.22471  0.69272  0.26022  1.0000
  H   H446      1.0  0.22851  0.66208  0.26070  1.0000
  H   H447      1.0  0.26032  0.63787  0.17223  1.0000
  H   H448      1.0  0.27978  0.65900  0.18075  1.0000
  H   H449      1.0  0.29476  0.63505  0.22169  1.0000
  H   H450      1.0  0.27459  0.61374  0.21357  1.0000
  H   H451      1.0  0.29663  0.62010  0.18803  1.0000
  H   H452      1.0  0.26248  0.74032  0.18546  1.0000
  H   H453      1.0  0.27948  0.73163  0.21644  1.0000
  H   H454      1.0  0.04067  0.74147  0.25084  1.0000
  H   H455      1.0  0.20116  0.70569  0.11687  1.0000
  H   H456      1.0  0.22797  0.68961  0.11393  1.0000
  H   H457      1.0  0.20218  0.67533  0.12237  1.0000
  H   H458      1.0  0.19666  0.67550  0.29192  1.0000
  H   H459      1.0  0.18265  0.68947  0.26174  1.0000
  H   H460      1.0  0.18685  0.65868  0.26282  1.0000
  C   C271      1.0  0.18872  0.76609  0.41906  1.0000
  H   H461      1.0  0.12444  0.74748  0.47869  1.0000
  C   C272      1.0  0.22232  0.52431  0.06806  1.0000
  H   H462      1.0  0.19659  0.72928  0.41405  1.0000
  H   H463      1.0  0.02800  0.75094  0.41740  1.0000
  H   H464      1.0  0.30414  0.66566  0.05826  1.0000
  C   C273      1.0  0.02708  0.67268  0.47036  1.0000
  H   H465      1.0  0.24230  0.92073  0.23604  1.0000
  H   H466      1.0  0.16372  0.74457  0.46259  1.0000
  H   H467      1.0  0.18018  0.77664  0.43596  1.0000
  H   H468      1.0  0.22688  0.74458  0.39446  1.0000
  H   H469      1.0  0.21757  0.80883  0.45505  1.0000
  H   H470      1.0  0.23464  0.76041  0.43782  1.0000
  H   H471      1.0  0.24262  0.76963  0.48805  1.0000
  C   C274      1.0  0.22778  0.77778  0.43169  1.0000
  H   H472      1.0  0.28240  0.93118  0.23628  1.0000
  H   H473      1.0  0.29199  0.87920  0.24645  1.0000
  N   N15       1.0  0.21020  0.77645  0.40837  1.0000
  H   H474      1.0  0.17624  0.76587  0.40108  1.0000
  H   H475      1.0  0.03353  0.72383  0.43566  1.0000
  C   C275      1.0  0.31880  0.65079  0.14172  1.0000
  H   H476      1.0  0.20479  0.78347  0.46913  1.0000
  H   H477      1.0  0.16507  0.54128  0.02128  1.0000
  C   C276      1.0  0.21355  0.60658  0.00314  1.0000
  H   H478      1.0  0.25818  0.90866  0.20601  1.0000
  H   H479      1.0  0.13607  0.53314  0.06754  1.0000
  H   H480      1.0  0.24136  0.96665  0.45415  1.0000
  C   C277      1.0  0.31073  0.91517  0.40377  1.0000
  N   N16       1.0  0.05612  0.67307  0.24506  1.0000
  C   C278      1.0  0.06018  0.69646  0.25651  1.0000
  C   C279      1.0  0.05703  0.65600  0.26969  1.0000
  C   C280      1.0  0.07564  0.66673  0.22480  1.0000
  C   C281      1.0  0.03396  0.67228  0.22898  1.0000
  H   H481      1.0  0.14956  0.51657  0.02845  1.0000
  C   C282      1.0  0.06389  0.71506  0.23303  1.0000
  C   C283      1.0  0.07684  0.64193  0.21353  1.0000
  C   C284      1.0  0.03877  0.65926  0.29356  1.0000
  C   C285      1.0  0.04273  0.64193  0.31809  1.0000
  C   C286      1.0  0.23895  0.78785  0.48233  1.0000
  H   H482      1.0  0.29182  0.73089  0.18076  1.0000
  C   C287      1.0  0.09344  0.63918  0.18815  1.0000
  H   H483      1.0  0.07548  0.69563  0.27044  1.0000
  H   H484      1.0  0.04626  0.70267  0.27110  1.0000
  H   H485      1.0  0.05511  0.63845  0.26174  1.0000
  H   H486      1.0  0.07396  0.65583  0.28013  1.0000
  H   H487      1.0  0.09216  0.66940  0.23544  1.0000
  H   H488      1.0  0.07520  0.67814  0.20547  1.0000
  H   H489      1.0  0.03646  0.67626  0.20565  1.0000
  H   H490      1.0  0.02796  0.65461  0.22946  1.0000
  H   H491      1.0  0.25935  0.65177  0.00272  1.0000
  H   H492      1.0  0.31808  0.93691  0.24154  1.0000
  H   H493      1.0  0.08190  0.71386  0.22560  1.0000
  H   H494      1.0  0.05305  0.71280  0.21397  1.0000
  H   H495      1.0  0.05995  0.63682  0.20639  1.0000
  H   H496      1.0  0.08310  0.62998  0.23081  1.0000
  H   H497      1.0  0.03911  0.67643  0.30286  1.0000
  H   H498      1.0  0.02167  0.65657  0.28487  1.0000
  H   H499      1.0  0.05987  0.64331  0.32746  1.0000
  H   H500      1.0  0.02987  0.64523  0.33540  1.0000
  H   H501      1.0  0.04116  0.62432  0.31018  1.0000
  C   C288      1.0  0.27632  0.64921  0.01278  1.0000
  H   H502      1.0  0.13838  0.78693  0.44714  1.0000
  C   C289      1.0  0.29449  0.87204  0.47583  1.0000
  H   H503      1.0  0.02844  0.71503  0.49695  1.0000
  H   H504      1.0  0.17118  0.71583  0.45173  1.0000
  H   H505      1.0  0.11058  0.64426  0.19440  1.0000
  H   H506      1.0  0.09484  0.62107  0.18147  1.0000
  H   H507      1.0  0.08750  0.64978  0.16944  1.0000
  C   C290      1.0  0.25615  0.90815  0.22985  1.0000
  H   H508      1.0  0.14372  0.55428  0.11204  1.0000
  N   N17       1.0  0.25274  0.93275  0.44108  1.0000
  C   C291      1.0  0.22925  0.92879  0.43013  1.0000
  S   S72       1.0  0.31077  0.82521  0.29603  1.0000
  C   C292      1.0  0.26987  0.92116  0.42101  1.0000
  C   C293      1.0  0.25613  0.92302  0.47108  1.0000
  H   H509      1.0  0.29734  0.75016  0.07515  1.0000
  C   C294      1.0  0.22120  0.90414  0.43356  1.0000
  C   C295      1.0  0.29517  0.92514  0.42739  1.0000
  H   H510      1.0  0.31214  0.92220  0.28639  1.0000
  C   C296      1.0  0.31136  0.81937  0.20788  1.0000
  H   H511      1.0  0.25476  0.79538  0.47424  1.0000
  C   C297      1.0  0.19743  0.90234  0.42121  1.0000
  H   H512      1.0  0.31268  0.76955  0.05286  1.0000
  H   H513      1.0  0.30701  0.92400  0.38293  1.0000
  H   H514      1.0  0.24089  0.96805  0.39982  1.0000
  H   H515      1.0  0.30235  0.82709  0.18974  1.0000
  H   H516      1.0  0.22169  0.50812  0.08046  1.0000
  C   C298      1.0  0.99282  0.73923  0.31143  1.0000
  H   H517      1.0  0.26817  0.90242  0.42156  1.0000
  H   H518      1.0  0.25600  0.90410  0.47086  1.0000
  H   H519      1.0  0.06963  0.74243  0.26307  1.0000
  H   H520      1.0  0.27424  0.63949  0.03327  1.0000
  H   H521      1.0  0.21633  0.94046  0.44072  1.0000
  H   H522      1.0  0.23283  0.89179  0.42217  1.0000
  H   H523      1.0  0.22035  0.89880  0.45654  1.0000
  H   H524      1.0  0.27325  0.92664  0.47921  1.0000
  C   C299      1.0  0.99155  0.68271  0.22594  1.0000
  H   H525      1.0  0.08742  0.67394  0.48481  1.0000
  H   H526      1.0  0.00090  0.73381  0.38521  1.0000
  C   C300      1.0  0.20561  0.52499  0.04243  1.0000
  H   H527      1.0  0.01658  0.65900  0.46223  1.0000
  H   H528      1.0  0.31048  0.70718  0.12564  1.0000
  H   H529      1.0  0.29386  0.71368  0.02921  1.0000
  H   H530      1.0  0.27316  0.68228  0.03168  1.0000
  H   H531      1.0  0.04492  0.66573  0.47209  1.0000
  H   H532      1.0  0.19739  0.90635  0.39773  1.0000
  H   H533      1.0  0.19192  0.88471  0.42437  1.0000
  H   H534      1.0  0.18505  0.91418  0.43235  1.0000
  H   H535      1.0  0.22813  0.93317  0.40672  1.0000
  H   H536      1.0  0.31812  0.65424  0.02773  1.0000
  H   H537      1.0  0.30446  0.89368  0.29114  1.0000
  H   H538      1.0  0.27137  0.96415  0.39915  1.0000
  H   H539      1.0  0.12351  0.81928  0.49641  1.0000
  C   C301      1.0  0.16692  0.52235  0.02406  1.0000
  C   C302      1.0  0.17291  0.52945  0.07490  1.0000
  C   C303      1.0  0.00495  0.72470  0.40573  1.0000
  C   C304      1.0  0.19149  0.74145  0.43134  1.0000
  H   H540      1.0  0.27115  0.96190  0.45412  1.0000
  C   C305      1.0  0.14797  0.52511  0.08353  1.0000
  H   H541      1.0  0.04112  0.72722  0.39825  1.0000
  H   H542      1.0  0.20410  0.54302  0.03461  1.0000
  C   C306      1.0  0.14169  0.53559  0.11271  1.0000
  H   H543      1.0  0.29825  0.97263  0.33118  1.0000
  H   H544      1.0  0.30845  0.89665  0.40148  1.0000
  H   H545      1.0  0.25272  0.51254  0.04435  1.0000
  C   C307      1.0  0.22034  0.79033  0.45958  1.0000
  H   H546      1.0  0.17400  0.54814  0.07134  1.0000
  H   H547      1.0  0.18331  0.52535  0.09426  1.0000
  H   H548      1.0  0.01172  0.68866  0.26295  1.0000
  C   C308      1.0  0.09526  0.69016  0.48353  1.0000
  H   H549      1.0  0.31046  0.88023  0.47398  1.0000
  H   H550      1.0  0.21395  0.51546  0.02445  1.0000
  H   H551      1.0  0.23780  0.84193  0.48246  1.0000
  H   H552      1.0  0.29843  0.89421  0.21412  1.0000
  H   H553      1.0  0.16250  0.78245  0.49179  1.0000
  C   C309      1.0  0.24675  0.52711  0.05795  1.0000
  H   H554      1.0  0.29840  0.94350  0.42870  1.0000
  C   C310      1.0  0.05880  0.73912  0.24430  1.0000
  H   H555      1.0  0.24804  0.54329  0.04553  1.0000
  H   H556      1.0  0.01719  0.70653  0.23268  1.0000
  H   H557      1.0  0.25796  0.52766  0.07705  1.0000
  H   H558      1.0  0.14517  0.50660  0.08497  1.0000
  C   C311      1.0  0.25565  0.95808  0.44193  1.0000
  N   N18       1.0  0.18240  0.51647  0.04912  1.0000
  H   H559      1.0  0.30037  0.91679  0.44802  1.0000
  H   H560      1.0  0.02644  0.68692  0.45443  1.0000
  H   H561      1.0  0.06231  0.75181  0.22712  1.0000
  C   C312      1.0  0.25364  0.85033  0.48056  1.0000
  H   H562      1.0  0.28927  0.75522  0.03787  1.0000
  C   C313      1.0  0.30867  0.66979  0.03546  1.0000
  H   H563      1.0  0.11861  0.81126  0.44450  1.0000
  C   C314      1.0  0.30867  0.71080  0.04367  1.0000
  C   C315      1.0  0.30379  0.75332  0.05294  1.0000
  H   H564      1.0  0.11173  0.78730  0.46689  1.0000
  H   H565      1.0  0.15561  0.73477  0.42739  1.0000
  C   C316      1.0  0.23379  0.98720  0.33822  1.0000
  C   C317      1.0  0.29761  0.89587  0.23799  1.0000
  C   C318      1.0  0.18293  0.49122  0.05625  1.0000
  H   H566      1.0  0.22117  0.93010  0.48786  1.0000
  H   H567      1.0  0.14958  0.82050  0.47604  1.0000
  H   H568      1.0  0.00666  0.70612  0.40159  1.0000
  C   C319      1.0  0.31662  0.81622  0.25993  1.0000
  C   C320      1.0  0.19336  0.59512  0.00463  1.0000
  C   C321      1.0  0.13692  0.80890  0.48495  1.0000
  C   C322      1.0  0.28601  0.67233  0.01863  1.0000
  C   C323      1.0  0.31807  0.90424  0.28202  1.0000
  C   C324      1.0  0.98957  0.69622  0.33654  1.0000
  C   C325      1.0  0.23899  0.93218  0.49432  1.0000
  N   N19       1.0  0.32069  0.90054  0.24986  1.0000
  H   H569      1.0  0.32097  0.90152  0.34191  1.0000
  H   H570      1.0  0.00005  0.68675  0.49695  1.0000
  Fe  Fe37      1.0  0.28263  0.87720  0.57860  1.0000
  S   S73       1.0  0.24615  0.88475  0.59068  1.0000
  S   S74       1.0  0.29672  0.88195  0.53329  1.0000
  Fe  Fe38      1.0  0.29634  0.86571  0.64190  1.0000
  S   S75       1.0  0.26067  0.87251  0.65796  1.0000
  C   C326      1.0  0.22660  0.76600  0.74241  1.0000
  Fe  Fe39      1.0  0.24993  0.85324  0.61896  1.0000
  S   S76       1.0  0.23108  0.82048  0.61483  1.0000
  Fe  Fe40      1.0  0.26036  0.90360  0.62823  1.0000
  S   S77       1.0  0.24556  0.93883  0.64183  1.0000
  S   S78       1.0  0.28591  0.84487  0.60453  1.0000
  S   S79       1.0  0.29663  0.89766  0.61438  1.0000
  Fe  Fe41      1.0  0.18761  0.62114  0.81461  1.0000
  S   S80       1.0  0.21214  0.60026  0.78729  1.0000
  S   S81       1.0  0.15650  0.64176  0.79675  1.0000
  Fe  Fe42      1.0  0.21523  0.60928  0.87046  1.0000
  S   S82       1.0  0.24166  0.58812  0.84592  1.0000
  S   S83       1.0  0.22415  0.61616  0.91728  1.0000
  Fe  Fe43      1.0  0.23936  0.61671  0.81288  1.0000
  S   S84       1.0  0.26647  0.63675  0.78977  1.0000
  Fe  Fe44      1.0  0.21197  0.57367  0.82310  1.0000
  S   S85       1.0  0.20193  0.53637  0.82014  1.0000
  S   S86       1.0  0.21472  0.63858  0.83867  1.0000
  S   S87       1.0  0.18559  0.59392  0.84933  1.0000
  Fe  Fe45      1.0  0.11450  0.72782  0.58518  1.0000
  S   S88       1.0  0.09548  0.75750  0.60555  1.0000
  S   S89       1.0  0.12348  0.73463  0.53810  1.0000
  Fe  Fe46      1.0  0.11955  0.70315  0.64425  1.0000
  S   S90       1.0  0.09985  0.73128  0.66757  1.0000
  S   S91       1.0  0.14054  0.67359  0.66527  1.0000
  Fe  Fe47      1.0  0.07581  0.73137  0.62971  1.0000
  S   S92       1.0  0.03784  0.74195  0.62758  1.0000
  Fe  Fe48      1.0  0.12103  0.75465  0.64095  1.0000
  S   S93       1.0  0.13674  0.78543  0.66062  1.0000
  S   S94       1.0  0.09407  0.70150  0.60775  1.0000
  S   S95       1.0  0.14150  0.72680  0.61908  1.0000
  C   C327      1.0  0.01020  0.70559  0.63877  1.0000
  C   C328      1.0  0.01167  0.72823  0.62959  1.0000
  H   H571      1.0  0.02438  0.66280  0.57014  1.0000
  H   H572      1.0  0.02549  0.69562  0.64443  1.0000
  H   H573      1.0  0.20160  0.85348  0.52722  1.0000
  C   C329      1.0  0.21540  0.50882  0.81549  1.0000
  H   H574      1.0  0.22171  0.73230  0.75786  1.0000
  C   C330      1.0  0.23838  0.50540  0.80813  1.0000
  H   H575      1.0  0.20414  0.69263  0.96474  1.0000
  H   H576      1.0  0.24861  0.51997  0.80464  1.0000
  C   C331      1.0  0.15193  0.64987  0.75995  1.0000
  C   C332      1.0  0.13297  0.66435  0.75275  1.0000
  C   C333      1.0  0.12916  0.67177  0.72400  1.0000
  C   C334      1.0  0.14425  0.66473  0.70198  1.0000
  C   C335      1.0  0.16307  0.65010  0.70915  1.0000
  C   C336      1.0  0.16695  0.64279  0.73789  1.0000
  H   H577      1.0  0.12117  0.66987  0.76956  1.0000
  H   H578      1.0  0.11442  0.68268  0.71882  1.0000
  H   H579      1.0  0.17479  0.64437  0.69235  1.0000
  H   H580      1.0  0.18158  0.63164  0.74297  1.0000
  C   C337      1.0  0.25793  0.96592  0.63918  1.0000
  C   C338      1.0  0.28043  0.96825  0.63020  1.0000
  C   C339      1.0  0.13871  0.81034  0.58276  1.0000
  H   H581      1.0  0.29064  0.95339  0.62363  1.0000
  H   H582      1.0  0.31862  0.62030  0.89643  1.0000
  C   C340      1.0  0.20510  0.81130  0.62907  1.0000
  C   C341      1.0  0.19052  0.82511  0.64614  1.0000
  C   C342      1.0  0.16976  0.81687  0.65613  1.0000
  C   C343      1.0  0.16325  0.79501  0.64864  1.0000
  C   C344      1.0  0.17790  0.78130  0.63161  1.0000
  C   C345      1.0  0.19883  0.78929  0.62227  1.0000
  H   H583      1.0  0.19512  0.84213  0.65145  1.0000
  H   H584      1.0  0.15849  0.82762  0.66927  1.0000
  H   H585      1.0  0.17301  0.76460  0.62545  1.0000
  H   H586      1.0  0.21010  0.77852  0.60921  1.0000
  C   C346      1.0  0.32013  0.75021  0.74724  1.0000
  C   C347      1.0  0.20660  0.68804  0.74729  1.0000
  C   C348      1.0  0.30004  0.64279  0.82985  1.0000
  C   C349      1.0  0.28679  0.65261  0.80770  1.0000
  C   C350      1.0  0.24257  0.97983  0.55951  1.0000
  H   H587      1.0  0.31153  0.61691  0.93430  1.0000
  C   C351      1.0  0.20789  0.83962  0.54205  1.0000
  H   H588      1.0  0.29726  0.62555  0.83698  1.0000
  H   H589      1.0  0.20934  0.70696  0.69821  1.0000
  H   H590      1.0  0.30290  0.89976  0.80390  1.0000
  C   C352      1.0  0.31075  0.84207  0.72317  1.0000
  H   H591      1.0  0.26569  0.79037  0.71949  1.0000
  C   C353      1.0  0.30046  0.76393  0.73299  1.0000
  H   H592      1.0  0.29599  0.85303  0.71816  1.0000
  H   H593      1.0  0.04925  0.77193  0.52184  1.0000
  H   H594      1.0  0.29334  0.93010  0.76546  1.0000
  H   H595      1.0  0.22734  0.98419  0.65362  1.0000
  H   H596      1.0  0.31720  0.96881  0.74881  1.0000
  H   H597      1.0  0.10030  0.69217  0.52964  1.0000
  C   C354      1.0  0.22276  0.61261  0.97615  1.0000
  C   C355      1.0  0.21200  0.60718  0.95037  1.0000
  C   C356      1.0  0.19200  0.59538  0.95179  1.0000
  H   H598      1.0  0.23826  0.62165  0.97525  1.0000
  H   H599      1.0  0.18349  0.59124  0.93210  1.0000
  H   H600      1.0  0.30928  0.79845  0.59871  1.0000
  H   H601      1.0  0.28858  0.73000  0.69337  1.0000
  C   C357      1.0  0.32144  0.93114  0.67006  1.0000
  H   H602      1.0  0.20544  0.67022  0.93845  1.0000
  H   H603      1.0  0.22588  0.66405  0.77447  1.0000
  H   H604      1.0  0.30477  0.80746  0.66287  1.0000
  H   H605      1.0  0.30564  0.92729  0.65896  1.0000
  H   H606      1.0  0.01095  0.70113  0.70192  1.0000
  C   C358      1.0  0.26615  0.72059  0.66009  1.0000
  H   H607      1.0  0.15511  0.81542  0.59129  1.0000
  C   C359      1.0  0.31215  0.83038  0.74991  1.0000
  C   C360      1.0  0.29636  0.79167  0.65662  1.0000
  H   H608      1.0  0.00316  0.70570  0.57704  1.0000
  H   H609      1.0  0.27634  0.92120  0.68709  1.0000
  C   C361      1.0  0.23971  0.82656  0.70341  1.0000
  H   H610      1.0  0.22738  0.73452  0.71944  1.0000
  H   H611      1.0  0.25813  0.75964  0.69165  1.0000
  H   H612      1.0  0.02843  0.73736  0.56821  1.0000
  C   C362      1.0  0.27185  0.76130  0.67524  1.0000
  C   C363      1.0  0.24267  0.91964  0.52308  1.0000
  C   C364      1.0  0.15800  0.52181  0.97080  1.0000
  C   C365      1.0  0.30683  0.77187  0.70202  1.0000
  C   C366      1.0  0.19321  0.74341  0.55581  1.0000
  C   C367      1.0  0.18269  0.58945  0.97885  1.0000
  H   H613      1.0  0.18861  0.54094  0.92090  1.0000
  C   C368      1.0  0.19852  0.71692  0.64277  1.0000
  H   H614      1.0  0.22470  0.90704  0.73077  1.0000
  C   C369      1.0  0.28087  0.91580  0.70945  1.0000
  H   H615      1.0  0.12229  0.84404  0.58931  1.0000
  H   H616      1.0  0.99291  0.74853  0.72243  1.0000
  H   H617      1.0  0.31704  0.75776  0.69177  1.0000
  H   H618      1.0  0.28146  0.68220  0.78021  1.0000
  C   C370      1.0  0.01220  0.71707  0.71430  1.0000
  H   H619      1.0  0.17229  0.73556  0.66611  1.0000
  H   H620      1.0  0.28526  0.89719  0.70787  1.0000
  H   H621      1.0  0.18453  0.49207  0.82516  1.0000
  H   H622      1.0  0.22613  0.83583  0.69086  1.0000
  H   H623      1.0  0.27806  0.63151  0.88625  1.0000
  H   H624      1.0  0.29906  0.71137  0.88369  1.0000
  H   H625      1.0  0.24488  0.76445  0.74800  1.0000
  C   C371      1.0  0.25364  0.81060  0.68346  1.0000
  H   H626      1.0  0.16898  0.83025  0.51405  1.0000
  H   H627      1.0  0.25068  0.83929  0.71291  1.0000
  H   H628      1.0  0.25481  0.96776  0.54851  1.0000
  H   H629      1.0  0.25187  0.93712  0.72600  1.0000
  C   C372      1.0  0.29524  0.95360  0.71714  1.0000
  H   H630      1.0  0.24533  0.69742  0.95942  1.0000
  H   H631      1.0  0.24209  0.79839  0.67404  1.0000
  H   H632      1.0  0.19643  0.55146  0.88582  1.0000
  N   N20       1.0  0.02825  0.70663  0.54280  1.0000
  H   H633      1.0  0.19779  0.72903  0.62422  1.0000
  C   C373      1.0  0.04449  0.69315  0.56230  1.0000
  H   H634      1.0  0.26027  0.92142  0.53083  1.0000
  H   H635      1.0  0.21989  0.66618  0.97246  1.0000
  H   H636      1.0  0.14001  0.51851  0.97594  1.0000
  C   C374      1.0  0.32136  0.92131  0.70119  1.0000
  C   C375      1.0  0.05773  0.73807  0.53977  1.0000
  C   C376      1.0  0.04190  0.66708  0.56415  1.0000
  C   C377      1.0  0.05765  0.65608  0.58693  1.0000
  H   H637      1.0  0.17668  0.83624  0.56486  1.0000
  C   C378      1.0  0.21630  0.50077  0.91951  1.0000
  C   C379      1.0  0.05966  0.76390  0.53940  1.0000
  H   H638      1.0  0.23585  0.90832  0.69461  1.0000
  H   H639      1.0  0.29836  0.83248  0.76535  1.0000
  H   H640      1.0  0.06235  0.69508  0.55520  1.0000
  H   H641      1.0  0.04318  0.70001  0.58464  1.0000
  H   H642      1.0  0.31361  0.72695  0.94367  1.0000
  C   C380      1.0  0.28300  0.73691  0.67208  1.0000
  H   H643      1.0  0.29687  0.74342  0.91749  1.0000
  C   C381      1.0  0.29132  0.67467  0.79775  1.0000
  C   C382      1.0  0.27335  0.79792  0.69990  1.0000
  H   H644      1.0  0.21635  0.71026  0.64534  1.0000
  H   H645      1.0  0.99921  0.68576  0.54993  1.0000
  H   H646      1.0  0.24394  0.68349  0.82849  1.0000
  H   H647      1.0  0.13632  0.77717  0.50953  1.0000
  H   H648      1.0  0.06934  0.73114  0.55680  1.0000
  H   H649      1.0  0.13591  0.79278  0.59079  1.0000
  H   H650      1.0  0.04681  0.65916  0.54327  1.0000
  H   H651      1.0  0.07570  0.65865  0.58125  1.0000
  H   H652      1.0  0.05379  0.66340  0.60852  1.0000
  H   H653      1.0  0.05528  0.63746  0.58812  1.0000
  H   H654      1.0  0.99166  0.73847  0.68619  1.0000
  H   H655      1.0  0.16695  0.58082  0.97981  1.0000
  H   H656      1.0  0.06376  0.73150  0.51857  1.0000
  H   H657      1.0  0.24590  0.88583  0.71925  1.0000
  H   H658      1.0  0.31835  0.87381  0.79354  1.0000
  H   H659      1.0  0.12173  0.80343  0.54386  1.0000
  H   H660      1.0  0.20603  0.73210  0.54460  1.0000
  H   H661      1.0  0.23162  0.71195  0.83350  1.0000
  C   C383      1.0  0.18855  0.82501  0.55213  1.0000
  N   N21       1.0  0.18164  0.72179  0.72445  1.0000
  C   C384      1.0  0.19118  0.71252  0.69637  1.0000
  C   C385      1.0  0.18469  0.70398  0.74815  1.0000
  C   C386      1.0  0.15644  0.72703  0.72033  1.0000
  C   C387      1.0  0.19205  0.74367  0.73266  1.0000
  C   C388      1.0  0.14222  0.73208  0.74820  1.0000
  C   C389      1.0  0.11736  0.73805  0.74111  1.0000
  H   H662      1.0  0.18236  0.69683  0.69068  1.0000
  H   H663      1.0  0.27445  0.70325  0.65829  1.0000
  H   H664      1.0  0.18333  0.71215  0.76970  1.0000
  H   H665      1.0  0.17066  0.69206  0.74764  1.0000
  H   H666      1.0  0.14863  0.71268  0.70930  1.0000
  H   H667      1.0  0.15343  0.74211  0.70583  1.0000
  H   H668      1.0  0.18799  0.75729  0.71630  1.0000
  H   H669      1.0  0.18434  0.75029  0.75302  1.0000
  H   H670      1.0  0.14858  0.74668  0.76002  1.0000
  H   H671      1.0  0.14253  0.71706  0.76298  1.0000
  H   H672      1.0  0.10963  0.72340  0.73077  1.0000
  H   H673      1.0  0.10773  0.74204  0.76127  1.0000
  H   H674      1.0  0.11586  0.75317  0.72648  1.0000
  H   H675      1.0  0.23094  0.70172  0.92568  1.0000
  H   H676      1.0  0.17873  0.73307  0.56248  1.0000
  H   H677      1.0  0.19610  0.81134  0.56618  1.0000
  C   C390      1.0  0.24479  0.98570  0.64675  1.0000
  H   H678      1.0  0.22167  0.51757  0.87742  1.0000
  N   N22       1.0  0.28719  0.78006  0.68324  1.0000
  H   H679      1.0  0.29368  0.88778  0.75422  1.0000
  H   H680      1.0  0.25564  0.85704  0.52626  1.0000
  H   H681      1.0  0.29953  0.59892  0.90780  1.0000
  H   H682      1.0  0.25119  0.71958  0.67470  1.0000
  C   C391      1.0  0.20818  0.51647  0.89412  1.0000
  H   H683      1.0  0.21755  0.54840  0.91348  1.0000
  H   H684      1.0  0.27128  0.62803  0.92376  1.0000
  H   H685      1.0  0.28232  0.79732  0.64189  1.0000
  H   H686      1.0  0.02203  0.74228  0.53128  1.0000
  C   C392      1.0  0.03296  0.73154  0.54603  1.0000
  C   C393      1.0  0.99135  0.73309  0.70921  1.0000
  H   H687      1.0  0.23068  0.92687  0.53959  1.0000
  H   H688      1.0  0.20289  0.50153  0.93651  1.0000
  H   H689      1.0  0.99250  0.75836  0.61500  1.0000
  C   C394      1.0  0.28411  0.86986  0.50305  1.0000
  C   C395      1.0  0.11997  0.82605  0.59579  1.0000
  C   C396      1.0  0.31449  0.96936  0.72513  1.0000
  H   H690      1.0  0.05041  0.69543  0.50774  1.0000
  H   H691      1.0  0.15973  0.54047  0.96833  1.0000
  H   H692      1.0  0.20112  0.75023  0.57528  1.0000
  H   H693      1.0  0.26040  0.82140  0.66596  1.0000
  C   C397      1.0  0.13810  0.81107  0.54925  1.0000
  N   N23       1.0  0.15768  0.79902  0.53318  1.0000
  H   H694      1.0  0.31170  0.70407  0.80278  1.0000
  H   H695      1.0  0.17836  0.75460  0.51620  1.0000
  H   H696      1.0  0.17358  0.78351  0.57112  1.0000
  C   C398      1.0  0.31339  0.77746  0.63763  1.0000
  C   C399      1.0  0.18511  0.76280  0.53553  1.0000
  C   C400      1.0  0.30648  0.92243  0.75062  1.0000
  H   H697      1.0  0.28451  0.81101  0.70780  1.0000
  H   H698      1.0  0.28908  0.95813  0.69502  1.0000
  C   C401      1.0  0.17612  0.81517  0.52622  1.0000
  H   H699      1.0  0.19278  0.51023  0.88391  1.0000
  N   N24       1.0  0.30099  0.92834  0.71964  1.0000
  C   C402      1.0  0.16657  0.77846  0.55027  1.0000
  C   C403      1.0  0.24630  0.70013  0.83892  1.0000
  C   C404      1.0  0.03210  0.70013  0.51158  1.0000
  H   H700      1.0  0.12065  0.82481  0.61970  1.0000
  H   H701      1.0  0.19128  0.51586  0.98805  1.0000
  H   H702      1.0  0.21560  0.84752  0.56101  1.0000
  C   C405      1.0  0.32192  0.67703  0.83232  1.0000
  H   H703      1.0  0.29637  0.77902  0.74669  1.0000
  H   H704      1.0  0.22136  0.82898  0.53108  1.0000
  H   H705      1.0  0.18906  0.80698  0.51159  1.0000
  H   H706      1.0  0.26167  0.91499  0.75080  1.0000
  H   H707      1.0  0.28076  0.95861  0.73162  1.0000
  C   C406      1.0  0.25876  0.91923  0.72775  1.0000
  C   C407      1.0  0.31627  0.89245  0.78919  1.0000
  C   C408      1.0  0.21790  0.74230  0.73788  1.0000
  H   H708      1.0  0.31890  0.78571  0.70442  1.0000
  H   H709      1.0  0.18772  0.70250  0.63786  1.0000
  C   C409      1.0  0.24026  0.90411  0.71736  1.0000
  C   C410      1.0  0.99156  0.74086  0.62228  1.0000
  N   N25       1.0  0.27263  0.67669  0.91114  1.0000
  C   C411      1.0  0.28162  0.69846  0.92252  1.0000
  C   C412      1.0  0.25244  0.66963  0.92891  1.0000
  C   C413      1.0  0.29130  0.65819  0.91413  1.0000
  C   C414      1.0  0.26662  0.67884  0.87965  1.0000
  C   C415      1.0  0.24790  0.69711  0.87162  1.0000
  C   C416      1.0  0.30275  0.70750  0.90670  1.0000
  C   C417      1.0  0.28454  0.63337  0.90840  1.0000
  C   C418      1.0  0.23647  0.68873  0.94195  1.0000
  C   C419      1.0  0.21522  0.67879  0.95519  1.0000
  C   C420      1.0  0.26369  0.85885  0.50537  1.0000
  H   H710      1.0  0.16250  0.51370  0.94991  1.0000
  H   H711      1.0  0.02772  0.72551  0.70697  1.0000
  H   H712      1.0  0.28602  0.69608  0.94570  1.0000
  H   H713      1.0  0.26848  0.71263  0.92195  1.0000
  H   H714      1.0  0.24186  0.65853  0.91591  1.0000
  H   H715      1.0  0.25810  0.65908  0.94789  1.0000
  H   H716      1.0  0.29849  0.65828  0.93623  1.0000
  H   H717      1.0  0.30559  0.66141  0.89911  1.0000
  H   H718      1.0  0.28196  0.68190  0.86642  1.0000
  H   H719      1.0  0.26050  0.66252  0.87155  1.0000
  H   H720      1.0  0.25118  0.71397  0.88068  1.0000
  H   H721      1.0  0.23118  0.69159  0.87946  1.0000
  H   H722      1.0  0.22212  0.69715  0.74237  1.0000
  H   H723      1.0  0.20005  0.77251  0.52925  1.0000
  H   H724      1.0  0.28544  0.75333  0.73293  1.0000
  H   H725      1.0  0.21261  0.68782  0.79357  1.0000
  H   H726      1.0  0.21730  0.77474  0.76042  1.0000
  C   C421      1.0  0.20237  0.54073  0.90440  1.0000
  H   H727      1.0  0.20065  0.74372  0.67349  1.0000
  H   H728      1.0  0.22443  0.77643  0.72241  1.0000
  C   C422      1.0  0.17372  0.51207  0.99447  1.0000
  H   H729      1.0  0.32239  0.66746  0.97671  1.0000
  H   H730      1.0  0.30469  0.76353  0.62714  1.0000
  C   C423      1.0  0.18992  0.72902  0.67008  1.0000
  C   C424      1.0  0.21041  0.67554  0.77596  1.0000
  H   H731      1.0  0.23962  0.90125  0.52084  1.0000
  H   H732      1.0  0.20498  0.67500  0.73034  1.0000
  H   H733      1.0  0.19587  0.66504  0.78131  1.0000
  C   C425      1.0  0.30489  0.61643  0.91200  1.0000
  H   H734      1.0  0.26200  0.70743  0.83019  1.0000
  H   H735      1.0  0.23099  0.50901  0.92910  1.0000
  H   H736      1.0  0.05402  0.77118  0.56045  1.0000
  C   C426      1.0  0.31015  0.72949  0.92034  1.0000
  H   H737      1.0  0.10300  0.82092  0.58886  1.0000
  H   H738      1.0  0.32268  0.94991  0.66987  1.0000
  H   H739      1.0  0.15226  0.76764  0.55617  1.0000
  C   C427      1.0  0.11315  0.72118  0.50729  1.0000
  H   H740      1.0  0.26039  0.72630  0.63831  1.0000
  H   H741      1.0  0.01390  0.71276  0.73759  1.0000
  H   H742      1.0  0.13615  0.82926  0.54224  1.0000
  H   H743      1.0  0.29805  0.73653  0.65771  1.0000
  H   H744      1.0  0.31552  0.74602  0.76990  1.0000
  H   H745      1.0  0.31744  0.69500  0.90781  1.0000
  H   H746      1.0  0.23162  0.81686  0.72105  1.0000
  C   C428      1.0  0.30853  0.68703  0.81035  1.0000
  H   H747      1.0  0.07768  0.76792  0.53567  1.0000
  H   H748      1.0  0.26276  0.76587  0.65483  1.0000
  H   H749      1.0  0.01820  0.66566  0.51432  1.0000
  C   C429      1.0  0.14864  0.79059  0.50506  1.0000
  C   C430      1.0  0.10248  0.70047  0.50894  1.0000
  C   C431      1.0  0.30962  0.89656  0.75773  1.0000
  H   H750      1.0  0.23866  0.97260  0.58113  1.0000
  H   H751      1.0  0.23339  0.79699  0.50216  1.0000
  C   C432      1.0  0.00427  0.70343  0.55326  1.0000
  H   H752      1.0  0.32088  0.70626  0.99195  1.0000
  H   H753      1.0  0.22655  0.98149  0.54708  1.0000
  H   H754      1.0  0.17193  0.49337  0.99504  1.0000
  C   C433      1.0  0.01804  0.68068  0.49975  1.0000
  C   C434      1.0  0.31773  0.65479  0.84168  1.0000
  H   H755      1.0  0.28821  0.68136  0.99773  1.0000
  C   C435      1.0  0.28981  0.98990  0.62980  1.0000
  H   H756      1.0  0.32251  0.93022  0.75691  1.0000
  H   H757      1.0  0.28764  0.63908  0.99794  1.0000
  H   H758      1.0  0.24122  0.95053  0.49815  1.0000
  Fe  Fe49      1.0  0.37014  0.19916  0.16099  1.0000
  S   S96       1.0  0.37757  0.23662  0.16046  1.0000
  S   S97       1.0  0.35612  0.18940  0.20602  1.0000
  Fe  Fe50      1.0  0.38182  0.19593  0.09551  1.0000
  S   S98       1.0  0.38918  0.23275  0.09219  1.0000
  S   S99       1.0  0.38441  0.17516  0.05413  1.0000
  Fe  Fe51      1.0  0.40854  0.22656  0.13332  1.0000
  S   S100      1.0  0.44292  0.24313  0.13630  1.0000
  Fe  Fe52      1.0  0.35785  0.23889  0.11929  1.0000
  H   H759      1.0  0.47289  0.16129  0.05649  1.0000
  S   S101      1.0  0.40253  0.18910  0.13606  1.0000
  S   S102      1.0  0.34928  0.20210  0.12057  1.0000
  Fe  Fe53      1.0  0.57932  0.21527  0.12002  1.0000
  S   S103      1.0  0.60532  0.19452  0.09391  1.0000
  S   S104      1.0  0.54446  0.19981  0.12442  1.0000
  Fe  Fe54      1.0  0.61442  0.25028  0.13463  1.0000
  H   H760      1.0  0.57083  0.19347  0.19277  1.0000
  H   H761      1.0  0.32537  0.17702  0.37318  1.0000
  Fe  Fe55      1.0  0.61541  0.22811  0.07577  1.0000
  S   S105      1.0  0.62481  0.23763  0.02971  1.0000
  Fe  Fe56      1.0  0.62963  0.20038  0.13002  1.0000
  C   C436      1.0  0.33926  0.14327  0.36232  1.0000
  S   S106      1.0  0.58815  0.24868  0.09970  1.0000
  S   S107      1.0  0.60321  0.21863  0.15743  1.0000
  H   H762      1.0  0.42314  0.26746  0.04446  1.0000
  H   H763      1.0  0.46375  0.23887  0.06900  1.0000
  C   C437      1.0  0.44779  0.22769  0.02848  1.0000
  H   H764      1.0  0.60327  0.19442  0.02115  1.0000
  H   H765      1.0  0.38552  0.11511  0.37288  1.0000
  H   H766      1.0  0.61217  0.24718  0.21162  1.0000
  H   H767      1.0  0.49549  0.22989  0.04635  1.0000
  H   H768      1.0  0.55442  0.21305  0.24976  1.0000
  C   C438      1.0  0.33795  0.14615  0.20985  1.0000
  H   H769      1.0  0.62972  0.18411  0.19753  1.0000
  C   C439      1.0  0.34019  0.35104  0.10230  1.0000
  C   C440      1.0  0.47088  0.23066  0.13146  1.0000
  C   C441      1.0  0.48914  0.24497  0.12752  1.0000
  C   C442      1.0  0.51169  0.23588  0.12465  1.0000
  C   C443      1.0  0.51631  0.21230  0.12614  1.0000
  C   C444      1.0  0.49804  0.19799  0.12997  1.0000
  C   C445      1.0  0.47548  0.20707  0.13249  1.0000
  H   H770      1.0  0.48580  0.26325  0.12676  1.0000
  H   H771      1.0  0.52550  0.24713  0.12165  1.0000
  H   H772      1.0  0.50138  0.17972  0.13118  1.0000
  H   H773      1.0  0.46168  0.19586  0.13583  1.0000
  C   C446      1.0  0.38408  0.11319  0.34908  1.0000
  C   C447      1.0  0.38225  0.18845  0.01949  1.0000
  C   C448      1.0  0.44839  0.19093  0.05516  1.0000
  H   H774      1.0  0.38304  0.22276  0.03482  1.0000
  C   C449      1.0  0.45426  0.16493  0.05718  1.0000
  H   H775      1.0  0.34253  0.29252  0.14816  1.0000
  H   H776      1.0  0.34800  0.36687  0.09473  1.0000
  H   H777      1.0  0.35392  0.33865  0.10949  1.0000
  C   C450      1.0  0.53974  0.25770  0.19167  1.0000
  H   H778      1.0  0.42978  0.22911  0.02117  1.0000
  H   H779      1.0  0.44630  0.15580  0.03940  1.0000
  H   H780      1.0  0.64337  0.26414  0.23813  1.0000
  H   H781      1.0  0.45277  0.27409  0.04062  1.0000
  C   C451      1.0  0.48191  0.20073  0.02475  1.0000
  H   H782      1.0  0.65286  0.24732  0.19165  1.0000
  H   H783      1.0  0.45322  0.16297  0.10422  1.0000
  C   C452      1.0  0.34192  0.16670  0.22345  1.0000
  H   H784      1.0  0.43468  0.23258  0.07256  1.0000
  H   H785      1.0  0.57384  0.27050  0.19304  1.0000
  H   H786      1.0  0.32819  0.12304  0.32705  1.0000
  H   H787      1.0  0.38024  0.07133  0.37435  1.0000
  H   H788      1.0  0.54535  0.25341  0.25358  1.0000
  C   C453      1.0  0.32519  0.29716  0.14225  1.0000
  H   H789      1.0  0.33526  0.23049  0.00243  1.0000
  C   C454      1.0  0.61898  0.23900  0.23168  1.0000
  H   H790      1.0  0.53137  0.21209  0.06182  1.0000
  H   H791      1.0  0.48854  0.19409  0.21633  1.0000
  C   C455      1.0  0.44727  0.24010  0.05790  1.0000
  C   C456      1.0  0.44025  0.26535  0.05429  1.0000
  C   C457      1.0  0.64449  0.17358  0.20362  1.0000
  C   C458      1.0  0.61857  0.22204  0.99861  1.0000
  H   H792      1.0  0.50306  0.24374  0.21404  1.0000
  S   S108      1.0  0.64208  0.23231  0.10945  1.0000
  H   H793      1.0  0.55519  0.16010  0.16913  1.0000
  C   C459      1.0  0.36156  0.07037  0.37257  1.0000
  H   H794      1.0  0.62290  0.11781  0.08592  1.0000
  C   C460      1.0  0.64765  0.16689  0.23267  1.0000
  H   H795      1.0  0.52258  0.22768  0.30315  1.0000
  H   H796      1.0  0.56476  0.26265  0.15751  1.0000
  C   C461      1.0  0.62947  0.29263  0.07435  1.0000
  H   H797      1.0  0.35040  0.10404  0.38608  1.0000
  H   H798      1.0  0.39628  0.09873  0.34366  1.0000
  C   C462      1.0  0.46427  0.22228  0.21682  1.0000
  H   H799      1.0  0.52656  0.20546  0.25816  1.0000
  C   C463      1.0  0.36047  0.09252  0.31469  1.0000
  H   H800      1.0  0.61797  0.22022  0.23022  1.0000
  H   H801      1.0  0.60824  0.24510  0.25009  1.0000
  S   S109      1.0  0.32872  0.26213  0.10265  1.0000
  N   N26       1.0  0.53093  0.21792  0.21444  1.0000
  H   H802      1.0  0.37719  0.07015  0.26501  1.0000
  C   C464      1.0  0.64152  0.30155  0.15881  1.0000
  H   H803      1.0  0.45515  0.19844  0.07493  1.0000
  H   H804      1.0  0.46232  0.24024  0.22404  1.0000
  H   H805      1.0  0.32893  0.35509  0.12110  1.0000
  C   C465      1.0  0.64351  0.24531  0.23628  1.0000
  H   H806      1.0  0.57825  0.15208  0.19296  1.0000
  H   H807      1.0  0.48998  0.21220  0.24742  1.0000
  C   C466      1.0  0.39326  0.13536  0.33571  1.0000
  C   C467      1.0  0.53627  0.21834  0.24616  1.0000
  H   H808      1.0  0.56525  0.18128  0.22769  1.0000
  C   C468      1.0  0.37025  0.10268  0.28652  1.0000
  H   H809      1.0  0.51522  0.24928  0.25752  1.0000
  C   C469      1.0  0.41872  0.13662  0.34089  1.0000
  H   H810      1.0  0.36162  0.11924  0.28069  1.0000
  H   H811      1.0  0.34945  0.08342  0.25770  1.0000
  H   H812      1.0  0.50343  0.22490  0.18476  1.0000
  H   H813      1.0  0.56414  0.23148  0.20730  1.0000
  H   H814      1.0  0.62031  0.32649  0.18134  1.0000
  C   C470      1.0  0.32962  0.16697  0.35355  1.0000
  C   C471      1.0  0.35006  0.09417  0.36575  1.0000
  H   H815      1.0  0.33202  0.37179  0.02481  1.0000
  H   H816      1.0  0.34291  0.08727  0.31026  1.0000
  C   C472      1.0  0.53545  0.23891  0.29389  1.0000
  H   H817      1.0  0.38470  0.15060  0.34569  1.0000
  H   H818      1.0  0.39042  0.13683  0.31222  1.0000
  H   H819      1.0  0.52788  0.19194  0.18222  1.0000
  C   C473      1.0  0.64609  0.13709  0.05981  1.0000
  H   H820      1.0  0.64918  0.23784  0.25712  1.0000
  C   C474      1.0  0.54702  0.23224  0.19722  1.0000
  H   H821      1.0  0.54943  0.14761  0.20421  1.0000
  H   H822      1.0  0.38871  0.10485  0.28882  1.0000
  H   H823      1.0  0.34879  0.27540  0.19517  1.0000
  H   H824      1.0  0.53318  0.25587  0.30419  1.0000
  C   C475      1.0  0.38245  0.21213  0.01616  1.0000
  H   H825      1.0  0.42830  0.12229  0.33010  1.0000
  H   H826      1.0  0.42468  0.15288  0.33182  1.0000
  H   H827      1.0  0.42237  0.13601  0.36436  1.0000
  H   H828      1.0  0.61139  0.14534  0.07433  1.0000
  C   C476      1.0  0.55903  0.18300  0.20523  1.0000
  H   H829      1.0  0.43952  0.27350  0.07581  1.0000
  H   H830      1.0  0.34362  0.14355  0.18783  1.0000
  H   H831      1.0  0.46105  0.22172  0.19329  1.0000
  H   H832      1.0  0.52787  0.20635  0.02410  1.0000
  H   H833      1.0  0.52534  0.25902  0.17634  1.0000
  C   C477      1.0  0.32681  0.34069  0.07806  1.0000
  H   H834      1.0  0.63528  0.17251  0.24877  1.0000
  H   H835      1.0  0.36129  0.04369  0.40538  1.0000
  C   C478      1.0  0.48799  0.21201  0.22368  1.0000
  C   C479      1.0  0.36761  0.08666  0.26115  1.0000
  H   H836      1.0  0.52412  0.18197  0.21812  1.0000
  C   C480      1.0  0.50657  0.22562  0.20836  1.0000
  H   H837      1.0  0.54976  0.22515  0.17524  1.0000
  H   H838      1.0  0.35157  0.13917  0.31830  1.0000
  C   C481      1.0  0.53427  0.19350  0.20459  1.0000
  H   H839      1.0  0.55340  0.28853  0.17371  1.0000
  C   C482      1.0  0.62696  0.13586  0.08214  1.0000
  H   H840      1.0  0.37093  0.07652  0.31839  1.0000
  H   H841      1.0  0.63997  0.12979  0.03953  1.0000
  C   C483      1.0  0.56045  0.15924  0.19209  1.0000
  H   H842      1.0  0.32416  0.23340  0.20053  1.0000
  H   H843      1.0  0.64471  0.29888  0.03314  1.0000
  H   H844      1.0  0.45124  0.21233  0.22805  1.0000
  C   C484      1.0  0.55916  0.27055  0.17819  1.0000
  C   C485      1.0  0.53249  0.24156  0.26128  1.0000
  H   H845      1.0  0.33179  0.09172  0.36178  1.0000
  C   C486      1.0  0.44540  0.15494  0.08545  1.0000
  H   H846      1.0  0.55273  0.23163  0.29904  1.0000
  H   H847      1.0  0.53421  0.26662  0.21157  1.0000
  H   H848      1.0  0.49035  0.20625  0.07046  1.0000
  H   H849      1.0  0.37428  0.09461  0.24116  1.0000
  C   C487      1.0  0.35256  0.06052  0.40085  1.0000
  N   N27       1.0  0.36026  0.10740  0.34107  1.0000
  H   H850      1.0  0.63211  0.14307  0.10300  1.0000
  H   H851      1.0  0.62040  0.27819  0.06561  1.0000
  H   H852      1.0  0.35451  0.14524  0.37570  1.0000
  H   H853      1.0  0.42956  0.19348  0.05720  1.0000
  H   H854      1.0  0.52329  0.18437  0.05097  1.0000
  C   C488      1.0  0.63680  0.32271  0.17156  1.0000
  C   C489      1.0  0.52119  0.20292  0.04607  1.0000
  H   H855      1.0  0.33775  0.18512  0.26320  1.0000
  H   H856      1.0  0.42663  0.15761  0.08695  1.0000
  S   S110      1.0  0.62000  0.28152  0.16128  1.0000
  C   C490      1.0  0.49622  0.21103  0.04863  1.0000
  H   H857      1.0  0.44969  0.13633  0.08636  1.0000
  C   C491      1.0  0.34475  0.12821  0.33559  1.0000
  H   H858      1.0  0.48765  0.18253  0.02225  1.0000
  H   H859      1.0  0.35779  0.05808  0.35547  1.0000
  C   C492      1.0  0.44625  0.19165  0.00257  1.0000
  H   H860      1.0  0.64096  0.15985  0.00450  1.0000
  H   H861      1.0  0.34224  0.17612  0.34051  1.0000
  H   H862      1.0  0.61760  0.30794  0.07431  1.0000
  C   C493      1.0  0.32904  0.24659  0.01282  1.0000
  H   H863      1.0  0.33404  0.05811  0.39928  1.0000
  H   H864      1.0  0.35168  0.25618  0.22580  1.0000
  H   H865      1.0  0.63769  0.17310  0.05192  1.0000
  N   N28       1.0  0.45640  0.20298  0.02826  1.0000
  C   C494      1.0  0.65334  0.16197  0.05542  1.0000
  H   H866      1.0  0.45765  0.23788  0.01283  1.0000
  H   H867      1.0  0.35560  0.07202  0.41912  1.0000
  H   H868      1.0  0.32440  0.11276  0.21431  1.0000
  C   C495      1.0  0.32695  0.12871  0.22495  1.0000
  H   H869      1.0  0.63439  0.28833  0.09686  1.0000
  C   C496      1.0  0.34220  0.27157  0.21710  1.0000
  H   H870      1.0  0.34533  0.28621  0.23119  1.0000
  C   C497      1.0  0.60810  0.20123  0.00034  1.0000
  H   H871      1.0  0.33866  0.33770  0.05965  1.0000
  C   C498      1.0  0.33450  0.16949  0.25224  1.0000
  H   H872      1.0  0.42811  0.18825  0.00689  1.0000
  H   H873      1.0  0.48730  0.20904  0.00438  1.0000
  H   H874      1.0  0.34374  0.25604  0.02015  1.0000
  H   H875      1.0  0.32634  0.13521  0.37617  1.0000
  H   H876      1.0  0.64962  0.33260  0.06087  1.0000
  C   C499      1.0  0.65047  0.29667  0.05581  1.0000
  H   H877      1.0  0.64883  0.35558  0.18150  1.0000
  H   H878      1.0  0.65514  0.21932  0.20594  1.0000
  C   C500      1.0  0.65305  0.33924  0.17174  1.0000
  H   H879      1.0  0.32359  0.09510  0.47780  1.0000
  H   H880      1.0  0.45484  0.17459  0.99890  1.0000
  H   H881      1.0  0.65250  0.99079  0.23224  1.0000
  C   C501      1.0  0.32284  0.15236  0.26700  1.0000
  Fe  Fe57      1.0  0.36664  0.19242  0.82391  1.0000
  S   S111      1.0  0.38797  0.21554  0.79763  1.0000
  S   S112      1.0  0.34519  0.16536  0.80329  1.0000
  Fe  Fe58      1.0  0.38121  0.21379  0.88195  1.0000
  S   S113      1.0  0.40332  0.23803  0.85824  1.0000
  S   S114      1.0  0.38004  0.22314  0.92976  1.0000
  Fe  Fe59      1.0  0.37397  0.24297  0.82767  1.0000
  S   S115      1.0  0.36106  0.27842  0.81302  1.0000
  Fe  Fe60      1.0  0.41529  0.20835  0.83102  1.0000
  S   S116      1.0  0.45163  0.19313  0.82406  1.0000
  S   S117      1.0  0.35132  0.22021  0.85238  1.0000
  S   S118      1.0  0.39447  0.18368  0.85624  1.0000
  Fe  Fe61      1.0  0.63364  0.23301  0.83427  1.0000
  S   S119      1.0  0.64365  0.19730  0.84867  1.0000
  H   H882      1.0  0.44587  0.18606  0.73840  1.0000
  Fe  Fe62      1.0  0.58522  0.21844  0.82073  1.0000
  S   S120      1.0  0.59340  0.18177  0.83310  1.0000
  S   S121      1.0  0.55009  0.23336  0.80710  1.0000
  Fe  Fe63      1.0  0.61021  0.19691  0.87148  1.0000
  S   S122      1.0  0.60477  0.18209  0.91652  1.0000
  Fe  Fe64      1.0  0.62655  0.18556  0.80877  1.0000
  H   H883      1.0  0.34140  0.25636  0.95996  1.0000
  S   S123      1.0  0.60096  0.23338  0.86018  1.0000
  S   S124      1.0  0.61730  0.22130  0.79358  1.0000
  C   C502      1.0  0.40648  0.15142  0.77710  1.0000
  C   C503      1.0  0.63867  0.15657  0.72719  1.0000
  H   H884      1.0  0.35202  0.19105  0.74900  1.0000
  H   H885      1.0  0.62230  0.16437  0.73311  1.0000
  C   C504      1.0  0.32491  0.15210  0.70860  1.0000
  C   C505      1.0  0.35144  0.27793  0.90778  1.0000
  C   C506      1.0  0.60384  0.18923  0.97499  1.0000
  C   C507      1.0  0.60993  0.19794  0.94777  1.0000
  C   C508      1.0  0.62036  0.21875  0.94610  1.0000
  H   H886      1.0  0.41905  0.16033  0.78988  1.0000
  C   C509      1.0  0.63745  0.27871  0.74850  1.0000
  C   C510      1.0  0.47876  0.20491  0.81967  1.0000
  C   C511      1.0  0.48128  0.22778  0.81210  1.0000
  C   C512      1.0  0.50317  0.23596  0.80758  1.0000
  C   C513      1.0  0.52287  0.22164  0.81133  1.0000
  C   C514      1.0  0.52033  0.19884  0.81918  1.0000
  C   C515      1.0  0.49844  0.19052  0.82304  1.0000
  H   H887      1.0  0.46636  0.23903  0.80913  1.0000
  H   H888      1.0  0.50486  0.25360  0.80136  1.0000
  H   H889      1.0  0.53524  0.18753  0.82190  1.0000
  H   H890      1.0  0.49674  0.17276  0.82866  1.0000
  N   N29       1.0  0.41287  0.15072  0.74549  1.0000
  H   H891      1.0  0.64773  0.43246  0.78362  1.0000
  C   C516      1.0  0.43618  0.13950  0.74010  1.0000
  H   H892      1.0  0.53295  0.16906  0.87413  1.0000
  C   C517      1.0  0.38139  0.17502  0.99462  1.0000
  H   H893      1.0  0.55127  0.25122  0.98732  1.0000
  C   C518      1.0  0.34290  0.17606  0.74421  1.0000
  H   H894      1.0  0.38734  0.13962  0.83148  1.0000
  C   C519      1.0  0.44230  0.18979  0.94791  1.0000
  H   H895      1.0  0.64080  0.05810  0.65787  1.0000
  C   C520      1.0  0.38088  0.20888  0.96370  1.0000
  H   H896      1.0  0.46086  0.27095  0.91406  1.0000
  C   C521      1.0  0.38053  0.18517  0.96682  1.0000
  C   C522      1.0  0.33788  0.35772  0.98284  1.0000
  H   H897      1.0  0.37969  0.17467  0.94789  1.0000
  C   C523      1.0  0.48241  0.24421  0.89389  1.0000
  H   H898      1.0  0.61014  0.45589  0.78310  1.0000
  H   H899      1.0  0.39688  0.11901  0.73735  1.0000
  C   C524      1.0  0.39534  0.13724  0.73045  1.0000
  C   C525      1.0  0.53089  0.27544  0.88013  1.0000
  H   H900      1.0  0.52081  0.24433  0.86045  1.0000
  H   H901      1.0  0.34770  0.37236  0.97539  1.0000
  C   C526      1.0  0.54641  0.17397  0.88911  1.0000
  H   H902      1.0  0.59580  0.17310  0.97642  1.0000
  C   C527      1.0  0.32821  0.31330  0.81848  1.0000
  C   C528      1.0  0.33722  0.16115  0.76664  1.0000
  H   H903      1.0  0.39037  0.16188  0.78019  1.0000
  H   H904      1.0  0.54301  0.28112  0.89638  1.0000
  H   H905      1.0  0.55901  0.22209  0.99726  1.0000
  H   H906      1.0  0.45057  0.13174  0.78305  1.0000
  H   H907      1.0  0.56290  0.16602  0.88167  1.0000
  C   C529      1.0  0.62474  0.23067  0.97143  1.0000
  H   H908      1.0  0.45520  0.16002  0.77113  1.0000
  H   H909      1.0  0.65218  0.33504  0.81619  1.0000
  C   C530      1.0  0.32864  0.27005  0.96609  1.0000
  C   C531      1.0  0.33409  0.29016  0.82407  1.0000
  H   H910      1.0  0.53697  0.30477  0.85265  1.0000
  H   H911      1.0  0.44317  0.14569  0.71920  1.0000
  C   C532      1.0  0.38168  0.11907  0.68469  1.0000
  H   H912      1.0  0.42618  0.18111  0.95115  1.0000
  H   H913      1.0  0.40603  0.22188  0.73772  1.0000
  H   H914      1.0  0.37787  0.14336  0.73695  1.0000
  H   H915      1.0  0.64414  0.38808  0.86046  1.0000
  H   H916      1.0  0.55496  0.27984  0.84469  1.0000
  H   H917      1.0  0.34020  0.32371  0.80733  1.0000
  C   C533      1.0  0.63639  0.45593  0.81602  1.0000
  H   H918      1.0  0.62527  0.22555  0.92530  1.0000
  C   C534      1.0  0.61740  0.46791  0.79841  1.0000
  H   H919      1.0  0.43559  0.22722  0.74215  1.0000
  C   C535      1.0  0.54174  0.22596  0.95608  1.0000
  H   H920      1.0  0.49664  0.23401  0.93488  1.0000
  C   C536      1.0  0.40242  0.12905  0.82427  1.0000
  C   C537      1.0  0.33029  0.29130  0.92002  1.0000
  C   C538      1.0  0.47807  0.13451  0.75298  1.0000
  H   H921      1.0  0.54002  0.25921  0.93586  1.0000
  H   H922      1.0  0.37422  0.30607  0.90659  1.0000
  H   H923      1.0  0.49054  0.13621  0.77055  1.0000
  C   C539      1.0  0.40290  0.12780  0.79143  1.0000
  H   H924      1.0  0.56177  0.20382  0.90420  1.0000
  H   H925      1.0  0.36174  0.26943  0.92496  1.0000
  H   H926      1.0  0.46335  0.21272  0.96946  1.0000
  C   C540      1.0  0.42829  0.19145  0.74499  1.0000
  H   H927      1.0  0.54744  0.20812  0.95105  1.0000
  C   C541      1.0  0.32514  0.14187  0.75981  1.0000
  H   H928      1.0  0.50215  0.26227  0.92477  1.0000
  H   H929      1.0  0.41813  0.13632  0.83243  1.0000
  H   H930      1.0  0.41445  0.17466  0.70961  1.0000
  H   H931      1.0  0.35752  0.30350  0.87434  1.0000
  H   H932      1.0  0.39375  0.18233  0.73645  1.0000
  H   H933      1.0  0.41642  0.11502  0.78493  1.0000
  H   H934      1.0  0.36390  0.12120  0.69273  1.0000
  C   C542      1.0  0.54231  0.24124  0.92860  1.0000
  H   H935      1.0  0.42733  0.19255  0.76876  1.0000
  C   C543      1.0  0.44682  0.20509  0.97344  1.0000
  H   H936      1.0  0.62392  0.48262  0.78617  1.0000
  C   C544      1.0  0.50189  0.24466  0.91625  1.0000
  H   H937      1.0  0.62105  0.27075  0.74479  1.0000
  H   H938      1.0  0.34172  0.18293  0.69829  1.0000
  C   C545      1.0  0.41130  0.17469  0.73326  1.0000
  H   H939      1.0  0.44626  0.25247  0.89063  1.0000
  H   H940      1.0  0.54285  0.16723  0.91107  1.0000
  C   C546      1.0  0.52486  0.21152  0.89926  1.0000
  H   H941      1.0  0.48324  0.14531  0.73446  1.0000
  H   H942      1.0  0.43344  0.21914  0.97342  1.0000
  H   H943      1.0  0.48004  0.22665  0.88635  1.0000
  H   H944      1.0  0.38116  0.28370  0.88126  1.0000
  H   H945      1.0  0.42610  0.21556  0.70882  1.0000
  H   H946      1.0  0.45501  0.24225  0.92571  1.0000
  H   H947      1.0  0.54927  0.24368  0.87167  1.0000
  C   C547      1.0  0.36696  0.29386  0.89156  1.0000
  C   C548      1.0  0.53168  0.24907  0.87851  1.0000
  H   H948      1.0  0.64258  0.46859  0.83119  1.0000
  C   C549      1.0  0.45982  0.25303  0.90704  1.0000
  H   H949      1.0  0.57497  0.23618  0.96980  1.0000
  H   H950      1.0  0.32829  0.35153  0.96421  1.0000
  H   H951      1.0  0.52551  0.28120  0.83407  1.0000
  H   H952      1.0  0.55242  0.20565  0.86759  1.0000
  H   H953      1.0  0.51292  0.20853  0.88144  1.0000
  C   C550      1.0  0.54782  0.19986  0.88964  1.0000
  N   N30       1.0  0.52520  0.23660  0.90566  1.0000
  H   H954      1.0  0.41380  0.13453  0.68883  1.0000
  H   H955      1.0  0.43513  0.12077  0.73736  1.0000
  H   H956      1.0  0.38631  0.12148  0.78475  1.0000
  H   H957      1.0  0.38910  0.15409  0.68854  1.0000
  H   H958      1.0  0.63999  0.15439  0.95045  1.0000
  H   H959      1.0  0.48578  0.25511  0.87479  1.0000
  H   H960      1.0  0.47846  0.11640  0.74632  1.0000
  H   H961      1.0  0.38871  0.10180  0.69080  1.0000
  H   H962      1.0  0.38145  0.12050  0.66079  1.0000
  C   C551      1.0  0.45439  0.14226  0.76376  1.0000
  C   C552      1.0  0.42363  0.21546  0.73259  1.0000
  H   H963      1.0  0.55996  0.23981  0.91966  1.0000
  H   H964      1.0  0.40109  0.11168  0.83363  1.0000
  H   H965      1.0  0.51819  0.20200  0.91816  1.0000
  H   H966      1.0  0.33628  0.06726  0.56625  1.0000
  C   C553      1.0  0.39616  0.13745  0.69700  1.0000
  C   C554      1.0  0.53749  0.28590  0.85110  1.0000
  H   H967      1.0  0.52445  0.22589  0.96563  1.0000
  H   H968      1.0  0.51362  0.28244  0.88577  1.0000
  H   H969      1.0  0.62973  0.15198  0.68261  1.0000
  C   C555      1.0  0.33695  0.17143  0.71543  1.0000
  H   H970      1.0  0.33624  0.30674  0.93083  1.0000
  H   H971      1.0  0.62869  0.44194  0.82832  1.0000
  H   H972      1.0  0.44082  0.20021  0.92779  1.0000
  H   H973      1.0  0.45641  0.17671  0.94515  1.0000
  H   H974      1.0  0.64289  0.28751  0.72847  1.0000
  C   C556      1.0  0.65554  0.26068  0.75797  1.0000
  C   C557      1.0  0.32614  0.05184  0.56688  1.0000
  H   H975      1.0  0.60362  0.47438  0.81311  1.0000
  H   H976      1.0  0.33891  0.28386  0.97457  1.0000
  C   C558      1.0  0.38192  0.22222  0.98851  1.0000
  H   H977      1.0  0.63484  0.29162  0.76569  1.0000
  H   H978      1.0  0.38218  0.24055  0.98638  1.0000
  C   C559      1.0  0.64291  0.14942  0.69857  1.0000
  H   H979      1.0  0.33656  0.03739  0.55761  1.0000
  H   H980      1.0  0.64016  0.29516  0.82148  1.0000
  H   H981      1.0  0.34620  0.26514  0.89210  1.0000
  H   H982      1.0  0.64217  0.08782  0.78304  1.0000
  C   C560      1.0  0.55768  0.23444  0.97897  1.0000
  H   H983      1.0  0.63294  0.24671  0.96990  1.0000
  H   H984      1.0  0.64965  0.25326  0.77859  1.0000
  H   H985      1.0  0.33382  0.23666  0.91694  1.0000
  H   H986      1.0  0.65115  0.43008  0.86292  1.0000
  H   H987      1.0  0.65107  0.08231  0.63847  1.0000
  H   H988      1.0  0.38131  0.15667  0.99686  1.0000
  C   C561      1.0  0.65536  0.15289  0.74822  1.0000
  H   H989      1.0  0.35006  0.34395  0.99050  1.0000
  S   S125      1.0  0.65053  0.15973  0.78515  1.0000
  H   H990      1.0  0.64423  0.23079  0.73673  1.0000
  H   H991      1.0  0.65330  0.39696  0.89539  1.0000
  H   H992      1.0  0.65511  0.06756  0.73651  1.0000
  C   C562      1.0  0.65554  0.44603  0.79610  1.0000
  Fe  Fe65      1.0  0.37810  0.74600  0.09183  1.0000
  S   S126      1.0  0.39469  0.71688  0.11694  1.0000
  S   S127      1.0  0.38474  0.73750  0.04450  1.0000
  Fe  Fe66      1.0  0.36124  0.76893  0.14805  1.0000
  S   S128      1.0  0.37706  0.74101  0.17576  1.0000
  S   S129      1.0  0.33923  0.79879  0.16654  1.0000
  Fe  Fe67      1.0  0.40772  0.74307  0.14634  1.0000
  S   S130      1.0  0.44390  0.73612  0.16333  1.0000
  Fe  Fe68      1.0  0.36286  0.71735  0.14353  1.0000
  S   S131      1.0  0.34805  0.68364  0.15612  1.0000
  S   S132      1.0  0.39287  0.77255  0.12007  1.0000
  S   S133      1.0  0.34530  0.74495  0.11713  1.0000
  Fe  Fe69      1.0  0.61857  0.73436  0.15351  1.0000
  H   H993      1.0  0.33474  0.73360  0.05872  1.0000
  S   S134      1.0  0.63278  0.70065  0.17238  1.0000
  Fe  Fe70      1.0  0.57749  0.76824  0.14418  1.0000
  S   S135      1.0  0.59935  0.79246  0.11936  1.0000
  S   S136      1.0  0.53984  0.78085  0.14561  1.0000
  Fe  Fe71      1.0  0.61399  0.76121  0.09686  1.0000
  S   S137      1.0  0.61947  0.75106  0.04965  1.0000
  Fe  Fe72      1.0  0.62546  0.78540  0.15441  1.0000
  C   C563      1.0  0.33482  0.80024  0.25482  1.0000
  S   S138      1.0  0.59116  0.73748  0.12010  1.0000
  S   S139      1.0  0.60287  0.76309  0.18045  1.0000
  C   C564      1.0  0.61144  0.76531  0.01711  1.0000
  H   H994      1.0  0.35933  0.84854  0.18615  1.0000
  H   H995      1.0  0.40747  0.80690  0.26322  1.0000
  H   H996      1.0  0.60091  0.79733  0.03621  1.0000
  H   H997      1.0  0.49524  0.73304  0.06159  1.0000
  H   H998      1.0  0.45759  0.78437  0.20046  1.0000
  C   C565      1.0  0.61910  0.88410  0.21342  1.0000
  H   H999      1.0  0.52321  0.78279  0.08909  1.0000
  H   H1000     1.0  0.38168  0.70862  0.24864  1.0000
  C   C566      1.0  0.54994  0.74378  0.01502  1.0000
  H   H1001     1.0  0.51588  0.79151  0.05351  1.0000
  H   H1002     1.0  0.43266  0.74428  0.26181  1.0000
  H   H1003     1.0  0.65217  0.95567  0.34281  1.0000
  H   H1004     1.0  0.56353  0.75386  0.02382  1.0000
  C   C567      1.0  0.64301  0.98011  0.21738  1.0000
  C   C568      1.0  0.47044  0.74802  0.15504  1.0000
  C   C569      1.0  0.47193  0.77021  0.14410  1.0000
  C   C570      1.0  0.49331  0.77986  0.14125  1.0000
  C   C571      1.0  0.51352  0.76729  0.14845  1.0000
  C   C572      1.0  0.51208  0.74483  0.15832  1.0000
  C   C573      1.0  0.49066  0.73542  0.16198  1.0000
  H   H1005     1.0  0.45658  0.78023  0.13893  1.0000
  H   H1006     1.0  0.49419  0.79728  0.13368  1.0000
  H   H1007     1.0  0.52741  0.73497  0.16411  1.0000
  H   H1008     1.0  0.48974  0.71831  0.17069  1.0000
  H   H1009     1.0  0.49823  0.77746  0.20995  1.0000
  H   H1010     1.0  0.42932  0.79011  0.30218  1.0000
  H   H1011     1.0  0.55703  0.70288  0.11061  1.0000
  H   H1012     1.0  0.35710  0.77938  0.03185  1.0000
  C   C574      1.0  0.33623  0.90807  0.33123  1.0000
  C   C575      1.0  0.53941  0.73968  0.07639  1.0000
  C   C576      1.0  0.48661  0.78301  0.22781  1.0000
  C   C577      1.0  0.34116  0.79375  0.22650  1.0000
  H   H1013     1.0  0.35127  0.90303  0.34452  1.0000
  H   H1014     1.0  0.35513  0.78148  0.22300  1.0000
  H   H1015     1.0  0.62510  0.82645  0.27403  1.0000
  H   H1016     1.0  0.42868  0.74315  0.22429  1.0000
  H   H1017     1.0  0.34971  0.64970  0.05085  1.0000
  H   H1018     1.0  0.63318  0.92724  0.27730  1.0000
  H   H1019     1.0  0.63846  0.57163  0.12743  1.0000
  H   H1020     1.0  0.61715  0.91596  0.23562  1.0000
  H   H1021     1.0  0.32638  0.92064  0.21121  1.0000
  H   H1022     1.0  0.62757  0.94991  0.32186  1.0000
  H   H1023     1.0  0.34411  0.79287  0.27295  1.0000
  C   C578      1.0  0.39876  0.71529  0.24484  1.0000
  H   H1024     1.0  0.34128  0.87924  0.30351  1.0000
  C   C579      1.0  0.64570  0.58513  0.11354  1.0000
  C   C580      1.0  0.35891  0.85491  0.20863  1.0000
  H   H1025     1.0  0.51447  0.73816  0.01948  1.0000
  H   H1026     1.0  0.62860  0.61268  0.13906  1.0000
  C   C581      1.0  0.32978  0.80366  0.20276  1.0000
  C   C582      1.0  0.35350  0.92783  0.24058  1.0000
  C   C583      1.0  0.65237  0.82151  0.20899  1.0000
  H   H1027     1.0  0.35952  0.94282  0.19805  1.0000
  N   N31       1.0  0.42158  0.77671  0.24199  1.0000
  H   H1028     1.0  0.64409  0.92672  0.33877  1.0000
  H   H1029     1.0  0.56996  0.70163  0.07497  1.0000
  H   H1030     1.0  0.33441  0.92698  0.33009  1.0000
  H   H1031     1.0  0.62461  0.89145  0.25788  1.0000
  C   C584      1.0  0.36020  0.94763  0.22112  1.0000
  H   H1032     1.0  0.37782  0.95210  0.22600  1.0000
  H   H1033     1.0  0.34852  0.70457  0.00644  1.0000
  C   C585      1.0  0.63833  0.82825  0.25797  1.0000
  H   H1034     1.0  0.62067  0.89204  0.19169  1.0000
  H   H1035     1.0  0.63061  0.95857  0.25083  1.0000
  H   H1036     1.0  0.32674  0.73813  0.02174  1.0000
  H   H1037     1.0  0.60096  0.88083  0.21753  1.0000
  H   H1038     1.0  0.52017  0.76717  0.01466  1.0000
  H   H1039     1.0  0.36920  0.66803  0.03244  1.0000
  C   C586      1.0  0.32312  0.67408  0.14030  1.0000
  H   H1040     1.0  0.64392  0.57917  0.09114  1.0000
  C   C587      1.0  0.40684  0.78806  0.26493  1.0000
  H   H1041     1.0  0.35328  0.88157  0.25317  1.0000
  C   C588      1.0  0.33616  0.87975  0.24414  1.0000
  H   H1042     1.0  0.35501  0.90427  0.29185  1.0000
  S   S140      1.0  0.64217  0.75632  0.12923  1.0000
  H   H1043     1.0  0.35634  0.84027  0.22343  1.0000
  C   C589      1.0  0.42135  0.75104  0.24427  1.0000
  S   S141      1.0  0.64935  0.81135  0.17313  1.0000
  C   C590      1.0  0.65331  0.90357  0.23261  1.0000
  H   H1044     1.0  0.60584  0.59782  0.08348  1.0000
  C   C591      1.0  0.39774  0.74105  0.24940  1.0000
  H   H1045     1.0  0.43035  0.81606  0.20762  1.0000
  H   H1046     1.0  0.34397  0.88796  0.19846  1.0000
  C   C592      1.0  0.45693  0.75788  0.06222  1.0000
  H   H1047     1.0  0.59849  0.58902  0.11985  1.0000
  H   H1048     1.0  0.38845  0.80877  0.17060  1.0000
  H   H1049     1.0  0.53073  0.70845  0.05366  1.0000
  H   H1050     1.0  0.44623  0.80240  0.24820  1.0000
  C   C593      1.0  0.62760  0.89979  0.23660  1.0000
  H   H1051     1.0  0.38478  0.74890  0.23480  1.0000
  H   H1052     1.0  0.45430  0.75513  0.08576  1.0000
  H   H1053     1.0  0.40011  0.78658  0.34002  1.0000
  H   H1054     1.0  0.48711  0.80180  0.22974  1.0000
  H   H1055     1.0  0.41091  0.70661  0.26004  1.0000
  H   H1056     1.0  0.37870  0.78222  0.31344  1.0000
  H   H1057     1.0  0.41785  0.80549  0.15895  1.0000
  H   H1058     1.0  0.38663  0.64780  0.07437  1.0000
  H   H1059     1.0  0.59488  0.61854  0.10905  1.0000
  H   H1060     1.0  0.40116  0.81986  0.21929  1.0000
  C   C594      1.0  0.34205  0.68674  0.05612  1.0000
  H   H1061     1.0  0.42145  0.77416  0.19532  1.0000
  H   H1062     1.0  0.39180  0.80936  0.31529  1.0000
  H   H1063     1.0  0.45499  0.74152  0.05095  1.0000
  H   H1064     1.0  0.38866  0.78458  0.26156  1.0000
  H   H1065     1.0  0.39170  0.74420  0.27179  1.0000
  C   C595      1.0  0.46255  0.77618  0.22127  1.0000
  H   H1066     1.0  0.33469  0.68569  0.07826  1.0000
  C   C596      1.0  0.37505  0.66310  0.07744  1.0000
  H   H1067     1.0  0.35302  0.70153  0.05619  1.0000
  H   H1068     1.0  0.55482  0.78883  0.03653  1.0000
  H   H1069     1.0  0.55017  0.68076  0.08616  1.0000
  C   C597      1.0  0.35868  0.66576  0.05211  1.0000
  N   N32       1.0  0.52353  0.75520  0.05880  1.0000
  H   H1070     1.0  0.63614  0.62112  0.10285  1.0000
  C   C598      1.0  0.63593  0.81855  0.23048  1.0000
  H   H1071     1.0  0.45283  0.77625  0.26606  1.0000
  C   C599      1.0  0.33910  0.89810  0.30110  1.0000
  C   C600      1.0  0.41309  0.80973  0.20526  1.0000
  H   H1072     1.0  0.40408  0.71118  0.22236  1.0000
  C   C601      1.0  0.44568  0.78362  0.24566  1.0000
  C   C602      1.0  0.39483  0.79060  0.31751  1.0000
  C   C603      1.0  0.41246  0.78395  0.21279  1.0000
  C   C604      1.0  0.55417  0.69898  0.08759  1.0000
  C   C605      1.0  0.36097  0.77060  0.01189  1.0000
  C   C606      1.0  0.52746  0.77968  0.06601  1.0000
  C   C607      1.0  0.37374  0.74989  0.01234  1.0000
  H   H1073     1.0  0.62102  0.80934  0.22566  1.0000
  H   H1074     1.0  0.54099  0.82432  0.06065  1.0000
  H   H1075     1.0  0.36559  0.66102  0.09808  1.0000
  H   H1076     1.0  0.65216  0.97897  0.19635  1.0000
  H   H1077     1.0  0.57083  0.81808  0.06660  1.0000
  H   H1078     1.0  0.37551  0.86209  0.21335  1.0000
  H   H1079     1.0  0.55074  0.81274  0.09501  1.0000
  H   H1080     1.0  0.41615  0.76335  0.30004  1.0000
  H   H1081     1.0  0.48076  0.78377  0.06695  1.0000
  C   C608      1.0  0.62991  0.60700  0.11635  1.0000
  C   C609      1.0  0.55353  0.81230  0.07128  1.0000
  H   H1082     1.0  0.49286  0.77469  0.24806  1.0000
  C   C610      1.0  0.55151  0.78812  0.06009  1.0000
  H   H1083     1.0  0.40589  0.83303  0.16943  1.0000
  C   C611      1.0  0.41338  0.78196  0.29652  1.0000
  H   H1084     1.0  0.46317  0.75742  0.21862  1.0000
  H   H1085     1.0  0.56489  0.77715  0.07072  1.0000
  H   H1086     1.0  0.44349  0.77035  0.05443  1.0000
  H   H1087     1.0  0.65311  0.70572  0.11535  1.0000
  H   H1088     1.0  0.55407  0.72570  0.02095  1.0000
  C   C612      1.0  0.48038  0.76699  0.05619  1.0000
  C   C613      1.0  0.60583  0.60271  0.10654  1.0000
  C   C614      1.0  0.52595  0.75142  0.02667  1.0000
  H   H1089     1.0  0.49802  0.75059  0.09210  1.0000
  C   C615      1.0  0.65162  0.92328  0.27993  1.0000
  C   C616      1.0  0.40587  0.81446  0.17414  1.0000
  H   H1090     1.0  0.38550  0.67823  0.07880  1.0000
  H   H1091     1.0  0.39446  0.77956  0.21081  1.0000
  H   H1092     1.0  0.53884  0.74487  0.09945  1.0000
  C   C617      1.0  0.64036  0.95636  0.23043  1.0000
  H   H1093     1.0  0.32954  0.86468  0.25573  1.0000
  H   H1094     1.0  0.34868  0.96291  0.22480  1.0000
  C   C618      1.0  0.60276  0.78791  0.01637  1.0000
  C   C619      1.0  0.53438  0.71399  0.07583  1.0000
  H   H1095     1.0  0.35514  0.93353  0.26313  1.0000
  H   H1096     1.0  0.51932  0.71083  0.08963  1.0000
  H   H1097     1.0  0.55736  0.74137  0.06978  1.0000
  H   H1098     1.0  0.36581  0.91335  0.23634  1.0000
  C   C620      1.0  0.49953  0.75047  0.06811  1.0000
  H   H1099     1.0  0.48228  0.76956  0.03257  1.0000
  C   C621      1.0  0.33963  0.87314  0.21204  1.0000
  H   H1100     1.0  0.63040  0.94668  0.21504  1.0000
  C   C622      1.0  0.32876  0.92167  0.23494  1.0000
  H   H1101     1.0  0.33078  0.63902  0.15240  1.0000
  C   C623      1.0  0.64500  0.94350  0.32764  1.0000
  H   H1102     1.0  0.62598  0.98859  0.21374  1.0000
  H   H1103     1.0  0.39302  0.81685  0.01188  1.0000
  H   H1104     1.0  0.32873  0.91759  0.40927  1.0000
  H   H1105     1.0  0.62895  0.86748  0.21375  1.0000
  H   H1106     1.0  0.65287  0.90646  0.29145  1.0000
  N   N33       1.0  0.32326  0.69021  0.03431  1.0000
  C   C624      1.0  0.33285  0.69485  0.00459  1.0000
  H   H1107     1.0  0.32396  0.86609  0.20350  1.0000
  Fe  Fe73      1.0  0.35460  0.77615  0.81699  1.0000
  S   S142      1.0  0.37499  0.74342  0.80581  1.0000
  H   H1108     1.0  0.55774  0.93187  0.77841  1.0000
  Fe  Fe74      1.0  0.36112  0.76841  0.88224  1.0000
  S   S143      1.0  0.38151  0.73600  0.87540  1.0000
  S   S144      1.0  0.35208  0.78328  0.92625  1.0000
  Fe  Fe75      1.0  0.39971  0.75426  0.83978  1.0000
  S   S145      1.0  0.43791  0.74562  0.84611  1.0000
  Fe  Fe76      1.0  0.35561  0.72751  0.84249  1.0000
  C   C625      1.0  0.32825  0.83919  0.70279  1.0000
  S   S146      1.0  0.38048  0.78778  0.84876  1.0000
  S   S147      1.0  0.33398  0.75909  0.85165  1.0000
  Fe  Fe77      1.0  0.59737  0.78373  0.88683  1.0000
  S   S148      1.0  0.57743  0.75403  0.87406  1.0000
  S   S149      1.0  0.59251  0.80048  0.93068  1.0000
  Fe  Fe78      1.0  0.62008  0.78760  0.82628  1.0000
  S   S150      1.0  0.60160  0.75790  0.80947  1.0000
  H   H1109     1.0  0.58329  0.84170  0.72465  1.0000
  Fe  Fe79      1.0  0.57052  0.77321  0.83271  1.0000
  S   S151      1.0  0.53616  0.77903  0.81047  1.0000
  Fe  Fe80      1.0  0.61002  0.74123  0.85239  1.0000
  H   H1110     1.0  0.55269  0.91747  0.74517  1.0000
  S   S152      1.0  0.58851  0.80406  0.84660  1.0000
  S   S153      1.0  0.63032  0.76975  0.86800  1.0000
  C   C626      1.0  0.65497  0.81513  0.76763  1.0000
  H   H1111     1.0  0.63296  0.90375  0.71581  1.0000
  H   H1112     1.0  0.34495  0.69535  0.94716  1.0000
  H   H1113     1.0  0.34091  0.90225  0.65133  1.0000
  H   H1114     1.0  0.45861  0.73926  0.94301  1.0000
  H   H1115     1.0  0.42186  0.82218  0.89162  1.0000
  C   C627      1.0  0.63321  0.88668  0.70577  1.0000
  H   H1116     1.0  0.51566  0.77840  0.93424  1.0000
  C   C628      1.0  0.44652  0.81307  0.85897  1.0000
  H   H1117     1.0  0.33266  0.90016  0.79376  1.0000
  H   H1118     1.0  0.64109  0.80596  0.69757  1.0000
  C   C629      1.0  0.59980  0.78658  0.96372  1.0000
  C   C630      1.0  0.60828  0.76394  0.96451  1.0000
  H   H1119     1.0  0.62157  0.66241  0.94842  1.0000
  H   H1120     1.0  0.61022  0.75461  0.94463  1.0000
  C   C631      1.0  0.46480  0.75607  0.83629  1.0000
  C   C632      1.0  0.46779  0.77054  0.81253  1.0000
  C   C633      1.0  0.48967  0.77764  0.80522  1.0000
  C   C634      1.0  0.50879  0.77061  0.82168  1.0000
  C   C635      1.0  0.50571  0.75655  0.84580  1.0000
  C   C636      1.0  0.48392  0.74912  0.85281  1.0000
  H   H1121     1.0  0.45332  0.77596  0.79952  1.0000
  H   H1122     1.0  0.49182  0.78850  0.78650  1.0000
  H   H1123     1.0  0.52013  0.75129  0.85893  1.0000
  H   H1124     1.0  0.48186  0.73790  0.87119  1.0000
  H   H1125     1.0  0.41008  0.75821  0.92946  1.0000
  C   C637      1.0  0.43168  0.71738  0.93426  1.0000
  H   H1126     1.0  0.42832  0.79865  0.99059  1.0000
  C   C638      1.0  0.34887  0.81337  0.73668  1.0000
  H   H1127     1.0  0.35786  0.92534  0.66260  1.0000
  H   H1128     1.0  0.36360  0.80234  0.74165  1.0000
  C   C639      1.0  0.35920  0.76934  0.95920  1.0000
  H   H1129     1.0  0.47888  0.76466  0.91933  1.0000
  C   C640      1.0  0.37106  0.74814  0.95986  1.0000
  C   C641      1.0  0.50030  0.78205  0.94785  1.0000
  H   H1130     1.0  0.37492  0.73930  0.93996  1.0000
  C   C642      1.0  0.39717  0.81920  0.98865  1.0000
  H   H1131     1.0  0.65175  0.91734  0.60067  1.0000
  H   H1132     1.0  0.33573  0.78182  0.60067  1.0000
  H   H1133     1.0  0.50169  0.79907  0.95767  1.0000
  H   H1134     1.0  0.44358  0.70313  0.92752  1.0000
  C   C643      1.0  0.59879  0.85203  0.79435  1.0000
  H   H1135     1.0  0.63670  0.67719  0.76638  1.0000
  S   S154      1.0  0.34377  0.69142  0.84937  1.0000
  H   H1136     1.0  0.63172  0.79334  0.74753  1.0000
  C   C644      1.0  0.64438  0.80578  0.74398  1.0000
  H   H1137     1.0  0.44701  0.83105  0.85147  1.0000
  C   C645      1.0  0.61295  0.87347  0.71624  1.0000
  H   H1138     1.0  0.64959  0.73931  0.93873  1.0000
  H   H1139     1.0  0.65232  0.69357  0.91041  1.0000
  C   C646      1.0  0.41229  0.79897  0.97826  1.0000
  H   H1140     1.0  0.49984  0.76883  0.96513  1.0000
  H   H1141     1.0  0.42454  0.75746  0.96302  1.0000
  C   C647      1.0  0.61688  0.85977  0.84273  1.0000
  H   H1142     1.0  0.34105  0.92823  0.63034  1.0000
  H   H1143     1.0  0.53747  0.73630  0.97207  1.0000
  H   H1144     1.0  0.62311  0.71424  0.93948  1.0000
  H   H1145     1.0  0.62928  0.85534  0.75156  1.0000
  H   H1146     1.0  0.58281  0.85222  0.80739  1.0000
  C   C648      1.0  0.33835  0.67401  0.98500  1.0000
  H   H1147     1.0  0.56394  0.80475  0.72061  1.0000
  H   H1148     1.0  0.45829  0.80595  0.95308  1.0000
  N   N34       1.0  0.56129  0.69551  0.79940  1.0000
  C   C649      1.0  0.56889  0.69802  0.83011  1.0000
  C   C650      1.0  0.58121  0.69893  0.77936  1.0000
  C   C651      1.0  0.54369  0.71457  0.79322  1.0000
  C   C652      1.0  0.55099  0.67289  0.79408  1.0000
  C   C653      1.0  0.56054  0.65198  0.81185  1.0000
  C   C654      1.0  0.54968  0.69890  0.85324  1.0000
  C   C655      1.0  0.53475  0.71620  0.76180  1.0000
  C   C656      1.0  0.60215  0.68209  0.78257  1.0000
  C   C657      1.0  0.62189  0.68949  0.76364  1.0000
  C   C658      1.0  0.55181  0.62980  0.80042  1.0000
  C   C659      1.0  0.55882  0.69302  0.88332  1.0000
  C   C660      1.0  0.51438  0.73324  0.75920  1.0000
  H   H1149     1.0  0.57817  0.71394  0.83225  1.0000
  H   H1150     1.0  0.58145  0.68421  0.83635  1.0000
  H   H1151     1.0  0.57607  0.69754  0.75649  1.0000
  H   H1152     1.0  0.58712  0.71652  0.78173  1.0000
  H   H1153     1.0  0.55049  0.73139  0.79850  1.0000
  H   H1154     1.0  0.52849  0.71293  0.80735  1.0000
  H   H1155     1.0  0.53237  0.67406  0.79867  1.0000
  H   H1156     1.0  0.55249  0.66857  0.77079  1.0000
  H   H1157     1.0  0.55505  0.65339  0.83473  1.0000
  H   H1158     1.0  0.57930  0.65041  0.81159  1.0000
  H   H1159     1.0  0.54165  0.71639  0.85392  1.0000
  H   H1160     1.0  0.53622  0.68706  0.84828  1.0000
  H   H1161     1.0  0.52937  0.69945  0.75437  1.0000
  H   H1162     1.0  0.54807  0.72222  0.74689  1.0000
  H   H1163     1.0  0.60842  0.68100  0.80499  1.0000
  H   H1164     1.0  0.59792  0.66491  0.77533  1.0000
  H   H1165     1.0  0.61707  0.68997  0.74054  1.0000
  H   H1166     1.0  0.62714  0.70661  0.77000  1.0000
  C   C661      1.0  0.37853  0.73862  0.98627  1.0000
  H   H1167     1.0  0.55838  0.61524  0.81398  1.0000
  H   H1168     1.0  0.53295  0.63027  0.80114  1.0000
  H   H1169     1.0  0.55775  0.62693  0.77789  1.0000
  H   H1170     1.0  0.54487  0.69500  0.89949  1.0000
  H   H1171     1.0  0.56588  0.67513  0.88417  1.0000
  H   H1172     1.0  0.57239  0.70453  0.88912  1.0000
  H   H1173     1.0  0.51955  0.75072  0.76379  1.0000
  H   H1174     1.0  0.50769  0.73317  0.73690  1.0000
  H   H1175     1.0  0.50052  0.72880  0.77435  1.0000
  H   H1176     1.0  0.41615  0.71692  0.92093  1.0000
  H   H1177     1.0  0.46390  0.80498  0.85698  1.0000
  H   H1178     1.0  0.57851  0.89793  0.79792  1.0000
  C   C662      1.0  0.43528  0.78742  0.90083  1.0000
  C   C663      1.0  0.41675  0.80058  0.94524  1.0000
  C   C664      1.0  0.56835  0.82389  0.76011  1.0000
  H   H1179     1.0  0.54955  0.76396  0.97524  1.0000
  H   H1180     1.0  0.62221  0.84151  0.84587  1.0000
  C   C665      1.0  0.42695  0.76023  0.93950  1.0000
  H   H1181     1.0  0.41926  0.78194  0.89105  1.0000
  N   N35       1.0  0.59380  0.85873  0.76328  1.0000
  H   H1182     1.0  0.40019  0.79871  0.93422  1.0000
  H   H1183     1.0  0.36128  0.82300  0.69449  1.0000
  H   H1184     1.0  0.34432  0.79658  0.98505  1.0000
  H   H1185     1.0  0.45080  0.82084  0.90375  1.0000
  H   H1186     1.0  0.42705  0.71481  0.95730  1.0000
  H   H1187     1.0  0.43482  0.80408  0.84489  1.0000
  C   C666      1.0  0.61631  0.86593  0.81062  1.0000
  S   S155      1.0  0.62142  0.70448  0.86220  1.0000
  H   H1188     1.0  0.63155  0.69839  0.97147  1.0000
  C   C667      1.0  0.56634  0.80151  0.74405  1.0000
  C   C668      1.0  0.44296  0.74003  0.92984  1.0000
  H   H1189     1.0  0.44874  0.77632  0.89071  1.0000
  H   H1190     1.0  0.56771  0.87752  0.73889  1.0000
  C   C669      1.0  0.47907  0.78167  0.92923  1.0000
  N   N36       1.0  0.43466  0.78389  0.93311  1.0000
  H   H1191     1.0  0.44762  0.74135  0.90677  1.0000
  H   H1192     1.0  0.35505  0.66600  0.94408  1.0000
  H   H1193     1.0  0.32805  0.77034  0.65016  1.0000
  H   H1194     1.0  0.45839  0.77808  0.96801  1.0000
  H   H1195     1.0  0.38102  0.82044  0.97643  1.0000
  C   C670      1.0  0.45718  0.78770  0.94718  1.0000
  C   C671      1.0  0.65325  0.66916  0.85622  1.0000
  H   H1196     1.0  0.55881  0.86843  0.77334  1.0000
  H   H1197     1.0  0.59114  0.90760  0.76445  1.0000
  H   H1198     1.0  0.48097  0.79426  0.91144  1.0000
  H   H1199     1.0  0.63366  0.86204  0.80177  1.0000
  H   H1200     1.0  0.60331  0.82568  0.74601  1.0000
  C   C672      1.0  0.43841  0.81225  0.89032  1.0000
  H   H1201     1.0  0.61310  0.85746  0.70371  1.0000
  H   H1202     1.0  0.32400  0.73404  0.73560  1.0000
  H   H1203     1.0  0.40331  0.78338  0.98378  1.0000
  S   S156      1.0  0.32713  0.85323  0.66857  1.0000
  H   H1204     1.0  0.58180  0.79020  0.74738  1.0000
  C   C673      1.0  0.58807  0.83753  0.74733  1.0000
  H   H1205     1.0  0.61341  0.67807  0.91597  1.0000
  H   H1206     1.0  0.62042  0.73585  0.99158  1.0000
  H   H1207     1.0  0.55145  0.79257  0.75241  1.0000
  H   H1208     1.0  0.57092  0.81956  0.78324  1.0000
  C   C674      1.0  0.55540  0.91497  0.76870  1.0000
  C   C675      1.0  0.64561  0.69078  0.84594  1.0000
  H   H1209     1.0  0.59995  0.86318  0.85293  1.0000
  H   H1210     1.0  0.59733  0.88395  0.71111  1.0000
  C   C676      1.0  0.57351  0.87538  0.76156  1.0000
  C   C677      1.0  0.61505  0.67917  0.93975  1.0000
  H   H1211     1.0  0.55190  0.83379  0.75794  1.0000
  C   C678      1.0  0.59691  0.79846  0.98978  1.0000
  H   H1212     1.0  0.65124  0.71727  0.81462  1.0000
  C   C679      1.0  0.35295  0.68058  0.95907  1.0000
  H   H1213     1.0  0.62938  0.87011  0.85374  1.0000
  H   H1214     1.0  0.60580  0.83408  0.79568  1.0000
  C   C680      1.0  0.33111  0.81582  0.75679  1.0000
  H   H1215     1.0  0.38826  0.72250  0.98650  1.0000
  H   H1216     1.0  0.34747  0.65977  0.99647  1.0000
  H   H1217     1.0  0.61265  0.88451  0.80861  1.0000
  H   H1218     1.0  0.42143  0.81840  0.94093  1.0000
  H   H1219     1.0  0.33153  0.80691  0.62244  1.0000
  H   H1220     1.0  0.33557  0.76030  0.74753  1.0000
  S   S157      1.0  0.64723  0.80866  0.80403  1.0000
  C   C681      1.0  0.55111  0.74577  0.98214  1.0000
  H   H1221     1.0  0.33083  0.96431  0.71446  1.0000
  C   C682      1.0  0.61464  0.86791  0.74897  1.0000
  C   C683      1.0  0.35373  0.78027  0.98536  1.0000
  C   C684      1.0  0.65487  0.69328  0.93408  1.0000
  C   C685      1.0  0.57643  0.89926  0.77422  1.0000
  H   H1222     1.0  0.63252  0.88895  0.68198  1.0000
  H   H1223     1.0  0.64452  0.66136  0.87410  1.0000
  C   C686      1.0  0.65425  0.93547  0.59500  1.0000
  H   H1224     1.0  0.33745  0.92592  0.71150  1.0000
  H   H1225     1.0  0.56775  0.73846  0.97432  1.0000
  C   C687      1.0  0.34747  0.82510  0.70991  1.0000
  H   H1226     1.0  0.37004  0.68513  0.96628  1.0000
  H   H1227     1.0  0.59040  0.81601  0.98935  1.0000
  H   H1228     1.0  0.59793  0.68315  0.94911  1.0000
  C   C688      1.0  0.64979  0.81294  0.71563  1.0000
  C   C689      1.0  0.34158  0.92109  0.65262  1.0000
  H   H1229     1.0  0.54008  0.90773  0.77860  1.0000
  C   C690      1.0  0.63093  0.69786  0.94762  1.0000
  S   S158      1.0  0.33108  0.80068  0.79030  1.0000
  H   H1230     1.0  0.61997  0.88346  0.75974  1.0000
  C   C691      1.0  0.61404  0.75339  0.99107  1.0000
  H   H1231     1.0  0.32842  0.64672  0.85805  1.0000
  H   H1232     1.0  0.63814  0.94305  0.58601  1.0000
  H   H1233     1.0  0.40598  0.83535  0.98588  1.0000
  H   H1234     1.0  0.64945  0.87724  0.71112  1.0000
  H   H1235     1.0  0.32601  0.73484  0.90970  1.0000
  H   H1236     1.0  0.32319  0.88833  0.74412  1.0000
  C   C692      1.0  0.32302  0.79213  0.61344  1.0000
  H   H1237     1.0  0.32290  0.90239  0.69927  1.0000
  Fe  Fe81      1.0  0.77994  0.34832  0.15520  1.0000
  S   S159      1.0  0.75676  0.37603  0.17417  1.0000
  S   S160      1.0  0.80317  0.32156  0.17891  1.0000
  Fe  Fe82      1.0  0.76111  0.35796  0.09331  1.0000
  S   S161      1.0  0.73697  0.38621  0.10845  1.0000
  S   S162      1.0  0.76008  0.34299  0.04809  1.0000
  Fe  Fe83      1.0  0.76589  0.39758  0.13530  1.0000
  S   S163      1.0  0.77931  0.43380  0.13510  1.0000
  Fe  Fe84      1.0  0.72985  0.36228  0.14557  1.0000
  S   S164      1.0  0.69380  0.35724  0.16142  1.0000
  S   S165      1.0  0.79084  0.37033  0.11772  1.0000
  S   S166      1.0  0.75222  0.33357  0.12902  1.0000
  Fe  Fe85      1.0  0.86530  0.28338  0.32614  1.0000
  S   S167      1.0  0.87059  0.25002  0.30373  1.0000
  S   S168      1.0  0.85216  0.31562  0.30197  1.0000
  Fe  Fe86      1.0  0.88027  0.26194  0.38558  1.0000
  S   S169      1.0  0.88504  0.22713  0.36609  1.0000
  S   S170      1.0  0.89518  0.26328  0.43086  1.0000
  Fe  Fe87      1.0  0.90286  0.24555  0.33013  1.0000
  S   S171      1.0  0.93810  0.23420  0.31270  1.0000
  Fe  Fe88      1.0  0.85243  0.23542  0.34213  1.0000
  S   S172      1.0  0.81790  0.21971  0.33870  1.0000
  S   S173      1.0  0.89862  0.27999  0.34984  1.0000
  S   S174      1.0  0.84646  0.26921  0.36426  1.0000
  Fe  Fe89      1.0  0.71132  0.07496  0.32872  1.0000
  S   S175      1.0  0.68245  0.10031  0.33965  1.0000
  S   S176      1.0  0.70109  0.03771  0.33382  1.0000
  Fe  Fe90      1.0  0.74438  0.11362  0.32313  1.0000
  S   S177      1.0  0.71775  0.14085  0.33368  1.0000
  S   S178      1.0  0.78181  0.12094  0.31822  1.0000
  Fe  Fe91      1.0  0.70700  0.11668  0.36855  1.0000
  S   S179      1.0  0.69752  0.13073  0.41284  1.0000
  Fe  Fe92      1.0  0.69538  0.12248  0.30362  1.0000
  H   H1238     1.0  0.74258  0.28352  0.07725  1.0000
  S   S180      1.0  0.73500  0.09052  0.35998  1.0000
  S   S181      1.0  0.72283  0.09615  0.29056  1.0000
  C   C693      1.0  0.70740  0.11868  0.44591  1.0000
  C   C694      1.0  0.70044  0.12900  0.47195  1.0000
  C   C695      1.0  0.72221  0.09933  0.44678  1.0000
  H   H1239     1.0  0.68897  0.14397  0.47147  1.0000
  C   C696      1.0  0.68895  0.22673  0.05102  1.0000
  H   H1240     1.0  0.84041  0.18433  0.38056  1.0000
  C   C697      1.0  0.68233  0.14553  0.21998  1.0000
  H   H1241     1.0  0.69244  0.24092  0.12468  1.0000
  H   H1242     1.0  0.69143  0.14643  0.17474  1.0000
  H   H1243     1.0  0.69688  0.13463  0.22608  1.0000
  C   C698      1.0  0.88140  0.26548  0.46485  1.0000
  C   C699      1.0  0.85913  0.27453  0.46793  1.0000
  H   H1244     1.0  0.67508  0.35660  0.03566  1.0000
  H   H1245     1.0  0.84951  0.27975  0.44900  1.0000
  C   C700      1.0  0.71515  0.01642  0.41384  1.0000
  C   C701      1.0  0.80874  0.19229  0.33060  1.0000
  C   C702      1.0  0.82379  0.17351  0.32589  1.0000
  C   C703      1.0  0.81533  0.15177  0.32167  1.0000
  C   C704      1.0  0.79182  0.14868  0.32199  1.0000
  C   C705      1.0  0.77684  0.16762  0.32591  1.0000
  C   C706      1.0  0.78527  0.18928  0.33008  1.0000
  H   H1246     1.0  0.84191  0.17562  0.32596  1.0000
  H   H1247     1.0  0.82705  0.13723  0.31842  1.0000
  H   H1248     1.0  0.75876  0.16557  0.32599  1.0000
  H   H1249     1.0  0.77349  0.20365  0.33375  1.0000
  H   H1250     1.0  0.74278  0.01223  0.37144  1.0000
  C   C707      1.0  0.70415  0.19419  0.27353  1.0000
  C   C708      1.0  0.69494  0.21768  0.22848  1.0000
  H   H1251     1.0  0.73092  0.12399  0.03114  1.0000
  H   H1252     1.0  0.76335  0.39132  0.03447  1.0000
  C   C709      1.0  0.67466  0.33489  0.15977  1.0000
  H   H1253     1.0  0.70481  0.43126  0.05540  1.0000
  H   H1254     1.0  0.71602  0.17343  0.01511  1.0000
  C   C710      1.0  0.67385  0.19097  0.02960  1.0000
  H   H1255     1.0  0.80061  0.47666  0.13488  1.0000
  C   C711      1.0  0.67990  0.31343  0.14752  1.0000
  C   C712      1.0  0.71216  0.15525  0.01754  1.0000
  C   C713      1.0  0.93907  0.32526  0.33405  1.0000
  H   H1256     1.0  0.69681  0.30956  0.13928  1.0000
  C   C714      1.0  0.81641  0.32054  0.21340  1.0000
  C   C715      1.0  0.81444  0.33859  0.23285  1.0000
  C   C716      1.0  0.82537  0.33679  0.25986  1.0000
  C   C717      1.0  0.83802  0.31682  0.26808  1.0000
  C   C718      1.0  0.83984  0.29872  0.24872  1.0000
  C   C719      1.0  0.82924  0.30065  0.22156  1.0000
  H   H1257     1.0  0.80472  0.35404  0.22694  1.0000
  H   H1258     1.0  0.82400  0.35102  0.27448  1.0000
  H   H1259     1.0  0.84974  0.28336  0.25447  1.0000
  H   H1260     1.0  0.83099  0.28660  0.20669  1.0000
  C   C720      1.0  0.96544  0.26194  0.34459  1.0000
  C   C721      1.0  0.96446  0.24465  0.32420  1.0000
  C   C722      1.0  0.68371  0.36097  0.08070  1.0000
  H   H1261     1.0  0.94994  0.26887  0.35444  1.0000
  H   H1262     1.0  0.98104  0.22235  0.44275  1.0000
  C   C723      1.0  0.73360  0.14251  0.02882  1.0000
  C   C724      1.0  0.71150  0.00918  0.32720  1.0000
  C   C725      1.0  0.73178  0.00397  0.31220  1.0000
  H   H1263     1.0  0.91559  0.34849  0.22714  1.0000
  H   H1264     1.0  0.74147  0.01761  0.30341  1.0000
  C   C726      1.0  0.70900  0.04233  0.41158  1.0000
  C   C727      1.0  0.76776  0.46237  0.13906  1.0000
  H   H1265     1.0  0.80089  0.46504  0.04664  1.0000
  H   H1266     1.0  0.73283  0.45402  0.14383  1.0000
  C   C728      1.0  0.68635  0.31477  0.02145  1.0000
  H   H1267     1.0  0.66712  0.28045  0.13697  1.0000
  C   C729      1.0  0.91732  0.28189  0.26309  1.0000
  H   H1268     1.0  0.84784  0.20606  0.45925  1.0000
  H   H1269     1.0  0.68173  0.39526  0.09761  1.0000
  H   H1270     1.0  0.89429  0.35143  0.25532  1.0000
  C   C730      1.0  0.91184  0.26751  0.23635  1.0000
  H   H1271     1.0  0.69847  0.39200  0.06501  1.0000
  H   H1272     1.0  0.78570  0.42507  0.03311  1.0000
  H   H1273     1.0  0.93733  0.31272  0.47254  1.0000
  C   C731      1.0  0.91666  0.24203  0.24171  1.0000
  H   H1274     1.0  0.90301  0.28030  0.27869  1.0000
  H   H1275     1.0  0.93208  0.27348  0.27423  1.0000
  H   H1276     1.0  0.68750  0.25608  0.17299  1.0000
  H   H1277     1.0  0.93833  0.31041  0.21565  1.0000
  H   H1278     1.0  0.70805  0.43949  0.09265  1.0000
  H   H1279     1.0  0.67287  0.23664  0.04612  1.0000
  H   H1280     1.0  0.75269  0.13632  0.45873  1.0000
  H   H1281     1.0  0.89353  0.27021  0.23107  1.0000
  H   H1282     1.0  0.92183  0.27258  0.21715  1.0000
  H   H1283     1.0  0.69052  0.20218  0.21659  1.0000
  H   H1284     1.0  0.88464  0.31200  0.25204  1.0000
  H   H1285     1.0  0.96780  0.25091  0.44210  1.0000
  H   H1286     1.0  0.91083  0.25156  0.48737  1.0000
  H   H1287     1.0  0.79515  0.14785  0.46029  1.0000
  N   N37       1.0  0.67019  0.16573  0.03127  1.0000
  C   C732      1.0  0.75866  0.15278  0.46616  1.0000
  C   C733      1.0  0.65988  0.15773  0.00353  1.0000
  H   H1288     1.0  0.90663  0.23605  0.26043  1.0000
  H   H1289     1.0  0.91196  0.23235  0.22244  1.0000
  H   H1290     1.0  0.93501  0.23833  0.24599  1.0000
  N   N38       1.0  0.76395  0.46668  0.04823  1.0000
  C   C734      1.0  0.78680  0.45681  0.05798  1.0000
  H   H1291     1.0  0.89966  0.30819  0.21897  1.0000
  C   C735      1.0  0.74595  0.45314  0.06303  1.0000
  H   H1292     1.0  0.74787  0.14474  0.01341  1.0000
  H   H1293     1.0  0.69718  0.15514  0.06061  1.0000
  C   C736      1.0  0.79064  0.43062  0.05479  1.0000
  H   H1294     1.0  0.77076  0.99576  0.46685  1.0000
  H   H1295     1.0  0.67627  0.03840  0.39098  1.0000
  C   C737      1.0  0.66021  0.16624  0.18250  1.0000
  C   C738      1.0  0.81543  0.42291  0.05983  1.0000
  C   C739      1.0  0.95438  0.31456  0.48208  1.0000
  H   H1296     1.0  0.95769  0.31568  0.29621  1.0000
  H   H1297     1.0  0.75880  0.04258  0.34215  1.0000
  H   H1298     1.0  0.74971  0.45093  0.08638  1.0000
  H   H1299     1.0  0.74613  0.43553  0.05434  1.0000
  H   H1300     1.0  0.68879  0.13340  0.03776  1.0000
  H   H1301     1.0  0.67457  0.21666  0.16228  1.0000
  H   H1302     1.0  0.87627  0.21560  0.46038  1.0000
  C   C740      1.0  0.98497  0.23570  0.31205  1.0000
  H   H1303     1.0  0.78033  0.42158  0.07105  1.0000
  H   H1304     1.0  0.67191  0.32281  0.00897  1.0000
  H   H1305     1.0  0.76755  0.08851  0.41374  1.0000
  C   C741      1.0  0.68730  0.34855  0.05143  1.0000
  H   H1306     1.0  0.71714  0.46867  0.03838  1.0000
  H   H1307     1.0  0.75281  0.05168  0.39394  1.0000
  S   S182      1.0  0.65668  0.17403  0.14554  1.0000
  H   H1308     1.0  0.82067  0.42770  0.08182  1.0000
  H   H1309     1.0  0.81742  0.40407  0.05808  1.0000
  H   H1310     1.0  0.82665  0.43071  0.04354  1.0000
  C   C742      1.0  0.70183  0.22582  0.13422  1.0000
  H   H1311     1.0  0.69960  0.21096  0.12012  1.0000
  H   H1312     1.0  0.72020  0.22908  0.13506  1.0000
  H   H1313     1.0  0.68199  0.25978  0.25279  1.0000
  H   H1314     1.0  0.70456  0.35289  0.04387  1.0000
  H   H1315     1.0  0.71088  0.33778  0.00187  1.0000
  C   C743      1.0  0.96243  0.29245  0.24304  1.0000
  H   H1316     1.0  0.71477  0.05159  0.43057  1.0000
  C   C744      1.0  0.72990  0.09037  0.47347  1.0000
  H   H1317     1.0  0.70508  0.17863  0.26010  1.0000
  N   N39       1.0  0.77833  0.26396  0.27779  1.0000
  C   C745      1.0  0.76351  0.26573  0.25143  1.0000
  C   C746      1.0  0.76702  0.24923  0.29997  1.0000
  C   C747      1.0  0.78134  0.28762  0.28898  1.0000
  C   C748      1.0  0.80146  0.25317  0.27084  1.0000
  C   C749      1.0  0.80183  0.22941  0.25660  1.0000
  C   C750      1.0  0.77356  0.27792  0.22471  1.0000
  C   C751      1.0  0.79456  0.28896  0.31768  1.0000
  C   C752      1.0  0.74470  0.25944  0.31362  1.0000
  C   C753      1.0  0.73475  0.24261  0.33509  1.0000
  C   C754      1.0  0.82623  0.22032  0.25110  1.0000
  C   C755      1.0  0.75697  0.27855  0.19953  1.0000
  C   C756      1.0  0.79350  0.31326  0.32915  1.0000
  H   H1318     1.0  0.74726  0.27533  0.25655  1.0000
  H   H1319     1.0  0.75863  0.24854  0.24469  1.0000
  H   H1320     1.0  0.76283  0.23272  0.29038  1.0000
  H   H1321     1.0  0.77891  0.24447  0.31776  1.0000
  H   H1322     1.0  0.76462  0.29712  0.29139  1.0000
  H   H1323     1.0  0.79093  0.29779  0.27306  1.0000
  H   H1324     1.0  0.81120  0.26462  0.25679  1.0000
  H   H1325     1.0  0.81172  0.25103  0.29078  1.0000
  H   H1326     1.0  0.79297  0.23021  0.23561  1.0000
  H   H1327     1.0  0.79370  0.21681  0.27081  1.0000
  H   H1328     1.0  0.77698  0.29583  0.22966  1.0000
  H   H1329     1.0  0.78959  0.26911  0.21720  1.0000
  H   H1330     1.0  0.81274  0.28376  0.31416  1.0000
  H   H1331     1.0  0.78775  0.27787  0.33482  1.0000
  H   H1332     1.0  0.74771  0.27526  0.32553  1.0000
  H   H1333     1.0  0.73171  0.26342  0.29693  1.0000
  H   H1334     1.0  0.73075  0.22659  0.32415  1.0000
  H   H1335     1.0  0.74693  0.23854  0.35279  1.0000
  H   H1336     1.0  0.71883  0.25023  0.34469  1.0000
  H   H1337     1.0  0.83535  0.23216  0.23678  1.0000
  H   H1338     1.0  0.83549  0.21813  0.27181  1.0000
  H   H1339     1.0  0.82613  0.20344  0.24060  1.0000
  H   H1340     1.0  0.76461  0.28741  0.18079  1.0000
  H   H1341     1.0  0.75334  0.26101  0.19295  1.0000
  H   H1342     1.0  0.74089  0.28810  0.20545  1.0000
  H   H1343     1.0  0.80007  0.32527  0.31280  1.0000
  H   H1344     1.0  0.77578  0.31878  0.33501  1.0000
  H   H1345     1.0  0.80420  0.31398  0.34867  1.0000
  N   N40       1.0  0.68511  0.32302  0.05219  1.0000
  C   C757      1.0  0.94220  0.31029  0.23913  1.0000
  C   C758      1.0  0.76069  0.46542  0.01595  1.0000
  C   C759      1.0  0.70428  0.31275  0.07014  1.0000
  C   C760      1.0  0.92159  0.31930  0.28509  1.0000
  H   H1346     1.0  0.78443  0.17638  0.45855  1.0000
  H   H1347     1.0  0.96622  0.28853  0.26594  1.0000
  H   H1348     1.0  0.70335  0.30279  0.24692  1.0000
  H   H1349     1.0  0.94848  0.32750  0.24325  1.0000
  N   N41       1.0  0.73996  0.00933  0.41787  1.0000
  H   H1350     1.0  0.78438  0.00923  0.43681  1.0000
  C   C761      1.0  0.75354  0.01404  0.39077  1.0000
  H   H1351     1.0  0.70319  0.31946  0.09236  1.0000
  H   H1352     1.0  0.74135  0.07540  0.47397  1.0000
  H   H1353     1.0  0.66774  0.35666  0.09182  1.0000
  H   H1354     1.0  0.70857  0.00907  0.39378  1.0000
  H   H1355     1.0  0.95859  0.27613  0.23279  1.0000
  H   H1356     1.0  0.79868  0.02186  0.48406  1.0000
  H   H1357     1.0  0.67953  0.06571  0.40719  1.0000
  C   C762      1.0  0.68444  0.20163  0.05649  1.0000
  C   C763      1.0  0.65903  0.23720  0.21079  1.0000
  H   H1358     1.0  0.72800  0.25949  0.09128  1.0000
  H   H1359     1.0  0.70238  0.20511  0.17232  1.0000
  N   N42       1.0  0.78161  0.15811  0.41862  1.0000
  C   C764      1.0  0.77636  0.13484  0.40767  1.0000
  C   C765      1.0  0.76544  0.17628  0.40577  1.0000
  C   C766      1.0  0.80541  0.16284  0.40851  1.0000
  C   C767      1.0  0.78111  0.15897  0.45113  1.0000
  C   C768      1.0  0.66317  0.29687  0.14655  1.0000
  C   C769      1.0  0.79209  0.11461  0.41854  1.0000
  C   C770      1.0  0.81303  0.18754  0.41257  1.0000
  C   C771      1.0  0.74078  0.16971  0.39996  1.0000
  C   C772      1.0  0.72606  0.19017  0.38925  1.0000
  C   C773      1.0  0.74446  0.46764  0.14239  1.0000
  C   C774      1.0  0.78494  0.09213  0.40626  1.0000
  C   C775      1.0  0.83783  0.18948  0.40331  1.0000
  H   H1360     1.0  0.77704  0.13491  0.38360  1.0000
  H   H1361     1.0  0.75874  0.13046  0.41325  1.0000
  H   H1362     1.0  0.76473  0.19185  0.41928  1.0000
  H   H1363     1.0  0.77180  0.18180  0.38434  1.0000
  H   H1364     1.0  0.80743  0.15895  0.38510  1.0000
  H   H1365     1.0  0.81817  0.15150  0.41988  1.0000
  H   H1366     1.0  0.72149  0.20045  0.27575  1.0000
  H   H1367     1.0  0.69674  0.28608  0.19878  1.0000
  N   N43       1.0  0.68435  0.23894  0.21434  1.0000
  C   C776      1.0  0.68285  0.38679  0.07630  1.0000
  H   H1368     1.0  0.80992  0.11657  0.41156  1.0000
  H   H1369     1.0  0.79136  0.11308  0.44239  1.0000
  H   H1370     1.0  0.81155  0.19280  0.43538  1.0000
  H   H1371     1.0  0.80269  0.19993  0.39928  1.0000
  H   H1372     1.0  0.74077  0.15664  0.38293  1.0000
  H   H1373     1.0  0.73256  0.16271  0.41935  1.0000
  H   H1374     1.0  0.73307  0.19694  0.36876  1.0000
  H   H1375     1.0  0.70860  0.18473  0.38516  1.0000
  H   H1376     1.0  0.72503  0.20380  0.40567  1.0000
  C   C777      1.0  0.74857  0.02099  0.44414  1.0000
  H   H1377     1.0  0.95272  0.31900  0.34894  1.0000
  C   C778      1.0  0.77326  0.04137  0.35739  1.0000
  H   H1378     1.0  0.79679  0.07799  0.41364  1.0000
  C   C779      1.0  0.97939  0.23865  0.43038  1.0000
  H   H1379     1.0  0.78539  0.09286  0.38231  1.0000
  H   H1380     1.0  0.84263  0.20745  0.40512  1.0000
  H   H1381     1.0  0.84926  0.17851  0.41710  1.0000
  H   H1382     1.0  0.69640  0.23400  0.07052  1.0000
  C   C780      1.0  0.69267  0.22057  0.16436  1.0000
  H   H1383     1.0  0.75312  0.44913  0.01005  1.0000
  H   H1384     1.0  0.76776  0.00097  0.38794  1.0000
  C   C781      1.0  0.68809  0.21261  0.26016  1.0000
  H   H1385     1.0  0.92243  0.32292  0.34479  1.0000
  C   C782      1.0  0.66645  0.15268  0.24104  1.0000
  H   H1386     1.0  0.71382  0.21811  0.22739  1.0000
  H   H1387     1.0  0.71359  0.24391  0.18663  1.0000
  H   H1388     1.0  0.72741  0.28565  0.11127  1.0000
  C   C783      1.0  0.86440  0.20358  0.47027  1.0000
  H   H1389     1.0  0.98938  0.31642  0.23937  1.0000
  C   C784      1.0  0.94101  0.31197  0.30591  1.0000
  C   C785      1.0  0.98409  0.30065  0.22889  1.0000
  H   H1390     1.0  0.97120  0.29504  0.44755  1.0000
  H   H1391     1.0  0.70892  0.25879  0.23582  1.0000
  H   H1392     1.0  0.94069  0.29363  0.31143  1.0000
  C   C786      1.0  0.69513  0.24101  0.18476  1.0000
  C   C787      1.0  0.84960  0.27769  0.49568  1.0000
  H   H1393     1.0  0.88531  0.34161  0.19155  1.0000
  H   H1394     1.0  0.69104  0.28087  0.08632  1.0000
  H   H1395     1.0  0.70599  0.27809  0.05211  1.0000
  H   H1396     1.0  0.77945  0.03772  0.40274  1.0000
  H   H1397     1.0  0.69801  0.35646  0.09541  1.0000
  C   C788      1.0  0.89371  0.25886  0.48967  1.0000
  H   H1398     1.0  0.68489  0.19527  0.01107  1.0000
  H   H1399     1.0  0.69779  0.18938  0.29528  1.0000
  N   N44       1.0  0.92098  0.30673  0.25690  1.0000
  C   C789      1.0  0.69178  0.15193  0.03813  1.0000
  H   H1400     1.0  0.70484  0.00950  0.43189  1.0000
  C   C790      1.0  0.76089  0.35856  0.01513  1.0000
  C   C791      1.0  0.76468  0.03731  0.38817  1.0000
  H   H1401     1.0  0.97166  0.23522  0.40918  1.0000
  H   H1402     1.0  0.72088  0.31831  0.06191  1.0000
  C   C792      1.0  0.97183  0.31206  0.45761  1.0000
  C   C793      1.0  0.76260  0.38219  0.01444  1.0000
  H   H1403     1.0  0.73643  0.01923  0.46253  1.0000
  H   H1404     1.0  0.95527  0.27976  0.49520  1.0000
  C   C794      1.0  0.98650  0.27057  0.35201  1.0000
  H   H1405     1.0  0.78206  0.05760  0.35607  1.0000
  H   H1406     1.0  0.74919  0.03963  0.44045  1.0000
  C   C795      1.0  0.72119  0.46322  0.06083  1.0000
  H   H1407     1.0  0.71645  0.04950  0.39170  1.0000
  H   H1408     1.0  0.92344  0.33781  0.28120  1.0000
  C   C796      1.0  0.72724  0.27835  0.08928  1.0000
  H   H1409     1.0  0.90513  0.31782  0.29692  1.0000
  C   C797      1.0  0.70567  0.28652  0.07336  1.0000
  H   H1410     1.0  0.78511  0.04543  0.46451  1.0000
  S   S183      1.0  0.66921  0.14480  0.27808  1.0000
  C   C798      1.0  0.69037  0.25955  0.23131  1.0000
  H   H1411     1.0  0.68420  0.29616  0.02042  1.0000
  C   C799      1.0  0.67918  0.15227  0.19087  1.0000
  H   H1412     1.0  0.68347  0.99487  0.35002  1.0000
  C   C800      1.0  0.70420  0.44583  0.07044  1.0000
  C   C801      1.0  0.77225  0.01217  0.45498  1.0000
  C   C802      1.0  0.68331  0.04707  0.40983  1.0000
  H   H1413     1.0  0.98917  0.31445  0.46581  1.0000
  H   H1414     1.0  0.72760  0.09129  0.42688  1.0000
  H   H1415     1.0  0.74533  0.16645  0.46232  1.0000
  C   C803      1.0  0.78255  0.48045  0.13737  1.0000
  H   H1416     1.0  0.87150  0.18592  0.46693  1.0000
  H   H1417     1.0  0.65739  0.20044  0.02534  1.0000
  H   H1418     1.0  0.67076  0.20604  0.26081  1.0000
  C   C804      1.0  0.90051  0.31627  0.24049  1.0000
  C   C805      1.0  0.88095  0.34922  0.21282  1.0000
  H   H1419     1.0  0.94094  0.34372  0.32986  1.0000
  H   H1420     1.0  0.68245  0.31907  0.22607  1.0000
  H   H1421     1.0  0.66776  0.39250  0.06347  1.0000
  H   H1422     1.0  0.79355  0.45144  0.99904  1.0000
  C   C806      1.0  0.68605  0.30262  0.23768  1.0000
  H   H1423     1.0  0.78539  0.02731  0.35063  1.0000
  H   H1424     1.0  0.68853  0.22769  0.27414  1.0000
  H   H1425     1.0  0.66021  0.16696  0.07657  1.0000
  H   H1426     1.0  0.70088  0.19275  0.06210  1.0000
  H   H1427     1.0  0.86413  0.34346  0.21999  1.0000
  H   H1428     1.0  0.87964  0.36805  0.21022  1.0000
  C   C807      1.0  0.89912  0.34241  0.23507  1.0000
  H   H1429     1.0  0.78932  0.46060  0.08119  1.0000
  H   H1430     1.0  0.66355  0.31760  0.08956  1.0000
  C   C808      1.0  0.68453  0.28299  0.21661  1.0000
  H   H1431     1.0  0.70105  0.22858  0.03274  1.0000
  H   H1432     1.0  0.66057  0.12605  0.06787  1.0000
  H   H1433     1.0  0.98451  0.22227  0.29635  1.0000
  H   H1434     1.0  0.73842  0.14931  0.05004  1.0000
  H   H1435     1.0  0.66717  0.28366  0.20756  1.0000
  H   H1436     1.0  0.68675  0.45389  0.07036  1.0000
  H   H1437     1.0  0.67480  0.04123  0.42985  1.0000
  H   H1438     1.0  0.74802  0.47895  0.00871  1.0000
  H   H1439     1.0  0.77048  0.03226  0.49435  1.0000
  C   C809      1.0  0.69913  0.99110  0.33830  1.0000
  H   H1440     1.0  0.79213  0.48176  0.00157  1.0000
  H   H1441     1.0  0.67333  0.30119  0.25535  1.0000
  H   H1442     1.0  0.71872  0.47816  0.07523  1.0000
  H   H1443     1.0  0.96797  0.32523  0.44073  1.0000
  H   H1444     1.0  0.95491  0.33205  0.49049  1.0000
  H   H1445     1.0  0.66183  0.28110  0.05695  1.0000
  H   H1446     1.0  0.98686  0.28433  0.36724  1.0000
  C   C810      1.0  0.66226  0.31829  0.06563  1.0000
  C   C811      1.0  0.78217  0.02901  0.47573  1.0000
  H   H1447     1.0  0.66363  0.13910  0.00073  1.0000
  H   H1448     1.0  0.67285  0.20088  0.07537  1.0000
  H   H1449     1.0  0.72356  0.31119  0.01538  1.0000
  H   H1450     1.0  0.98145  0.30401  0.20551  1.0000
  C   C812      1.0  0.70850  0.31927  0.00444  1.0000
  H   H1451     1.0  0.83257  0.28526  0.49794  1.0000
  Fe  Fe93      1.0  0.72946  0.36895  0.83490  1.0000
  S   S184      1.0  0.75724  0.35218  0.86191  1.0000
  S   S185      1.0  0.69483  0.35569  0.82395  1.0000
  Fe  Fe94      1.0  0.75568  0.41265  0.82443  1.0000
  S   S186      1.0  0.78557  0.39853  0.84976  1.0000
  S   S187      1.0  0.75220  0.44730  0.80086  1.0000
  Fe  Fe95      1.0  0.78090  0.36513  0.82733  1.0000
  S   S188      1.0  0.81168  0.34195  0.81399  1.0000
  Fe  Fe96      1.0  0.75989  0.38662  0.88224  1.0000
  S   S189      1.0  0.76407  0.39787  0.92881  1.0000
  S   S190      1.0  0.75286  0.38006  0.79934  1.0000
  S   S191      1.0  0.73025  0.40254  0.85786  1.0000
  Fe  Fe97      1.0  0.91116  0.26907  0.63478  1.0000
  S   S192      1.0  0.88434  0.29685  0.62405  1.0000
  S   S193      1.0  0.94782  0.27933  0.62567  1.0000
  Fe  Fe98      1.0  0.87462  0.23425  0.64443  1.0000
  S   S194      1.0  0.84629  0.25961  0.63440  1.0000
  S   S195      1.0  0.86753  0.19685  0.65218  1.0000
  Fe  Fe99      1.0  0.86814  0.27053  0.59750  1.0000
  S   S196      1.0  0.84990  0.27669  0.55488  1.0000
  Fe  Fe100     1.0  0.86446  0.28389  0.66210  1.0000
  S   S197      1.0  0.83949  0.30795  0.68695  1.0000
  S   S198      1.0  0.89566  0.24371  0.60567  1.0000
  S   S199      1.0  0.89213  0.25760  0.67478  1.0000
  Fe  Fe101     1.0  0.73843  0.07658  0.63631  1.0000
  S   S200      1.0  0.70654  0.08199  0.61078  1.0000
  S   S201      1.0  0.74952  0.04162  0.65552  1.0000
  Fe  Fe102     1.0  0.75139  0.12699  0.62738  1.0000
  S   S202      1.0  0.72045  0.13449  0.59997  1.0000
  S   S203      1.0  0.76833  0.16028  0.63685  1.0000
  Fe  Fe103     1.0  0.70188  0.11541  0.63462  1.0000
  C   C813      1.0  0.95843  0.23634  0.56272  1.0000
  Fe  Fe104     1.0  0.72839  0.10059  0.57899  1.0000
  S   S204      1.0  0.73304  0.08843  0.53242  1.0000
  S   S205      1.0  0.73240  0.10875  0.66231  1.0000
  S   S206      1.0  0.76070  0.09430  0.60413  1.0000
  H   H1452     1.0  0.76423  0.29606  0.80809  1.0000
  C   C814      1.0  0.68088  0.13587  0.71132  1.0000
  C   C815      1.0  0.67645  0.14245  0.74007  1.0000
  H   H1453     1.0  0.69728  0.12822  0.70540  1.0000
  H   H1454     1.0  0.68948  0.13947  0.75614  1.0000
  C   C816      1.0  0.83997  0.18646  0.64848  1.0000
  C   C817      1.0  0.83721  0.16287  0.64650  1.0000
  C   C818      1.0  0.81545  0.15430  0.64302  1.0000
  C   C819      1.0  0.79627  0.16933  0.64161  1.0000
  C   C820      1.0  0.79909  0.19281  0.64390  1.0000
  C   C821      1.0  0.82074  0.20132  0.64741  1.0000
  H   H1455     1.0  0.85197  0.15118  0.64756  1.0000
  H   H1456     1.0  0.81352  0.13615  0.64145  1.0000
  H   H1457     1.0  0.78438  0.20454  0.64256  1.0000
  H   H1458     1.0  0.82250  0.21942  0.64920  1.0000
  C   C822      1.0  0.68702  0.32701  0.82790  1.0000
  C   C823      1.0  0.70272  0.30952  0.83602  1.0000
  H   H1459     1.0  0.80710  0.16724  0.52574  1.0000
  H   H1460     1.0  0.79473  0.29533  0.80512  1.0000
  H   H1461     1.0  0.78052  0.26973  0.81481  1.0000
  H   H1462     1.0  0.71796  0.99607  0.57404  1.0000
  H   H1463     1.0  0.80694  0.48068  0.77483  1.0000
  H   H1464     1.0  0.76741  0.46421  0.85651  1.0000
  H   H1465     1.0  0.69834  0.22016  0.67903  1.0000
  C   C824      1.0  0.81949  0.33300  0.77846  1.0000
  C   C825      1.0  0.83918  0.31872  0.77438  1.0000
  C   C826      1.0  0.84581  0.31103  0.74661  1.0000
  C   C827      1.0  0.83280  0.31760  0.72253  1.0000
  C   C828      1.0  0.81312  0.33184  0.72668  1.0000
  C   C829      1.0  0.80646  0.33944  0.75440  1.0000
  H   H1466     1.0  0.84941  0.31358  0.79281  1.0000
  H   H1467     1.0  0.86098  0.30008  0.74384  1.0000
  H   H1468     1.0  0.80290  0.33705  0.70826  1.0000
  H   H1469     1.0  0.79129  0.35039  0.75710  1.0000
  H   H1470     1.0  0.76681  0.45338  0.95796  1.0000
  H   H1471     1.0  0.69211  0.06967  0.78267  1.0000
  H   H1472     1.0  0.82821  0.17643  0.58533  1.0000
  H   H1473     1.0  0.70245  0.12799  0.51858  1.0000
  S   S207      1.0  0.66847  0.13026  0.65403  1.0000
  C   C830      1.0  0.88397  0.32625  0.54603  1.0000
  C   C831      1.0  0.86215  0.27159  0.52047  1.0000
  H   H1474     1.0  0.76516  0.41213  0.98738  1.0000
  H   H1475     1.0  0.97733  0.29497  0.51062  1.0000
  H   H1476     1.0  0.89344  0.25628  0.53633  1.0000
  C   C832      1.0  0.76008  0.35862  0.96230  1.0000
  C   C833      1.0  0.76223  0.38221  0.96160  1.0000
  H   H1477     1.0  0.68891  0.00637  0.57963  1.0000
  H   H1478     1.0  0.75881  0.34946  0.94235  1.0000
  H   H1479     1.0  0.72179  0.28488  0.69078  1.0000
  H   H1480     1.0  0.70319  0.44677  0.83934  1.0000
  C   C834      1.0  0.97600  0.26965  0.63552  1.0000
  C   C835      1.0  0.67828  0.19306  0.66583  1.0000
  H   H1481     1.0  0.96649  0.24268  0.66420  1.0000
  C   C836      1.0  0.71123  0.01746  0.72102  1.0000
  C   C837      1.0  0.68140  0.21386  0.68458  1.0000
  C   C838      1.0  0.75593  0.47514  0.81445  1.0000
  H   H1482     1.0  0.66380  0.04128  0.69876  1.0000
  H   H1483     1.0  0.70634  0.29067  0.97508  1.0000
  H   H1484     1.0  0.68652  0.39510  0.77859  1.0000
  C   C839      1.0  0.71514  0.01366  0.63903  1.0000
  C   C840      1.0  0.73732  0.01496  0.64913  1.0000
  H   H1485     1.0  0.66677  0.10490  0.78463  1.0000
  H   H1486     1.0  0.70529  0.02914  0.63376  1.0000
  C   C841      1.0  0.68847  0.41141  0.76671  1.0000
  H   H1487     1.0  0.68046  0.19771  0.64273  1.0000
  H   H1488     1.0  0.94973  0.30989  0.57746  1.0000
  H   H1489     1.0  0.69033  0.04307  0.68039  1.0000
  H   H1490     1.0  0.68495  0.17166  0.97269  1.0000
  H   H1491     1.0  0.72689  0.00073  0.75867  1.0000
  H   H1492     1.0  0.83048  0.33833  0.93904  1.0000
  H   H1493     1.0  0.69328  0.31733  0.96184  1.0000
  N   N45       1.0  0.84037  0.19566  0.54860  1.0000
  C   C842      1.0  0.80631  0.16934  0.54944  1.0000
  C   C843      1.0  0.82982  0.17494  0.56146  1.0000
  C   C844      1.0  0.82423  0.21643  0.54986  1.0000
  C   C845      1.0  0.86137  0.20018  0.56557  1.0000
  H   H1494     1.0  0.67701  0.48521  0.80486  1.0000
  C   C846      1.0  0.81403  0.22223  0.57990  1.0000
  H   H1495     1.0  0.70818  0.27356  0.84509  1.0000
  H   H1496     1.0  0.66796  0.14055  0.94671  1.0000
  C   C847      1.0  0.95880  0.29610  0.50594  1.0000
  C   C848      1.0  0.79716  0.24282  0.57841  1.0000
  H   H1497     1.0  0.75739  0.07313  0.71558  1.0000
  C   C849      1.0  0.67331  0.28158  0.83362  1.0000
  H   H1498     1.0  0.84120  0.15949  0.55807  1.0000
  H   H1499     1.0  0.66797  0.05243  0.78180  1.0000
  C   C850      1.0  0.83521  0.40442  0.93054  1.0000
  H   H1500     1.0  0.72391  0.02876  0.54020  1.0000
  H   H1501     1.0  0.79327  0.18301  0.55450  1.0000
  H   H1502     1.0  0.85704  0.20259  0.58876  1.0000
  C   C851      1.0  0.70938  0.02905  0.55564  1.0000
  H   H1503     1.0  0.78054  0.14448  0.55615  1.0000
  H   H1504     1.0  0.82759  0.22639  0.59499  1.0000
  H   H1505     1.0  0.80475  0.20786  0.58888  1.0000
  C   C852      1.0  0.74866  0.08387  0.73232  1.0000
  H   H1506     1.0  0.66131  0.16749  0.92885  1.0000
  H   H1507     1.0  0.73469  0.25662  0.69513  1.0000
  H   H1508     1.0  0.69103  0.17908  0.67118  1.0000
  C   C853      1.0  0.76351  0.39390  0.98778  1.0000
  H   H1509     1.0  0.69907  0.18312  0.76456  1.0000
  H   H1510     1.0  0.92295  0.32669  0.51809  1.0000
  H   H1511     1.0  0.70480  0.21046  0.81990  1.0000
  H   H1512     1.0  0.80562  0.25811  0.57025  1.0000
  H   H1513     1.0  0.78275  0.23932  0.56414  1.0000
  H   H1514     1.0  0.79035  0.24652  0.60035  1.0000
  N   N46       1.0  0.83943  0.36376  0.90739  1.0000
  C   C854      1.0  0.86298  0.36380  0.91992  1.0000
  C   C855      1.0  0.82406  0.38245  0.92064  1.0000
  C   C856      1.0  0.82977  0.34114  0.91522  1.0000
  C   C857      1.0  0.83977  0.36596  0.87495  1.0000
  C   C858      1.0  0.85107  0.38705  0.86217  1.0000
  C   C859      1.0  0.88050  0.34529  0.90866  1.0000
  C   C860      1.0  0.80504  0.33796  0.90535  1.0000
  H   H1515     1.0  0.72724  0.02545  0.71485  1.0000
  H   H1516     1.0  0.94876  0.23775  0.58338  1.0000
  C   C861      1.0  0.85175  0.38632  0.82922  1.0000
  C   C862      1.0  0.90409  0.34866  0.92085  1.0000
  H   H1517     1.0  0.79345  0.35264  0.91126  1.0000
  H   H1518     1.0  0.86196  0.36182  0.94384  1.0000
  H   H1519     1.0  0.87067  0.38040  0.91603  1.0000
  H   H1520     1.0  0.81011  0.38771  0.90559  1.0000
  H   H1521     1.0  0.76468  0.48421  0.96038  1.0000
  H   H1522     1.0  0.81526  0.37606  0.94033  1.0000
  H   H1523     1.0  0.84000  0.32678  0.90539  1.0000
  H   H1524     1.0  0.84782  0.35037  0.86497  1.0000
  H   H1525     1.0  0.82218  0.36680  0.86655  1.0000
  H   H1526     1.0  0.86880  0.38801  0.86958  1.0000
  H   H1527     1.0  0.84109  0.40281  0.86816  1.0000
  H   H1528     1.0  0.87574  0.32799  0.91542  1.0000
  H   H1529     1.0  0.88199  0.34595  0.88481  1.0000
  H   H1530     1.0  0.80462  0.33599  0.88158  1.0000
  C   C863      1.0  0.84612  0.19112  0.51733  1.0000
  C   C864      1.0  0.77575  0.46867  0.96458  1.0000
  C   C865      1.0  0.70301  0.00485  0.56363  1.0000
  H   H1531     1.0  0.70252  0.03631  0.75946  1.0000
  H   H1532     1.0  0.68802  0.40358  0.82784  1.0000
  H   H1533     1.0  0.91324  0.29944  0.51112  1.0000
  H   H1534     1.0  0.86123  0.37064  0.82165  1.0000
  H   H1535     1.0  0.83426  0.38670  0.82044  1.0000
  H   H1536     1.0  0.86030  0.40137  0.82053  1.0000
  H   H1537     1.0  0.91623  0.33501  0.91288  1.0000
  H   H1538     1.0  0.91033  0.36538  0.91378  1.0000
  H   H1539     1.0  0.90370  0.34778  0.94479  1.0000
  H   H1540     1.0  0.67847  0.99951  0.53028  1.0000
  H   H1541     1.0  0.97459  0.26767  0.56805  1.0000
  H   H1542     1.0  0.79483  0.31795  0.94275  1.0000
  H   H1543     1.0  0.71773  0.20629  0.76832  1.0000
  C   C866      1.0  0.70727  0.40738  0.74415  1.0000
  C   C867      1.0  0.98047  0.25143  0.65469  1.0000
  N   N47       1.0  0.94516  0.29859  0.53371  1.0000
  C   C868      1.0  0.92185  0.30943  0.52771  1.0000
  H   H1544     1.0  0.70608  0.47512  0.79956  1.0000
  C   C869      1.0  0.94199  0.27497  0.54584  1.0000
  C   C870      1.0  0.95777  0.31162  0.55579  1.0000
  H   H1545     1.0  0.85372  0.22609  0.50399  1.0000
  C   C871      1.0  0.90541  0.31186  0.55391  1.0000
  C   C872      1.0  0.66402  0.13903  0.69042  1.0000
  C   C873      1.0  0.76350  0.47868  0.84245  1.0000
  H   H1546     1.0  0.67891  0.02548  0.74213  1.0000
  H   H1547     1.0  0.70311  0.39303  0.73010  1.0000
  C   C874      1.0  0.78216  0.46693  0.99643  1.0000
  H   H1548     1.0  0.68006  0.42291  0.87247  1.0000
  C   C875      1.0  0.88403  0.26165  0.51736  1.0000
  H   H1549     1.0  0.90875  0.20335  0.56671  1.0000
  H   H1550     1.0  0.97531  0.30409  0.55847  1.0000
  C   C876      1.0  0.67246  0.41509  0.82749  1.0000
  H   H1551     1.0  0.93267  0.27582  0.56679  1.0000
  H   H1552     1.0  0.83032  0.19092  0.50442  1.0000
  H   H1553     1.0  0.77813  0.31445  0.91093  1.0000
  H   H1554     1.0  0.94378  0.34647  0.54598  1.0000
  N   N48       1.0  0.67687  0.43673  0.81068  1.0000
  H   H1555     1.0  0.70303  0.01156  0.70122  1.0000
  H   H1556     1.0  0.89993  0.29490  0.56107  1.0000
  H   H1557     1.0  0.93134  0.26537  0.53107  1.0000
  H   H1558     1.0  0.73143  0.27545  0.72590  1.0000
  H   H1559     1.0  0.71086  0.42546  0.79761  1.0000
  C   C877      1.0  0.96039  0.33726  0.54965  1.0000
  H   H1560     1.0  0.69762  0.44587  0.77373  1.0000
  H   H1561     1.0  0.91338  0.32017  0.57231  1.0000
  C   C878      1.0  0.96403  0.25998  0.55147  1.0000
  H   H1562     1.0  0.65957  0.40514  0.81643  1.0000
  H   H1563     1.0  0.84579  0.41179  0.91333  1.0000
  C   C879      1.0  0.79829  0.14711  0.56260  1.0000
  H   H1564     1.0  0.70902  0.42286  0.73048  1.0000
  N   N49       1.0  0.79808  0.25511  0.72957  1.0000
  C   C880      1.0  0.82182  0.24704  0.72063  1.0000
  C   C881      1.0  0.78909  0.27271  0.70798  1.0000
  C   C882      1.0  0.79977  0.26688  0.75825  1.0000
  C   C883      1.0  0.78211  0.23587  0.73299  1.0000
  C   C884      1.0  0.78611  0.21522  0.71268  1.0000
  C   C885      1.0  0.83507  0.23205  0.74325  1.0000
  C   C886      1.0  0.77773  0.27962  0.76942  1.0000
  C   C887      1.0  0.78698  0.26505  0.67634  1.0000
  C   C888      1.0  0.78093  0.28542  0.65655  1.0000
  C   C889      1.0  0.76615  0.19960  0.71368  1.0000
  C   C890      1.0  0.85495  0.21834  0.72946  1.0000
  C   C891      1.0  0.77948  0.28548  0.80132  1.0000
  H   H1565     1.0  0.83228  0.26194  0.71569  1.0000
  H   H1566     1.0  0.82182  0.23749  0.70018  1.0000
  H   H1567     1.0  0.77185  0.27944  0.71425  1.0000
  H   H1568     1.0  0.79988  0.28766  0.70804  1.0000
  H   H1569     1.0  0.81316  0.27957  0.75725  1.0000
  H   H1570     1.0  0.80528  0.25441  0.77537  1.0000
  H   H1571     1.0  0.78283  0.22860  0.75529  1.0000
  H   H1572     1.0  0.76424  0.24251  0.73040  1.0000
  H   H1573     1.0  0.80157  0.20487  0.71904  1.0000
  H   H1574     1.0  0.78851  0.22067  0.69013  1.0000
  H   H1575     1.0  0.84207  0.24313  0.75992  1.0000
  H   H1576     1.0  0.82394  0.21996  0.75428  1.0000
  H   H1577     1.0  0.76271  0.26925  0.76684  1.0000
  H   H1578     1.0  0.77483  0.29596  0.75734  1.0000
  H   H1579     1.0  0.80299  0.25692  0.66798  1.0000
  H   H1580     1.0  0.77318  0.25305  0.67449  1.0000
  H   H1581     1.0  0.79463  0.29774  0.65672  1.0000
  H   H1582     1.0  0.77908  0.27953  0.63408  1.0000
  H   H1583     1.0  0.76470  0.29422  0.66348  1.0000
  H   H1584     1.0  0.76293  0.19361  0.73609  1.0000
  H   H1585     1.0  0.75061  0.20860  0.70505  1.0000
  H   H1586     1.0  0.77014  0.18445  0.70005  1.0000
  H   H1587     1.0  0.86664  0.22986  0.71835  1.0000
  H   H1588     1.0  0.86460  0.20850  0.74631  1.0000
  H   H1589     1.0  0.84871  0.20613  0.71359  1.0000
  C   C892      1.0  0.71758  0.99618  0.73902  1.0000
  H   H1590     1.0  0.74495  0.10127  0.72341  1.0000
  H   H1591     1.0  0.88479  0.17558  0.54255  1.0000
  H   H1592     1.0  0.67582  0.45808  0.84876  1.0000
  H   H1593     1.0  0.68948  0.27518  0.72095  1.0000
  C   C893      1.0  0.69495  0.03427  0.73792  1.0000
  C   C894      1.0  0.70127  0.19964  0.77528  1.0000
  H   H1594     1.0  0.87539  0.31885  0.52736  1.0000
  H   H1595     1.0  0.87506  0.16579  0.57718  1.0000
  H   H1596     1.0  0.72012  0.31338  0.84018  1.0000
  C   C895      1.0  0.69431  0.43077  0.78751  1.0000
  H   H1597     1.0  0.85441  0.17382  0.51465  1.0000
  C   C896      1.0  0.67832  0.05246  0.69515  1.0000
  C   C897      1.0  0.70782  0.30944  0.97409  1.0000
  C   C898      1.0  0.66948  0.07374  0.67771  1.0000
  C   C899      1.0  0.65758  0.29904  0.82544  1.0000
  C   C900      1.0  0.66445  0.32163  0.82251  1.0000
  C   C901      1.0  0.81731  0.42272  0.93968  1.0000
  C   C902      1.0  0.70253  0.19460  0.80765  1.0000
  C   C903      1.0  0.67452  0.06905  0.77482  1.0000
  C   C904      1.0  0.70022  0.26086  0.71201  1.0000
  H   H1598     1.0  0.66095  0.18685  0.66883  1.0000
  H   H1599     1.0  0.69470  0.03893  0.54601  1.0000
  H   H1600     1.0  0.72373  0.31309  0.96226  1.0000
  H   H1601     1.0  0.88817  0.34403  0.54070  1.0000
  C   C905      1.0  0.90228  0.18841  0.57850  1.0000
  H   H1602     1.0  0.70722  0.24774  0.75457  1.0000
  H   H1603     1.0  0.76035  0.08521  0.75079  1.0000
  H   H1604     1.0  0.84617  0.40051  0.94951  1.0000
  H   H1605     1.0  0.68677  0.18679  0.81524  1.0000
  C   C906      1.0  0.66019  0.08792  0.78983  1.0000
  H   H1606     1.0  0.70601  0.08706  0.70833  1.0000
  H   H1607     1.0  0.69515  0.19526  0.72034  1.0000
  H   H1608     1.0  0.76688  0.99526  0.66401  1.0000
  C   C907      1.0  0.69590  0.28695  0.83874  1.0000
  C   C908      1.0  0.88046  0.18092  0.56482  1.0000
  H   H1609     1.0  0.80633  0.30119  0.91290  1.0000
  H   H1610     1.0  0.71465  0.48690  0.85014  1.0000
  H   H1611     1.0  0.80617  0.42779  0.92125  1.0000
  H   H1612     1.0  0.71855  0.08536  0.75814  1.0000
  H   H1613     1.0  0.72075  0.06130  0.69940  1.0000
  H   H1614     1.0  0.71458  0.03795  0.57533  1.0000
  H   H1615     1.0  0.66797  0.22687  0.67855  1.0000
  C   C909      1.0  0.71069  0.06977  0.71700  1.0000
  H   H1616     1.0  0.80991  0.21486  0.53466  1.0000
  C   C910      1.0  0.72677  0.07334  0.74254  1.0000
  H   H1617     1.0  0.69269  0.25640  0.69124  1.0000
  C   C911      1.0  0.79561  0.31653  0.91889  1.0000
  C   C912      1.0  0.66643  0.17000  0.97501  1.0000
  H   H1618     1.0  0.96055  0.34722  0.59486  1.0000
  H   H1619     1.0  0.97341  0.36687  0.57030  1.0000
  H   H1620     1.0  0.72376  0.40299  0.75470  1.0000
  H   H1621     1.0  0.73178  0.05705  0.75357  1.0000
  C   C913      1.0  0.72355  0.26994  0.70565  1.0000
  H   H1622     1.0  0.71710  0.18240  0.81218  1.0000
  H   H1623     1.0  0.79856  0.14765  0.58646  1.0000
  H   H1624     1.0  0.80928  0.13235  0.55527  1.0000
  H   H1625     1.0  0.83289  0.23185  0.54251  1.0000
  H   H1626     1.0  0.68396  0.08355  0.67002  1.0000
  H   H1627     1.0  0.65788  0.24966  0.71346  1.0000
  C   C914      1.0  0.68042  0.20755  0.71706  1.0000
  C   C915      1.0  0.69216  0.47727  0.81567  1.0000
  H   H1628     1.0  0.87193  0.32659  0.56462  1.0000
  H   H1629     1.0  0.66516  0.20787  0.77249  1.0000
  H   H1630     1.0  0.97168  0.33954  0.53071  1.0000
  N   N50       1.0  0.68089  0.22702  0.73804  1.0000
  H   H1631     1.0  0.91548  0.17426  0.57763  1.0000
  C   C916      1.0  0.70190  0.24044  0.73374  1.0000
  C   C917      1.0  0.68111  0.21679  0.76814  1.0000
  H   H1632     1.0  0.65966  0.45923  0.77970  1.0000
  N   N51       1.0  0.68959  0.05708  0.72348  1.0000
  H   H1633     1.0  0.89924  0.19277  0.60149  1.0000
  H   H1634     1.0  0.86848  0.21659  0.55858  1.0000
  H   H1635     1.0  0.68150  0.23045  0.78447  1.0000
  H   H1636     1.0  0.71642  0.22879  0.72698  1.0000
  C   C918      1.0  0.68698  0.45406  0.82997  1.0000
  H   H1637     1.0  0.79133  0.46976  0.95110  1.0000
  H   H1638     1.0  0.75852  0.32853  0.98929  1.0000
  H   H1639     1.0  0.80668  0.41635  0.95766  1.0000
  H   H1640     1.0  0.67257  0.41575  0.75485  1.0000
  H   H1641     1.0  0.67138  0.26924  0.76271  1.0000
  H   H1642     1.0  0.82576  0.43804  0.94710  1.0000
  C   C919      1.0  0.75971  0.34684  0.98895  1.0000
  S   S208      1.0  0.66602  0.25274  0.83744  1.0000
  H   H1643     1.0  0.94826  0.22740  0.54675  1.0000
  C   C920      1.0  0.97137  0.34853  0.57521  1.0000
  C   C921      1.0  0.67295  0.07152  0.74153  1.0000
  H   H1644     1.0  0.67311  0.38192  0.87181  1.0000
  H   H1645     1.0  0.97440  0.22601  0.56683  1.0000
  H   H1646     1.0  0.77410  0.13660  0.50420  1.0000
  C   C922      1.0  0.66545  0.41744  0.85973  1.0000
  H   H1647     1.0  0.76716  0.16699  0.50767  1.0000
  H   H1648     1.0  0.65812  0.18742  0.97436  1.0000
  C   C923      1.0  0.65843  0.15726  0.94874  1.0000
  C   C924      1.0  0.65920  0.24162  0.73515  1.0000
  C   C925      1.0  0.86139  0.20857  0.50231  1.0000
  H   H1649     1.0  0.66501  0.19767  0.72108  1.0000
  C   C926      1.0  0.65855  0.39469  0.87252  1.0000
  H   H1650     1.0  0.67410  0.08992  0.73582  1.0000
  H   H1651     1.0  0.97437  0.25768  0.53153  1.0000
  H   H1652     1.0  0.66088  0.08533  0.81357  1.0000
  C   C927      1.0  0.70545  0.99229  0.63650  1.0000
  C   C928      1.0  0.72285  0.10062  0.49955  1.0000
  H   H1653     1.0  0.66704  0.05536  0.63728  1.0000
  H   H1654     1.0  0.70861  0.14817  0.99608  1.0000
  H   H1655     1.0  0.87855  0.20814  0.51197  1.0000
  H   H1656     1.0  0.74516  0.14700  0.50917  1.0000
  C   C929      1.0  0.76160  0.15076  0.49877  1.0000
  C   C930      1.0  0.74978  0.99452  0.65595  1.0000
  H   H1657     1.0  0.70739  0.99572  0.51914  1.0000
  C   C931      1.0  0.69532  0.99172  0.53686  1.0000
  H   H1658     1.0  0.68802  0.99162  0.62970  1.0000
  H   H1659     1.0  0.65798  0.08522  0.69066  1.0000
  C   C932      1.0  0.70805  0.11999  0.49868  1.0000
  H   H1660     1.0  0.98840  0.34032  0.57967  1.0000
  C   C933      1.0  0.65630  0.06683  0.65124  1.0000
  Fe  Fe105     1.0  0.78001  0.59662  0.08481  1.0000
  S   S209      1.0  0.74387  0.59016  0.09486  1.0000
  S   S210      1.0  0.79412  0.59121  0.03936  1.0000
  Fe  Fe106     1.0  0.79012  0.60823  0.14829  1.0000
  S   S211      1.0  0.75411  0.60231  0.16253  1.0000
  S   S212      1.0  0.82047  0.61975  0.17435  1.0000
  Fe  Fe107     1.0  0.75704  0.57094  0.13408  1.0000
  S   S213      1.0  0.73944  0.53746  0.14318  1.0000
  Fe  Fe108     1.0  0.74378  0.62170  0.12196  1.0000
  S   S214      1.0  0.71827  0.65076  0.11030  1.0000
  S   S215      1.0  0.79362  0.57560  0.12246  1.0000
  S   S216      1.0  0.77952  0.62926  0.10940  1.0000
  Fe  Fe109     1.0  0.90601  0.70871  0.33281  1.0000
  S   S217      1.0  0.88266  0.68082  0.34535  1.0000
  S   S218      1.0  0.94322  0.69496  0.33130  1.0000
  Fe  Fe110     1.0  0.86653  0.74446  0.33476  1.0000
  S   S219      1.0  0.84148  0.71899  0.34816  1.0000
  S   S220      1.0  0.85641  0.78222  0.33035  1.0000
  Fe  Fe111     1.0  0.86830  0.70523  0.37849  1.0000
  S   S221      1.0  0.86001  0.69097  0.42311  1.0000
  Fe  Fe112     1.0  0.85761  0.69671  0.31360  1.0000
  S   S222      1.0  0.82992  0.67921  0.28844  1.0000
  S   S223      1.0  0.89252  0.73228  0.36772  1.0000
  S   S224      1.0  0.88182  0.72306  0.29858  1.0000
  Fe  Fe113     1.0  0.73501  0.85068  0.34857  1.0000
  S   S225      1.0  0.69935  0.84682  0.36499  1.0000
  S   S226      1.0  0.75295  0.81541  0.34931  1.0000
  Fe  Fe114     1.0  0.72440  0.90134  0.33370  1.0000
  S   S227      1.0  0.68826  0.89968  0.34836  1.0000
  S   S228      1.0  0.73788  0.93427  0.31463  1.0000
  Fe  Fe115     1.0  0.70290  0.88031  0.38677  1.0000
  S   S229      1.0  0.68905  0.88993  0.43145  1.0000
  Fe  Fe116     1.0  0.68848  0.86617  0.32492  1.0000
  H   H1661     1.0  0.67986  0.63973  0.06127  1.0000
  S   S230      1.0  0.73932  0.88319  0.37310  1.0000
  S   S231      1.0  0.72383  0.86886  0.30770  1.0000
  C   C934      1.0  0.72722  0.96294  0.31975  1.0000
  C   C935      1.0  0.70701  0.96818  0.33487  1.0000
  H   H1662     1.0  0.80707  0.77879  0.40016  1.0000
  H   H1663     1.0  0.69764  0.95460  0.34434  1.0000
  H   H1664     1.0  0.77387  0.69520  0.01356  1.0000
  C   C936      1.0  0.70191  0.88117  0.46454  1.0000
  H   H1665     1.0  0.66067  0.76929  0.21625  1.0000
  H   H1666     1.0  0.82516  0.73474  0.08108  1.0000
  H   H1667     1.0  0.66295  0.60101  0.06226  1.0000
  C   C937      1.0  0.79160  0.76438  0.46994  1.0000
  H   H1668     1.0  0.73928  0.70585  0.04104  1.0000
  C   C938      1.0  0.86388  0.70456  0.45659  1.0000
  H   H1669     1.0  0.69162  0.58825  0.06360  1.0000
  C   C939      1.0  0.87131  0.72673  0.45810  1.0000
  C   C940      1.0  0.82827  0.72566  0.06042  1.0000
  H   H1670     1.0  0.87566  0.73568  0.43849  1.0000
  C   C941      1.0  0.82758  0.79171  0.33479  1.0000
  C   C942      1.0  0.82163  0.81516  0.33651  1.0000
  C   C943      1.0  0.79879  0.82293  0.34066  1.0000
  C   C944      1.0  0.78183  0.80723  0.34328  1.0000
  C   C945      1.0  0.78780  0.78387  0.34152  1.0000
  C   C946      1.0  0.81048  0.77619  0.33704  1.0000
  H   H1671     1.0  0.83474  0.82733  0.33463  1.0000
  H   H1672     1.0  0.79438  0.84100  0.34197  1.0000
  H   H1673     1.0  0.77478  0.77164  0.34340  1.0000
  H   H1674     1.0  0.81471  0.75823  0.33502  1.0000
  C   C947      1.0  0.75095  0.50872  0.14184  1.0000
  C   C948      1.0  0.67105  0.59447  0.15234  1.0000
  H   H1675     1.0  0.76209  0.66008  0.06077  1.0000
  H   H1676     1.0  0.72977  0.68760  0.06960  1.0000
  H   H1677     1.0  0.78593  0.51702  0.13751  1.0000
  C   C949      1.0  0.73262  0.86224  0.49174  1.0000
  C   C950      1.0  0.78094  0.60285  0.00787  1.0000
  H   H1678     1.0  0.73512  0.82517  0.43792  1.0000
  H   H1679     1.0  0.85427  0.62448  0.07971  1.0000
  H   H1680     1.0  0.75472  0.62277  0.03005  1.0000
  C   C951      1.0  0.69496  0.66449  0.12866  1.0000
  C   C952      1.0  0.68187  0.68141  0.11380  1.0000
  H   H1681     1.0  0.80817  0.70211  0.39506  1.0000
  H   H1682     1.0  0.82559  0.61570  0.07721  1.0000
  H   H1683     1.0  0.84966  0.79995  0.42195  1.0000
  C   C953      1.0  0.68897  0.65892  0.15703  1.0000
  H   H1684     1.0  0.74421  0.49881  0.05164  1.0000
  H   H1685     1.0  0.84843  0.78212  0.39061  1.0000
  H   H1686     1.0  0.69931  0.64649  0.16899  1.0000
  C   C954      1.0  0.82236  0.63787  0.20483  1.0000
  C   C955      1.0  0.80343  0.64450  0.22176  1.0000
  C   C956      1.0  0.80610  0.65734  0.24698  1.0000
  C   C957      1.0  0.82762  0.66412  0.25544  1.0000
  C   C958      1.0  0.84647  0.65790  0.23821  1.0000
  C   C959      1.0  0.84387  0.64467  0.21330  1.0000
  H   H1687     1.0  0.78680  0.63932  0.21574  1.0000
  H   H1688     1.0  0.79136  0.66202  0.26007  1.0000
  H   H1689     1.0  0.86307  0.66314  0.24412  1.0000
  H   H1690     1.0  0.85866  0.63964  0.20047  1.0000
  C   C960      1.0  0.96965  0.70804  0.32688  1.0000
  C   C961      1.0  0.97138  0.72971  0.31446  1.0000
  H   H1691     1.0  0.92853  0.73335  0.43823  1.0000
  H   H1692     1.0  0.95625  0.73904  0.30687  1.0000
  H   H1693     1.0  0.71326  0.96258  0.48569  1.0000
  H   H1694     1.0  0.84419  0.66039  0.05400  1.0000
  H   H1695     1.0  0.68470  0.58685  0.21000  1.0000
  H   H1696     1.0  0.88319  0.59288  0.34563  1.0000
  C   C962      1.0  0.79179  0.71010  0.38733  1.0000
  H   H1697     1.0  0.68851  0.76686  0.20016  1.0000
  H   H1698     1.0  0.73763  0.89735  0.21834  1.0000
  C   C963      1.0  0.79161  0.73918  0.42725  1.0000
  H   H1699     1.0  0.77374  0.74245  0.38552  1.0000
  H   H1700     1.0  0.77756  0.73000  0.43766  1.0000
  H   H1701     1.0  0.80424  0.74360  0.38295  1.0000
  C   C964      1.0  0.73949  0.98100  0.30840  1.0000
  C   C965      1.0  0.65748  0.84047  0.26472  1.0000
  H   H1702     1.0  0.67328  0.62300  0.10865  1.0000
  H   H1703     1.0  0.84621  0.71889  0.06001  1.0000
  H   H1704     1.0  0.73193  0.86555  0.44519  1.0000
  H   H1705     1.0  0.77755  0.70123  0.39755  1.0000
  H   H1706     1.0  0.69659  0.51909  0.11031  1.0000
  H   H1707     1.0  0.68389  0.61703  0.20138  1.0000
  H   H1708     1.0  0.69560  0.89821  0.21403  1.0000
  H   H1709     1.0  0.79728  0.63990  0.04603  1.0000
  H   H1710     1.0  0.68640  0.68594  0.09191  1.0000
  N   N52       1.0  0.85489  0.60959  0.32306  1.0000
  C   C966      1.0  0.86909  0.58841  0.33120  1.0000
  C   C967      1.0  0.87053  0.62777  0.31329  1.0000
  C   C968      1.0  0.84283  0.61813  0.35010  1.0000
  C   C969      1.0  0.83736  0.60539  0.30032  1.0000
  C   C970      1.0  0.84344  0.58652  0.27790  1.0000
  H   H1711     1.0  0.75937  0.97762  0.42633  1.0000
  C   C971      1.0  0.82867  0.64105  0.34717  1.0000
  C   C972      1.0  0.88542  0.62275  0.28624  1.0000
  C   C973      1.0  0.90239  0.64133  0.28151  1.0000
  C   C974      1.0  0.82512  0.58565  0.25494  1.0000
  H   H1712     1.0  0.78736  0.54284  0.05434  1.0000
  C   C975      1.0  0.81441  0.64601  0.37426  1.0000
  C   C976      1.0  0.77716  0.67831  0.02431  1.0000
  H   H1713     1.0  0.87773  0.58077  0.31204  1.0000
  H   H1714     1.0  0.86068  0.64381  0.30785  1.0000
  H   H1715     1.0  0.88201  0.63189  0.33126  1.0000
  H   H1716     1.0  0.85528  0.62013  0.36778  1.0000
  H   H1717     1.0  0.83077  0.60549  0.35808  1.0000
  H   H1718     1.0  0.82108  0.60060  0.31053  1.0000
  H   H1719     1.0  0.83294  0.62149  0.28818  1.0000
  H   H1720     1.0  0.84475  0.56947  0.28841  1.0000
  H   H1721     1.0  0.85978  0.58918  0.26681  1.0000
  H   H1722     1.0  0.66912  0.80726  0.34217  1.0000
  H   H1723     1.0  0.68866  0.51740  0.07297  1.0000
  H   H1724     1.0  0.81702  0.64087  0.32853  1.0000
  H   H1725     1.0  0.83994  0.65546  0.34440  1.0000
  H   H1726     1.0  0.89535  0.60630  0.28800  1.0000
  H   H1727     1.0  0.87458  0.62271  0.26683  1.0000
  H   H1728     1.0  0.91457  0.64146  0.29966  1.0000
  H   H1729     1.0  0.91212  0.63810  0.26123  1.0000
  H   H1730     1.0  0.89345  0.65840  0.27975  1.0000
  H   H1731     1.0  0.80845  0.58205  0.26488  1.0000
  H   H1732     1.0  0.82349  0.60206  0.24298  1.0000
  H   H1733     1.0  0.82978  0.57204  0.23924  1.0000
  C   C977      1.0  0.68366  0.56492  0.11808  1.0000
  H   H1734     1.0  0.78778  0.84932  0.47035  1.0000
  C   C978      1.0  0.68629  0.95018  0.46001  1.0000
  H   H1735     1.0  0.80441  0.66237  0.37124  1.0000
  H   H1736     1.0  0.80240  0.63235  0.37835  1.0000
  H   H1737     1.0  0.82555  0.64758  0.39328  1.0000
  C   C979      1.0  0.70337  0.90950  0.22975  1.0000
  C   C980      1.0  0.80108  0.84072  0.48406  1.0000
  C   C981      1.0  0.69501  0.59485  0.16590  1.0000
  C   C982      1.0  0.69337  0.60043  0.19799  1.0000
  H   H1738     1.0  0.73481  0.80594  0.40812  1.0000
  H   H1739     1.0  0.70498  0.60805  0.15520  1.0000
  H   H1740     1.0  0.80227  0.66162  0.07064  1.0000
  H   H1741     1.0  0.81535  0.69481  0.07706  1.0000
  H   H1742     1.0  0.94589  0.71560  0.46117  1.0000
  C   C983      1.0  0.67158  0.83369  0.21578  1.0000
  N   N53       1.0  0.72515  0.77917  0.27491  1.0000
  C   C984      1.0  0.72821  0.80352  0.26537  1.0000
  C   C985      1.0  0.71348  0.77875  0.30412  1.0000
  C   C986      1.0  0.74859  0.76765  0.27788  1.0000
  C   C987      1.0  0.71237  0.76608  0.25300  1.0000
  C   C988      1.0  0.68797  0.77521  0.24594  1.0000
  C   C989      1.0  0.74101  0.80683  0.23638  1.0000
  C   C990      1.0  0.74996  0.74405  0.29357  1.0000
  C   C991      1.0  0.69508  0.79801  0.31047  1.0000
  H   H1743     1.0  0.77123  0.68755  0.07034  1.0000
  C   C992      1.0  0.67855  0.76311  0.21995  1.0000
  C   C993      1.0  0.74253  0.83214  0.22898  1.0000
  C   C994      1.0  0.77390  0.73282  0.29141  1.0000
  H   H1744     1.0  0.73749  0.81253  0.28235  1.0000
  H   H1745     1.0  0.71168  0.81321  0.26330  1.0000
  H   H1746     1.0  0.70585  0.76200  0.30787  1.0000
  H   H1747     1.0  0.72615  0.78038  0.32158  1.0000
  H   H1748     1.0  0.75995  0.77886  0.28975  1.0000
  H   H1749     1.0  0.75659  0.76498  0.25627  1.0000
  H   H1750     1.0  0.72220  0.76456  0.23246  1.0000
  H   H1751     1.0  0.71058  0.74822  0.26038  1.0000
  H   H1752     1.0  0.68735  0.79360  0.24078  1.0000
  H   H1753     1.0  0.67649  0.77200  0.26447  1.0000
  H   H1754     1.0  0.75866  0.79942  0.23748  1.0000
  H   H1755     1.0  0.73209  0.79890  0.21841  1.0000
  H   H1756     1.0  0.73819  0.73210  0.28424  1.0000
  H   H1757     1.0  0.74574  0.74594  0.31682  1.0000
  H   H1758     1.0  0.70331  0.81441  0.31345  1.0000
  C   C995      1.0  0.67654  0.54865  0.09399  1.0000
  H   H1759     1.0  0.79615  0.50172  0.05316  1.0000
  H   H1760     1.0  0.67434  0.89549  0.49051  1.0000
  H   H1761     1.0  0.79862  0.78063  0.47702  1.0000
  H   H1762     1.0  0.82549  0.73810  0.04240  1.0000
  C   C996      1.0  0.68943  0.62389  0.05445  1.0000
  C   C997      1.0  0.68042  0.60308  0.07005  1.0000
  H   H1763     1.0  0.75112  0.84106  0.24649  1.0000
  H   H1764     1.0  0.75247  0.83409  0.20873  1.0000
  H   H1765     1.0  0.72531  0.84023  0.22566  1.0000
  H   H1766     1.0  0.77478  0.71652  0.30385  1.0000
  H   H1767     1.0  0.77842  0.72900  0.26860  1.0000
  H   H1768     1.0  0.78662  0.74407  0.30026  1.0000
  H   H1769     1.0  0.69907  0.60685  0.10875  1.0000
  H   H1770     1.0  0.79097  0.70786  0.36360  1.0000
  H   H1771     1.0  0.75408  0.76411  0.43487  1.0000
  H   H1772     1.0  0.70468  0.57823  0.16401  1.0000
  H   H1773     1.0  0.68856  0.89736  0.26995  1.0000
  C   C998      1.0  0.76339  0.67795  0.05303  1.0000
  H   H1774     1.0  0.83772  0.76797  0.45276  1.0000
  H   H1775     1.0  0.71089  0.53560  0.08320  1.0000
  H   H1776     1.0  0.71071  0.60154  0.20686  1.0000
  H   H1777     1.0  0.94773  0.65563  0.42236  1.0000
  H   H1778     1.0  0.66524  0.66559  0.19214  1.0000
  C   C999      1.0  0.96174  0.70031  0.41466  1.0000
  H   H1779     1.0  0.75514  0.97721  0.29666  1.0000
  H   H1780     1.0  0.67416  0.55741  0.07295  1.0000
  C   C1000     1.0  0.73679  0.94358  0.40566  1.0000
  H   H1781     1.0  0.97131  0.69622  0.39442  1.0000
  H   H1782     1.0  0.79543  0.72854  0.48419  1.0000
  H   H1783     1.0  0.67755  0.93688  0.30777  1.0000
  C   C1001     1.0  0.73917  0.68790  0.04875  1.0000
  H   H1784     1.0  0.83918  0.56746  0.33739  1.0000
  C   C1002     1.0  0.68185  0.79303  0.33810  1.0000
  H   H1785     1.0  0.73490  0.90879  0.25419  1.0000
  H   H1786     1.0  0.66745  0.95017  0.45972  1.0000
  H   H1787     1.0  0.68440  0.83614  0.19935  1.0000
  H   H1788     1.0  0.97038  0.68999  0.43207  1.0000
  H   H1789     1.0  0.70647  0.92600  0.21887  1.0000
  H   H1790     1.0  0.69333  0.93237  0.46215  1.0000
  H   H1791     1.0  0.92222  0.65918  0.40124  1.0000
  H   H1792     1.0  0.66326  0.61197  0.15524  1.0000
  H   H1793     1.0  0.94945  0.66216  0.38410  1.0000
  H   H1794     1.0  0.77398  0.81146  0.42631  1.0000
  H   H1795     1.0  0.86866  0.77507  0.41842  1.0000
  C   C1003     1.0  0.76296  0.79953  0.43794  1.0000
  N   N54       1.0  0.96236  0.72545  0.42116  1.0000
  C   C1004     1.0  0.76829  0.77471  0.42769  1.0000
  H   H1796     1.0  0.66087  0.58289  0.16593  1.0000
  H   H1797     1.0  0.70774  0.62538  0.05910  1.0000
  C   C1005     1.0  0.80758  0.65501  0.04923  1.0000
  H   H1798     1.0  0.79458  0.71403  0.05961  1.0000
  C   C1006     1.0  0.76222  0.61844  0.00932  1.0000
  H   H1799     1.0  0.75538  0.93947  0.40462  1.0000
  H   H1800     1.0  0.73013  0.93834  0.42707  1.0000
  H   H1801     1.0  0.72857  0.93355  0.38889  1.0000
  H   H1802     1.0  0.71815  0.49441  0.14662  1.0000
  C   C1007     1.0  0.73161  0.96897  0.39986  1.0000
  H   H1803     1.0  0.86010  0.53360  0.35845  1.0000
  C   C1008     1.0  0.72651  0.89851  0.23778  1.0000
  C   C1009     1.0  0.95477  0.73855  0.39449  1.0000
  C   C1010     1.0  0.95483  0.76481  0.39574  1.0000
  H   H1804     1.0  0.80852  0.79469  0.43197  1.0000
  C   C1011     1.0  0.93777  0.69083  0.41078  1.0000
  H   H1805     1.0  0.85297  0.67580  0.48144  1.0000
  H   H1806     1.0  0.71289  0.97168  0.39862  1.0000
  C   C1012     1.0  0.94992  0.77553  0.36609  1.0000
  C   C1013     1.0  0.80941  0.77693  0.42387  1.0000
  C   C1014     1.0  0.93953  0.66537  0.40426  1.0000
  H   H1807     1.0  0.67271  0.77708  0.33600  1.0000
  H   H1808     1.0  0.76872  0.66597  0.01057  1.0000
  C   C1015     1.0  0.94629  0.73058  0.44619  1.0000
  C   C1016     1.0  0.95161  0.75073  0.46597  1.0000
  C   C1017     1.0  0.77444  0.53109  0.06218  1.0000
  H   H1809     1.0  0.96374  0.77063  0.35058  1.0000
  H   H1810     1.0  0.96494  0.73281  0.37548  1.0000
  H   H1811     1.0  0.93717  0.73468  0.38899  1.0000
  H   H1812     1.0  0.83401  0.68975  0.02601  1.0000
  H   H1813     1.0  0.94119  0.77135  0.41056  1.0000
  C   C1018     1.0  0.85116  0.78212  0.41420  1.0000
  H   H1814     1.0  0.80703  0.82460  0.47349  1.0000
  H   H1815     1.0  0.92866  0.69939  0.39260  1.0000
  H   H1816     1.0  0.92706  0.69307  0.43044  1.0000
  H   H1817     1.0  0.83801  0.63588  0.03281  1.0000
  H   H1818     1.0  0.69203  0.70538  0.02930  1.0000
  H   H1819     1.0  0.69211  0.95724  0.43912  1.0000
  C   C1019     1.0  0.83621  0.63073  0.07847  1.0000
  C   C1020     1.0  0.66980  0.66995  0.17019  1.0000
  N   N55       1.0  0.67031  0.58754  0.12107  1.0000
  C   C1021     1.0  0.74137  0.98390  0.42369  1.0000
  H   H1820     1.0  0.68252  0.55459  0.13835  1.0000
  C   C1022     1.0  0.73833  0.80716  0.43152  1.0000
  N   N56       1.0  0.79073  0.76361  0.43725  1.0000
  C   C1023     1.0  0.79011  0.73549  0.39431  1.0000
  H   H1821     1.0  0.96631  0.74570  0.47989  1.0000
  H   H1822     1.0  0.68233  0.67720  0.03582  1.0000
  H   H1823     1.0  0.76737  0.77578  0.40375  1.0000
  H   H1824     1.0  0.68906  0.85219  0.24834  1.0000
  H   H1825     1.0  0.76553  0.80141  0.46142  1.0000
  C   C1024     1.0  0.77856  0.50786  0.04796  1.0000
  C   C1025     1.0  0.67435  0.84270  0.24360  1.0000
  H   H1826     1.0  0.83662  0.74988  0.42136  1.0000
  H   H1827     1.0  0.72456  0.88102  0.24637  1.0000
  H   H1828     1.0  0.93351  0.77002  0.35764  1.0000
  H   H1829     1.0  0.68269  0.80062  0.29288  1.0000
  C   C1026     1.0  0.77426  0.50342  0.13875  1.0000
  C   C1027     1.0  0.83393  0.76751  0.42945  1.0000
  H   H1830     1.0  0.81083  0.70640  0.01227  1.0000
  C   C1028     1.0  0.69445  0.96441  0.48483  1.0000
  H   H1831     1.0  0.94888  0.79440  0.36774  1.0000
  H   H1832     1.0  0.80753  0.72984  0.43416  1.0000
  H   H1833     1.0  0.87738  0.75499  0.48586  1.0000
  H   H1834     1.0  0.88645  0.54782  0.35597  1.0000
  H   H1835     1.0  0.69679  0.92607  0.27003  1.0000
  C   C1029     1.0  0.85612  0.56950  0.34698  1.0000
  C   C1030     1.0  0.72304  0.86931  0.46520  1.0000
  H   H1836     1.0  0.72642  0.79658  0.44382  1.0000
  C   C1031     1.0  0.80483  0.74439  0.48583  1.0000
  H   H1837     1.0  0.74875  0.85280  0.49181  1.0000
  H   H1838     1.0  0.77697  0.51082  0.02440  1.0000
  C   C1032     1.0  0.69428  0.52900  0.08990  1.0000
  N   N57       1.0  0.80245  0.67241  0.02563  1.0000
  H   H1839     1.0  0.70209  0.56777  0.11526  1.0000
  H   H1840     1.0  0.77412  0.76439  0.47936  1.0000
  H   H1841     1.0  0.68942  0.98252  0.47988  1.0000
  H   H1842     1.0  0.95596  0.76618  0.45371  1.0000
  H   H1843     1.0  0.73011  0.67759  0.03304  1.0000
  C   C1033     1.0  0.85865  0.69300  0.48235  1.0000
  H   H1844     1.0  0.85351  0.57403  0.37002  1.0000
  H   H1845     1.0  0.69351  0.79149  0.35679  1.0000
  H   H1846     1.0  0.73258  0.97988  0.44433  1.0000
  H   H1847     1.0  0.67883  0.74438  0.22368  1.0000
  C   C1034     1.0  0.68093  0.60585  0.10318  1.0000
  C   C1035     1.0  0.86947  0.54651  0.34612  1.0000
  C   C1036     1.0  0.83273  0.64614  0.05190  1.0000
  H   H1848     1.0  0.87160  0.54062  0.32353  1.0000
  C   C1037     1.0  0.81209  0.70625  0.05822  1.0000
  C   C1038     1.0  0.66300  0.69272  0.12709  1.0000
  H   H1849     1.0  0.82201  0.74083  0.47667  1.0000
  C   C1039     1.0  0.87248  0.73754  0.48499  1.0000
  H   H1850     1.0  0.75736  0.53871  0.05677  1.0000
  C   C1040     1.0  0.69075  0.88637  0.49081  1.0000
  H   H1851     1.0  0.83180  0.64019  0.09854  1.0000
  H   H1852     1.0  0.77591  0.52956  0.08597  1.0000
  H   H1853     1.0  0.97143  0.77070  0.40274  1.0000
  C   C1041     1.0  0.67870  0.69347  0.02393  1.0000
  C   C1042     1.0  0.81551  0.69360  0.02931  1.0000
  H   H1854     1.0  0.68761  0.62206  0.03080  1.0000
  C   C1043     1.0  0.68807  0.91348  0.25690  1.0000
  H   H1855     1.0  0.66022  0.54114  0.10006  1.0000
  C   C1044     1.0  0.98648  0.73016  0.42911  1.0000
  H   H1856     1.0  0.91697  0.76440  0.47262  1.0000
  S   S232      1.0  0.65850  0.85425  0.29878  1.0000
  H   H1857     1.0  0.97784  0.69511  0.23312  1.0000
  C   C1045     1.0  0.93140  0.75719  0.48563  1.0000
  C   C1046     1.0  0.65682  0.68704  0.15536  1.0000
  H   H1858     1.0  0.73908  0.97307  0.37853  1.0000
  H   H1859     1.0  0.81547  0.85212  0.48553  1.0000
  H   H1860     1.0  0.98696  0.66540  0.23303  1.0000
  H   H1861     1.0  0.98804  0.74827  0.43480  1.0000
  H   H1862     1.0  0.66195  0.70089  0.03136  1.0000
  H   H1863     1.0  0.66165  0.88649  0.23685  1.0000
  H   H1864     1.0  0.65989  0.95862  0.29036  1.0000
  N   N58       1.0  0.66370  0.92138  0.25111  1.0000
  H   H1865     1.0  0.67499  0.95575  0.24645  1.0000
  C   C1047     1.0  0.76089  0.49098  0.05851  1.0000
  H   H1866     1.0  0.67156  0.94176  0.21351  1.0000
  H   H1867     1.0  0.65655  0.90703  0.20930  1.0000
  C   C1048     1.0  0.66381  0.94396  0.23533  1.0000
  H   H1868     1.0  0.98849  0.67948  0.34627  1.0000
  H   H1869     1.0  0.76064  0.49118  0.08253  1.0000
  C   C1049     1.0  0.66006  0.94150  0.30067  1.0000
  C   C1050     1.0  0.73616  0.49063  0.14383  1.0000
  H   H1870     1.0  0.92579  0.74209  0.49793  1.0000
  Fe  Fe117     1.0  0.72519  0.86775  0.59704  1.0000
  S   S233      1.0  0.74796  0.89251  0.61726  1.0000
  S   S234      1.0  0.73440  0.85739  0.55070  1.0000
  Fe  Fe118     1.0  0.69994  0.85950  0.65517  1.0000
  S   S235      1.0  0.72088  0.88421  0.67868  1.0000
  C   C1051     1.0  0.67176  0.83093  0.76241  1.0000
  Fe  Fe119     1.0  0.71674  0.90741  0.63959  1.0000
  S   S236      1.0  0.70481  0.94544  0.63817  1.0000
  Fe  Fe120     1.0  0.75041  0.86731  0.65416  1.0000
  S   S237      1.0  0.78437  0.85972  0.67575  1.0000
  S   S238      1.0  0.69352  0.88369  0.61730  1.0000
  S   S239      1.0  0.72985  0.84153  0.63280  1.0000
  Fe  Fe121     1.0  0.75906  0.62771  0.87986  1.0000
  S   S240      1.0  0.73137  0.60719  0.86210  1.0000
  S   S241      1.0  0.75450  0.64026  0.92617  1.0000
  Fe  Fe122     1.0  0.78393  0.62959  0.82006  1.0000
  S   S242      1.0  0.75807  0.60843  0.79941  1.0000
  S   S243      1.0  0.81484  0.64340  0.79609  1.0000
  Fe  Fe123     1.0  0.73247  0.63104  0.82382  1.0000
  S   S244      1.0  0.70426  0.65104  0.80015  1.0000
  Fe  Fe124     1.0  0.75962  0.58645  0.83982  1.0000
  S   S245      1.0  0.76546  0.54788  0.84819  1.0000
  S   S246      1.0  0.75838  0.65292  0.84275  1.0000
  S   S247      1.0  0.78733  0.60636  0.85936  1.0000
  Fe  Fe125     1.0  0.86932  0.74969  0.64875  1.0000
  S   S248      1.0  0.84258  0.73379  0.62332  1.0000
  S   S249      1.0  0.86388  0.78217  0.67402  1.0000
  Fe  Fe126     1.0  0.90559  0.71166  0.63505  1.0000
  S   S250      1.0  0.88054  0.69259  0.60906  1.0000
  S   S251      1.0  0.94196  0.69682  0.64221  1.0000
  Fe  Fe127     1.0  0.87014  0.72706  0.58990  1.0000
  S   S252      1.0  0.86712  0.74113  0.54370  1.0000
  Fe  Fe128     1.0  0.85528  0.70102  0.64524  1.0000
  S   S253      1.0  0.82812  0.67897  0.66569  1.0000
  S   S254      1.0  0.89636  0.74545  0.61447  1.0000
  S   S255      1.0  0.88095  0.71751  0.67215  1.0000
  C   C1052     1.0  0.76103  0.52020  0.83452  1.0000
  H   H1871     1.0  0.77216  0.50353  0.87396  1.0000
  H   H1872     1.0  0.74808  0.67614  0.76891  1.0000
  C   C1053     1.0  0.76613  0.50104  0.85231  1.0000
  C   C1054     1.0  0.74651  0.69491  0.76537  1.0000
  C   C1055     1.0  0.81780  0.65374  0.75988  1.0000
  C   C1056     1.0  0.80079  0.65202  0.73926  1.0000
  C   C1057     1.0  0.80427  0.65978  0.71064  1.0000
  C   C1058     1.0  0.82462  0.66966  0.70224  1.0000
  C   C1059     1.0  0.84151  0.67163  0.72293  1.0000
  C   C1060     1.0  0.83815  0.66363  0.75146  1.0000
  H   H1873     1.0  0.78497  0.64464  0.74531  1.0000
  H   H1874     1.0  0.79105  0.65812  0.69489  1.0000
  H   H1875     1.0  0.85732  0.67895  0.71681  1.0000
  H   H1876     1.0  0.85148  0.66502  0.76712  1.0000
  C   C1061     1.0  0.71806  0.97182  0.64267  1.0000
  H   H1877     1.0  0.77638  0.82542  0.51101  1.0000
  C   C1062     1.0  0.74037  0.97307  0.65233  1.0000
  H   H1878     1.0  0.76651  0.73604  0.76224  1.0000
  H   H1879     1.0  0.75027  0.95756  0.65746  1.0000
  C   C1063     1.0  0.80529  0.83702  0.67359  1.0000
  C   C1064     1.0  0.82631  0.84058  0.68601  1.0000
  C   C1065     1.0  0.84376  0.82353  0.68574  1.0000
  C   C1066     1.0  0.84067  0.80254  0.67293  1.0000
  C   C1067     1.0  0.81954  0.79856  0.66062  1.0000
  C   C1068     1.0  0.80178  0.81582  0.66105  1.0000
  H   H1880     1.0  0.82915  0.85672  0.69604  1.0000
  H   H1881     1.0  0.85986  0.82676  0.69553  1.0000
  H   H1882     1.0  0.81692  0.78228  0.65095  1.0000
  H   H1883     1.0  0.78535  0.81269  0.65233  1.0000
  N   N59       1.0  0.69415  0.96617  0.54062  1.0000
  C   C1069     1.0  0.84851  0.59595  0.82821  1.0000
  H   H1884     1.0  0.93956  0.75707  0.80545  1.0000
  C   C1070     1.0  0.68296  0.66690  0.81951  1.0000
  C   C1071     1.0  0.67527  0.68850  0.80919  1.0000
  H   H1885     1.0  0.85860  0.77782  0.59406  1.0000
  C   C1072     1.0  0.96897  0.72118  0.71600  1.0000
  H   H1886     1.0  0.82318  0.86183  0.56059  1.0000
  H   H1887     1.0  0.76451  0.69296  0.72504  1.0000
  H   H1888     1.0  0.82983  0.85030  0.59616  1.0000
  C   C1073     1.0  0.67605  0.77349  0.91817  1.0000
  C   C1074     1.0  0.72146  0.86723  0.51802  1.0000
  C   C1075     1.0  0.86601  0.57623  0.71815  1.0000
  H   H1889     1.0  0.69149  0.88314  0.53743  1.0000
  H   H1890     1.0  0.75103  0.90530  0.53869  1.0000
  H   H1891     1.0  0.81603  0.73424  0.52870  1.0000
  C   C1076     1.0  0.86710  0.72603  0.51076  1.0000
  H   H1892     1.0  0.83864  0.59488  0.73933  1.0000
  H   H1893     1.0  0.85612  0.69455  0.52893  1.0000
  C   C1077     1.0  0.97018  0.73125  0.62481  1.0000
  C   C1078     1.0  0.76357  0.62403  0.95687  1.0000
  C   C1079     1.0  0.78161  0.60767  0.95533  1.0000
  C   C1080     1.0  0.66633  0.82901  0.71041  1.0000
  H   H1894     1.0  0.78937  0.60362  0.93467  1.0000
  C   C1081     1.0  0.94625  0.75215  0.69329  1.0000
  C   C1082     1.0  0.96859  0.70893  0.63522  1.0000
  N   N60       1.0  0.81738  0.56044  0.77217  1.0000
  H   H1895     1.0  0.75646  0.59132  0.74033  1.0000
  H   H1896     1.0  0.94675  0.74165  0.67350  1.0000
  H   H1897     1.0  0.95489  0.74131  0.61944  1.0000
  H   H1898     1.0  0.83126  0.53333  0.79997  1.0000
  H   H1899     1.0  0.66294  0.73161  0.90584  1.0000
  C   C1083     1.0  0.68296  0.75165  0.93476  1.0000
  C   C1084     1.0  0.79682  0.84094  0.58024  1.0000
  C   C1085     1.0  0.75218  0.78210  0.59046  1.0000
  H   H1900     1.0  0.84975  0.82599  0.56878  1.0000
  C   C1086     1.0  0.76448  0.72854  0.74057  1.0000
  C   C1087     1.0  0.77035  0.59109  0.72399  1.0000
  H   H1901     1.0  0.96644  0.70910  0.69807  1.0000
  H   H1902     1.0  0.68779  0.78703  0.92335  1.0000
  H   H1903     1.0  0.81812  0.76407  0.52089  1.0000
  H   H1904     1.0  0.83148  0.55081  0.73054  1.0000
  H   H1905     1.0  0.78160  0.85017  0.57093  1.0000
  H   H1906     1.0  0.76682  0.81143  0.60761  1.0000
  C   C1088     1.0  0.68362  0.95707  0.51383  1.0000
  C   C1089     1.0  0.67843  0.68906  0.99149  1.0000
  H   H1907     1.0  0.93020  0.77746  0.64600  1.0000
  H   H1908     1.0  0.84892  0.80003  0.54890  1.0000
  C   C1090     1.0  0.67750  0.83776  0.73404  1.0000
  C   C1091     1.0  0.72348  0.93123  0.53653  1.0000
  H   H1909     1.0  0.80450  0.58126  0.80741  1.0000
  H   H1910     1.0  0.83447  0.60569  0.83934  1.0000
  H   H1911     1.0  0.80081  0.87709  0.61775  1.0000
  H   H1912     1.0  0.73795  0.79198  0.57977  1.0000
  H   H1913     1.0  0.74687  0.73374  0.73365  1.0000
  H   H1914     1.0  0.70958  0.70938  0.93991  1.0000
  H   H1915     1.0  0.81375  0.80655  0.52294  1.0000
  C   C1092     1.0  0.81270  0.66351  0.94259  1.0000
  H   H1916     1.0  0.67697  0.77052  0.89457  1.0000
  H   H1917     1.0  0.68359  0.69531  0.88566  1.0000
  C   C1093     1.0  0.67856  0.96199  0.56594  1.0000
  C   C1094     1.0  0.98569  0.71986  0.53990  1.0000
  H   H1918     1.0  0.70214  0.98717  0.74531  1.0000
  C   C1095     1.0  0.69819  0.70207  0.89690  1.0000
  H   H1919     1.0  0.78347  0.67501  0.96701  1.0000
  C   C1096     1.0  0.90535  0.69038  0.74106  1.0000
  H   H1920     1.0  0.72179  0.95687  0.56969  1.0000
  H   H1921     1.0  0.80630  0.58721  0.72054  1.0000
  C   C1097     1.0  0.84013  0.57400  0.81563  1.0000
  H   H1922     1.0  0.94893  0.72430  0.53765  1.0000
  C   C1098     1.0  0.67211  0.65745  0.84343  1.0000
  H   H1923     1.0  0.95968  0.69513  0.53461  1.0000
  C   C1099     1.0  0.79358  0.58781  0.73829  1.0000
  H   H1924     1.0  0.70049  0.74632  0.92802  1.0000
  C   C1100     1.0  0.79128  0.83591  0.51404  1.0000
  C   C1101     1.0  0.86047  0.70357  0.50933  1.0000
  C   C1102     1.0  0.82064  0.80467  0.57975  1.0000
  H   H1925     1.0  0.80612  0.67251  0.92294  1.0000
  H   H1926     1.0  0.66526  0.96263  0.51288  1.0000
  H   H1927     1.0  0.73965  0.64161  0.98532  1.0000
  C   C1103     1.0  0.86220  0.79610  0.59159  1.0000
  H   H1928     1.0  0.65933  0.72124  0.98338  1.0000
  H   H1929     1.0  0.79060  0.75254  0.52832  1.0000
  C   C1104     1.0  0.92559  0.70522  0.74531  1.0000
  C   C1105     1.0  0.96189  0.74135  0.77273  1.0000
  H   H1930     1.0  0.90425  0.67800  0.75925  1.0000
  H   H1931     1.0  0.88927  0.70105  0.74041  1.0000
  H   H1932     1.0  0.90728  0.68068  0.72067  1.0000
  H   H1933     1.0  0.68570  0.96856  0.58611  1.0000
  C   C1106     1.0  0.69968  0.49411  0.83814  1.0000
  C   C1107     1.0  0.79037  0.59731  0.98074  1.0000
  H   H1934     1.0  0.87849  0.56177  0.72225  1.0000
  H   H1935     1.0  0.68346  0.69583  0.79055  1.0000
  S   S256      1.0  0.67139  0.83843  0.67424  1.0000
  H   H1936     1.0  0.82239  0.59555  0.78372  1.0000
  H   H1937     1.0  0.74733  0.70321  0.78670  1.0000
  H   H1938     1.0  0.92629  0.71343  0.69969  1.0000
  N   N61       1.0  0.78157  0.73756  0.71934  1.0000
  C   C1108     1.0  0.77662  0.76298  0.71634  1.0000
  C   C1109     1.0  0.77834  0.72595  0.69071  1.0000
  C   C1110     1.0  0.80499  0.73181  0.73103  1.0000
  C   C1111     1.0  0.82515  0.74244  0.71511  1.0000
  C   C1112     1.0  0.77870  0.77714  0.74414  1.0000
  C   C1113     1.0  0.78414  0.73948  0.66285  1.0000
  C   C1114     1.0  0.78211  0.72492  0.63600  1.0000
  C   C1115     1.0  0.84696  0.73861  0.73245  1.0000
  C   C1116     1.0  0.77675  0.80271  0.73731  1.0000
  H   H1939     1.0  0.75908  0.76643  0.70799  1.0000
  H   H1940     1.0  0.78791  0.77060  0.70001  1.0000
  H   H1941     1.0  0.78828  0.70929  0.69007  1.0000
  H   H1942     1.0  0.76027  0.72166  0.68810  1.0000
  H   H1943     1.0  0.80573  0.73634  0.75423  1.0000
  H   H1944     1.0  0.80881  0.71307  0.73070  1.0000
  H   H1945     1.0  0.82246  0.76108  0.71185  1.0000
  H   H1946     1.0  0.82806  0.73415  0.69394  1.0000
  H   H1947     1.0  0.76488  0.77350  0.75966  1.0000
  H   H1948     1.0  0.79529  0.77350  0.75473  1.0000
  H   H1949     1.0  0.77208  0.75451  0.66015  1.0000
  H   H1950     1.0  0.80154  0.74555  0.66342  1.0000
  H   H1951     1.0  0.78610  0.73514  0.61647  1.0000
  H   H1952     1.0  0.79427  0.70987  0.63692  1.0000
  H   H1953     1.0  0.76460  0.71901  0.63405  1.0000
  H   H1954     1.0  0.86128  0.74616  0.72069  1.0000
  H   H1955     1.0  0.84518  0.74697  0.75377  1.0000
  H   H1956     1.0  0.85102  0.72011  0.73568  1.0000
  H   H1957     1.0  0.77724  0.81251  0.75761  1.0000
  H   H1958     1.0  0.79116  0.80769  0.72340  1.0000
  H   H1959     1.0  0.76052  0.80741  0.72621  1.0000
  H   H1960     1.0  0.93621  0.77027  0.50122  1.0000
  H   H1961     1.0  0.82182  0.89171  0.59734  1.0000
  H   H1962     1.0  0.83425  0.56320  0.83380  1.0000
  H   H1963     1.0  0.74619  0.77647  0.61205  1.0000
  H   H1964     1.0  0.79116  0.51871  0.76412  1.0000
  H   H1965     1.0  0.97187  0.71004  0.73518  1.0000
  H   H1966     1.0  0.80813  0.64545  0.94142  1.0000
  C   C1117     1.0  0.94895  0.75163  0.74617  1.0000
  C   C1118     1.0  0.71944  0.68843  0.88668  1.0000
  H   H1967     1.0  0.76020  0.93385  0.53327  1.0000
  H   H1968     1.0  0.73487  0.69448  0.89713  1.0000
  H   H1969     1.0  0.95902  0.70904  0.56924  1.0000
  C   C1119     1.0  0.80934  0.51734  0.77028  1.0000
  H   H1970     1.0  0.72131  0.69044  0.86293  1.0000
  H   H1971     1.0  0.69024  0.85013  0.73049  1.0000
  H   H1972     1.0  0.78546  0.85248  0.52349  1.0000
  H   H1973     1.0  0.85032  0.54526  0.75939  1.0000
  H   H1974     1.0  0.96775  0.74886  0.81769  1.0000
  C   C1120     1.0  0.81309  0.49508  0.78740  1.0000
  H   H1975     1.0  0.69837  0.68230  0.93653  1.0000
  H   H1976     1.0  0.68380  0.93818  0.51427  1.0000
  H   H1977     1.0  0.87546  0.59187  0.71414  1.0000
  H   H1978     1.0  0.80738  0.69265  0.96945  1.0000
  C   C1121     1.0  0.82029  0.57875  0.79419  1.0000
  H   H1979     1.0  0.92274  0.71419  0.76604  1.0000
  H   H1980     1.0  0.69972  0.72003  0.88975  1.0000
  C   C1122     1.0  0.80918  0.82315  0.53341  1.0000
  H   H1981     1.0  0.91139  0.79708  0.66541  1.0000
  H   H1982     1.0  0.82476  0.83289  0.53198  1.0000
  H   H1983     1.0  0.78081  0.56566  0.77192  1.0000
  H   H1984     1.0  0.83148  0.66421  0.94274  1.0000
  C   C1123     1.0  0.96193  0.71150  0.54571  1.0000
  C   C1124     1.0  0.79537  0.56546  0.75635  1.0000
  C   C1125     1.0  0.95783  0.75624  0.79926  1.0000
  H   H1985     1.0  0.91158  0.73390  0.72200  1.0000
  H   H1986     1.0  0.80355  0.49591  0.80815  1.0000
  H   H1987     1.0  0.78194  0.69673  0.75613  1.0000
  C   C1126     1.0  0.70045  0.87944  0.51744  1.0000
  H   H1988     1.0  0.92133  0.77769  0.71161  1.0000
  C   C1127     1.0  0.77251  0.79691  0.59390  1.0000
  H   H1989     1.0  0.74516  0.49178  0.77482  1.0000
  H   H1990     1.0  0.66069  0.67537  0.93922  1.0000
  H   H1991     1.0  0.68882  0.92804  0.58246  1.0000
  H   H1992     1.0  0.80194  0.54020  0.80574  1.0000
  H   H1993     1.0  0.86212  0.59178  0.84408  1.0000
  H   H1994     1.0  0.71185  0.91927  0.54662  1.0000
  H   H1995     1.0  0.65832  0.94453  0.61505  1.0000
  C   C1128     1.0  0.85012  0.57985  0.74409  1.0000
  C   C1129     1.0  0.75334  0.51668  0.80655  1.0000
  C   C1130     1.0  0.81521  0.53821  0.78852  1.0000
  C   C1131     1.0  0.80219  0.67480  0.96944  1.0000
  H   H1996     1.0  0.67771  0.64071  0.85131  1.0000
  H   H1997     1.0  0.72970  0.69925  0.75555  1.0000
  H   H1998     1.0  0.98045  0.74025  0.76839  1.0000
  H   H1999     1.0  0.85547  0.60688  0.81090  1.0000
  H   H2000     1.0  0.75697  0.76676  0.57757  1.0000
  C   C1132     1.0  0.69529  0.70055  0.93019  1.0000
  H   H2001     1.0  0.80336  0.64423  0.99583  1.0000
  H   H2002     1.0  0.76646  0.81632  0.55521  1.0000
  H   H2003     1.0  0.68022  0.83820  0.78047  1.0000
  H   H2004     1.0  0.74940  0.53117  0.79256  1.0000
  H   H2005     1.0  0.71801  0.67000  0.89163  1.0000
  H   H2006     1.0  0.86070  0.58437  0.76262  1.0000
  C   C1133     1.0  0.75370  0.62908  0.98393  1.0000
  H   H2007     1.0  0.81987  0.51610  0.75037  1.0000
  C   C1134     1.0  0.80745  0.74926  0.51788  1.0000
  N   N62       1.0  0.80226  0.81899  0.56440  1.0000
  H   H2008     1.0  0.93139  0.75698  0.75329  1.0000
  H   H2009     1.0  0.79598  0.60289  0.75181  1.0000
  C   C1135     1.0  0.74771  0.92341  0.54475  1.0000
  C   C1136     1.0  0.84566  0.80786  0.57036  1.0000
  H   H2010     1.0  0.87989  0.79724  0.58349  1.0000
  H   H2011     1.0  0.85615  0.57280  0.69852  1.0000
  H   H2012     1.0  0.78587  0.78656  0.60549  1.0000
  C   C1137     1.0  0.80760  0.88013  0.59568  1.0000
  C   C1138     1.0  0.71789  0.95611  0.54621  1.0000
  C   C1139     1.0  0.92721  0.78604  0.66700  1.0000
  H   H2013     1.0  0.79407  0.88867  0.58228  1.0000
  H   H2014     1.0  0.81825  0.78613  0.57672  1.0000
  H   H2015     1.0  0.96336  0.77377  0.79496  1.0000
  H   H2016     1.0  0.79231  0.55175  0.74078  1.0000
  H   H2017     1.0  0.86081  0.80437  0.61299  1.0000
  H   H2018     1.0  0.81938  0.80744  0.60337  1.0000
  C   C1140     1.0  0.75098  0.49429  0.79655  1.0000
  N   N63       1.0  0.94808  0.73689  0.71974  1.0000
  C   C1141     1.0  0.83718  0.55799  0.75123  1.0000
  H   H2019     1.0  0.96104  0.76314  0.69172  1.0000
  H   H2020     1.0  0.75014  0.92486  0.56835  1.0000
  H   H2021     1.0  0.76933  0.60760  0.71202  1.0000
  H   H2022     1.0  0.70450  0.51013  0.82727  1.0000
  H   H2023     1.0  0.78345  0.79073  0.54976  1.0000
  H   H2024     1.0  0.76779  0.57719  0.70851  1.0000
  H   H2025     1.0  0.66482  0.67717  0.98755  1.0000
  H   H2026     1.0  0.79191  0.83734  0.60298  1.0000
  C   C1142     1.0  0.92472  0.76841  0.69121  1.0000
  C   C1143     1.0  0.81613  0.85768  0.58212  1.0000
  C   C1144     1.0  0.76575  0.70229  0.74557  1.0000
  C   C1145     1.0  0.78097  0.80570  0.56416  1.0000
  H   H2027     1.0  0.95718  0.76786  0.74093  1.0000
  H   H2028     1.0  0.85482  0.56473  0.80523  1.0000
  H   H2029     1.0  0.94095  0.69361  0.74678  1.0000
  H   H2030     1.0  0.73082  0.96652  0.53538  1.0000
  C   C1146     1.0  0.92737  0.72279  0.72038  1.0000
  H   H2031     1.0  0.90967  0.75866  0.68609  1.0000
  H   H2032     1.0  0.95680  0.72399  0.77834  1.0000
  H   H2033     1.0  0.94152  0.79705  0.67140  1.0000
  C   C1147     1.0  0.67454  0.71173  0.97433  1.0000
  H   H2034     1.0  0.72879  0.98437  0.72604  1.0000
  H   H2035     1.0  0.80482  0.58524  0.97939  1.0000
  H   H2036     1.0  0.98638  0.73697  0.54975  1.0000
  H   H2037     1.0  0.66200  0.97171  0.56278  1.0000
  H   H2038     1.0  0.72226  0.92963  0.51279  1.0000
  H   H2039     1.0  0.68903  0.72226  0.97978  1.0000
  H   H2040     1.0  0.68310  0.75602  0.95798  1.0000
  N   N64       1.0  0.67268  0.70961  0.94206  1.0000
  H   H2041     1.0  0.66847  0.92739  0.55374  1.0000
  H   H2042     1.0  0.65852  0.77964  0.92426  1.0000
  H   H2043     1.0  0.68568  0.49830  0.85368  1.0000
  C   C1148     1.0  0.66606  0.73276  0.92944  1.0000
  H   H2044     1.0  0.69498  0.68049  0.98541  1.0000
  H   H2045     1.0  0.83142  0.49165  0.79191  1.0000
  C   C1149     1.0  0.67356  0.93686  0.57291  1.0000
  H   H2046     1.0  0.98818  0.72174  0.51628  1.0000
  H   H2047     1.0  0.82866  0.65936  0.99611  1.0000
  H   H2048     1.0  0.98777  0.67877  0.64970  1.0000
  C   C1150     1.0  0.98876  0.69607  0.64172  1.0000
  C   C1151     1.0  0.65694  0.70061  0.82269  1.0000
  C   C1152     1.0  0.80983  0.66168  0.99733  1.0000
