data_image0
_chemical_formula_structural       H3FeS2FeCFeHSHFeS2FeHFeHFeHS2H8CHCH2C6H4CHCHCH2CHCHC2HNCHCH2CH11CH2CH3CH3CHCHSCHC3HS2CH4C2H3SHCH4CH3CHC2SC3HCHC2NH2CHCH3C4H3NHSCHNH2C2H2CH2CHC2H5C3H3CHC2HCFeSCH6CHSH2CHCHC2HCH5C3H2C2FeSCH2SHCSCFeHCSH4C2HC2HCSH3CHCHCHCH2CHCHCH2C2H5C3H2C2H3CNHFeHCH2CFeHCHCH6SHNHC2H3C2H6CH5CSCH3FeH2CH8SCH3NH3SHCHCH2FeHC2H3CNCH2CHC2HCHC5H3NH3CHSHCH2CHCFeHC2H6CH5CH4C2H3CH3CH2C2H5CH2SHC2H2CH13CH4CH3SC2H4C2H2NC3NFeHCHCSCH7C2H4SHS2H2CSH2FeCH3C2FeHCHFeH2CH2C2HCH11C4H2CH14C4H2NCSCH2SC6H2C2HFeHCSCHC2H4NH3NCH2CH2CH2CH3CHCHCHCHCHSH2C2H2FeH2CHFeS2CHSCHSCHFeH2SHC2H4CHCHNH3CH5CH4CHCH5C3H2SH4C2H2CNCSH2CH2CSCHC3H3CH3SH3CH2FeCHCSCH2CHC2H4C2HFeSCFeS2FeSFeHSFeS2FeCSFeHFeHS2HCHCHSHCSH2C6H4CH3CHCH2CNC2H4C2H2SCH3C2HCHCHCH2CH2S2HC2HSH2SH4CNC11H15CHCH6C5HCHCHCH4CHCHCH5CH2C2H4CH2C2HC3SCH5FeH2FeS2FeHFeHSCFeS2FeSFeCFeHS2HC2H2SCH3CH2C6H5SH2CHC5H3CHCH2CHCH6C2HC2HSH5SCHSC2NC11H23CH2C2HCHCSHNHCH3SHCH2SHCH2CH5FeSHFeHS2HSHFeHCH5C5HCHSCH2CHC2HSCH2CSH4CHFeHCHC2H2CH3SH6C3H4C2HFeCHC2H3CH2CH2SHNC2HCHCHCH5C3NH4FeHC2H2SHCSCH2CH3CSH3CH2C3H3C3H3C3H7CHC2FeH3C3FeH7CH2CH2CH2CH12NC3SH2CH3SH2CH3CH2C2H2C3HC3HCH3CHSH3CHCHNH5CSH2C3H3CH2CH2C3SH2SCSHSH4C2FeH5C3H2CH2C2H3CSH4CHC2H4CH2CNH4CH5CHC5H4CSH6CH2CHCHC2NHCH2CH3CH9CHCFeC5H3FeSC3SFe2SH2FeCHSHC3H2C2H2CH2FeH3NH2C2H3SH2CHCH9CHCHC3HCHCHCSH4CH4CH2CH3CH2CH2CHCH6CH2CH2FeCHSH2C3HCNH3CHCSCHCSHSHCH3C3HNH2FeSHFeS2FeSFeHSFeS2FeCHFeCFeS3H5C2NHCHC6H4CHC2HCHCHCH2C2H4C2H5CH3CH7CH2C2H3CH5CSHCH2CHCH4CHCHCHNC2HCH2NH2CHCH5SCHCH3C2H3CSH3CH2CSCH3CHC2H2SH4C2HC4SH2CH
_chemical_formula_sum              "H1024 Fe64 S128 C576 N32"
_cell_length_a       40.4803
_cell_length_b       34.9166
_cell_length_c       40.3394
_cell_angle_alpha    90.0472
_cell_angle_beta     89.8496
_cell_angle_gamma    89.8292

_space_group_name_H-M_alt    "P 1"
_space_group_IT_number       1

loop_
  _space_group_symop_operation_xyz
  'x, y, z'

loop_
  _atom_site_type_symbol
  _atom_site_label
  _atom_site_symmetry_multiplicity
  _atom_site_fract_x
  _atom_site_fract_y
  _atom_site_fract_z
  _atom_site_occupancy
  H   H1        1.0  0.46170  0.25789  0.17430  1.0000
  H   H2        1.0  0.40304  0.31914  0.19174  1.0000
  H   H3        1.0  0.37583  0.33792  0.04728  1.0000
  Fe  Fe1       1.0  0.44814  0.12797  0.12535  1.0000
  S   S1        1.0  0.41430  0.08256  0.10557  1.0000
  S   S2        1.0  0.44554  0.19123  0.10912  1.0000
  Fe  Fe2       1.0  0.41239  0.05914  0.15768  1.0000
  C   C1        1.0  0.41333  0.12958  0.02502  1.0000
  Fe  Fe3       1.0  0.46023  0.04608  0.09822  1.0000
  H   H4        1.0  0.38101  0.32549  0.24908  1.0000
  S   S3        1.0  0.44413  0.10670  0.17748  1.0000
  H   H5        1.0  0.28301  0.99275  0.17468  1.0000
  Fe  Fe4       1.0  0.32653  0.37998  0.13839  1.0000
  S   S4        1.0  0.36120  0.41984  0.11228  1.0000
  S   S5        1.0  0.33375  0.31531  0.14569  1.0000
  Fe  Fe5       1.0  0.27752  0.44544  0.15433  1.0000
  H   H6        1.0  0.34218  0.28764  0.04849  1.0000
  Fe  Fe6       1.0  0.31584  0.44620  0.08846  1.0000
  H   H7        1.0  0.42255  0.38068  0.14581  1.0000
  Fe  Fe7       1.0  0.35217  0.45971  0.15542  1.0000
  H   H8        1.0  0.04367  0.46306  0.00428  1.0000
  S   S6        1.0  0.28166  0.40336  0.11196  1.0000
  S   S7        1.0  0.31945  0.41853  0.18304  1.0000
  H   H9        1.0  0.12928  0.45049  0.17177  1.0000
  H   H10       1.0  0.42548  0.05475  0.23210  1.0000
  H   H11       1.0  0.32576  0.44232  0.25773  1.0000
  H   H12       1.0  0.12980  0.46912  0.11337  1.0000
  H   H13       1.0  0.40573  0.02193  0.32159  1.0000
  H   H14       1.0  0.45210  0.36228  0.30631  1.0000
  H   H15       1.0  0.24696  0.04805  0.19206  1.0000
  H   H16       1.0  0.04628  0.37057  0.19912  1.0000
  C   C2        1.0  0.12290  0.41372  0.28789  1.0000
  H   H17       1.0  0.40208  0.14512  0.04632  1.0000
  C   C3        1.0  0.03911  0.38264  0.22354  1.0000
  H   H18       1.0  0.23512  0.03992  0.29559  1.0000
  H   H19       1.0  0.29801  0.24296  0.03206  1.0000
  C   C4        1.0  0.41480  0.22580  0.12035  1.0000
  C   C5        1.0  0.38768  0.21640  0.14028  1.0000
  C   C6        1.0  0.36359  0.24434  0.14810  1.0000
  C   C7        1.0  0.36609  0.28211  0.13617  1.0000
  C   C8        1.0  0.39343  0.29178  0.11658  1.0000
  C   C9        1.0  0.41757  0.26376  0.10872  1.0000
  H   H20       1.0  0.38512  0.18745  0.14950  1.0000
  H   H21       1.0  0.34262  0.23643  0.16329  1.0000
  H   H22       1.0  0.39582  0.32065  0.10723  1.0000
  H   H23       1.0  0.43846  0.27145  0.09337  1.0000
  C   C10       1.0  0.10576  0.46098  0.16093  1.0000
  H   H24       1.0  0.07160  0.42545  0.27996  1.0000
  C   C11       1.0  0.31973  0.02808  0.23357  1.0000
  H   H25       1.0  0.05694  0.37250  0.24246  1.0000
  C   C12       1.0  0.07580  0.43961  0.17632  1.0000
  H   H26       1.0  0.02900  0.43710  0.24698  1.0000
  H   H27       1.0  0.03676  0.02752  0.10017  1.0000
  C   C13       1.0  0.18803  0.03794  0.22308  1.0000
  H   H28       1.0  0.04620  0.05619  0.23147  1.0000
  C   C14       1.0  0.38511  0.39014  0.02108  1.0000
  H   H29       1.0  0.08543  0.46555  0.11104  1.0000
  C   C15       1.0  0.22177  0.38236  0.02411  1.0000
  C   C16       1.0  0.02661  0.00312  0.00382  1.0000
  H   H30       1.0  0.05190  0.01275  0.00579  1.0000
  N   N1        1.0  0.30611  0.32587  0.02598  1.0000
  C   C17       1.0  0.32838  0.36030  0.02909  1.0000
  H   H31       1.0  0.01075  0.03257  0.04847  1.0000
  C   C18       1.0  0.31631  0.29753  0.05239  1.0000
  H   H32       1.0  0.01755  0.43476  0.20500  1.0000
  H   H33       1.0  0.12458  0.05649  0.20094  1.0000
  C   C19       1.0  0.36599  0.35270  0.02501  1.0000
  H   H34       1.0  0.23591  0.01419  0.23961  1.0000
  H   H35       1.0  0.40462  0.05849  0.27131  1.0000
  H   H36       1.0  0.43467  0.35564  0.23628  1.0000
  H   H37       1.0  0.04589  0.01096  0.14161  1.0000
  H   H38       1.0  0.21316  0.37726  0.04992  1.0000
  H   H39       1.0  0.14759  0.42291  0.27888  1.0000
  H   H40       1.0  0.32474  0.37404  0.05378  1.0000
  H   H41       1.0  0.45629  0.03251  0.29965  1.0000
  H   H42       1.0  0.32161  0.38274  0.01093  1.0000
  H   H43       1.0  0.22737  0.07815  0.26695  1.0000
  H   H44       1.0  0.31598  0.31170  0.07717  1.0000
  C   C20       1.0  0.27234  0.01320  0.15650  1.0000
  H   H45       1.0  0.45950  0.30342  0.22131  1.0000
  H   H46       1.0  0.42787  0.12029  0.25445  1.0000
  C   C21       1.0  0.05312  0.00880  0.11511  1.0000
  H   H47       1.0  0.38764  0.99822  0.26273  1.0000
  H   H48       1.0  0.12674  0.10431  0.15654  1.0000
  H   H49       1.0  0.40405  0.14255  0.00170  1.0000
  C   C22       1.0  0.37037  0.34258  0.22848  1.0000
  H   H50       1.0  0.26852  0.26732  0.05822  1.0000
  H   H51       1.0  0.42402  0.99369  0.21740  1.0000
  H   H52       1.0  0.16530  0.02214  0.14264  1.0000
  C   C23       1.0  0.08526  0.02968  0.26029  1.0000
  H   H53       1.0  0.12130  0.44784  0.22543  1.0000
  C   C24       1.0  0.04365  0.99476  0.22893  1.0000
  H   H54       1.0  0.38079  0.40925  0.04266  1.0000
  S   S8        1.0  0.13602  0.99720  0.29617  1.0000
  C   C25       1.0  0.42808  0.47315  0.26935  1.0000
  H   H55       1.0  0.38339  0.36377  0.18051  1.0000
  C   C26       1.0  0.09554  0.43604  0.27037  1.0000
  C   C27       1.0  0.03781  0.42701  0.22237  1.0000
  C   C28       1.0  0.12778  0.04577  0.17527  1.0000
  H   H56       1.0  0.11036  0.42309  0.11811  1.0000
  S   S9        1.0  0.22567  0.46594  0.16886  1.0000
  S   S10       1.0  0.46369  0.01494  0.04755  1.0000
  C   C29       1.0  0.28658  0.47809  0.00464  1.0000
  H   H57       1.0  0.28511  0.00858  0.27089  1.0000
  H   H58       1.0  0.26773  0.99794  0.13280  1.0000
  H   H59       1.0  0.45762  0.16334  0.02640  1.0000
  H   H60       1.0  0.08736  0.08040  0.15649  1.0000
  C   C30       1.0  0.20792  0.47508  0.26835  1.0000
  C   C31       1.0  0.48817  0.39367  0.24227  1.0000
  H   H61       1.0  0.33251  0.22832  0.08207  1.0000
  H   H62       1.0  0.24461  0.44759  0.23718  1.0000
  H   H63       1.0  0.41719  0.39888  0.22215  1.0000
  S   S11       1.0  0.31748  0.46069  0.03269  1.0000
  H   H64       1.0  0.19760  0.06653  0.21556  1.0000
  C   C32       1.0  0.45185  0.02635  0.27296  1.0000
  H   H65       1.0  0.34861  0.32700  0.21862  1.0000
  H   H66       1.0  0.40557  0.09909  0.02628  1.0000
  H   H67       1.0  0.10383  0.40175  0.22568  1.0000
  H   H68       1.0  0.23054  0.05047  0.15077  1.0000
  C   C33       1.0  0.09844  0.43212  0.23220  1.0000
  H   H69       1.0  0.17740  0.06415  0.16340  1.0000
  H   H70       1.0  0.46880  0.10000  0.25230  1.0000
  H   H71       1.0  0.16419  0.04390  0.23591  1.0000
  C   C34       1.0  0.25927  0.37787  0.02183  1.0000
  H   H72       1.0  0.21898  0.46521  0.29120  1.0000
  C   C35       1.0  0.48137  0.39945  0.20472  1.0000
  C   C36       1.0  0.22262  0.46521  0.23778  1.0000
  S   S12       1.0  0.45531  0.01873  0.14922  1.0000
  C   C37       1.0  0.30950  0.30647  0.99268  1.0000
  C   C38       1.0  0.11427  0.07651  0.15197  1.0000
  C   C39       1.0  0.45092  0.13256  0.02697  1.0000
  H   H73       1.0  0.36186  0.37077  0.23809  1.0000
  C   C40       1.0  0.47833  0.30821  0.20180  1.0000
  H   H74       1.0  0.25336  0.31603  0.02109  1.0000
  C   C41       1.0  0.27046  0.33712  0.03257  1.0000
  C   C42       1.0  0.39583  0.34798  0.20081  1.0000
  N   N2        1.0  0.06943  0.44700  0.21263  1.0000
  H   H75       1.0  0.44754  0.10341  0.29177  1.0000
  H   H76       1.0  0.31384  0.05805  0.23719  1.0000
  C   C43       1.0  0.20831  0.47739  0.20809  1.0000
  H   H77       1.0  0.20099  0.99561  0.26146  1.0000
  C   C44       1.0  0.21710  0.05127  0.27739  1.0000
  H   H78       1.0  0.41199  0.38401  0.01931  1.0000
  H   H79       1.0  0.26497  0.33604  0.05970  1.0000
  H   H80       1.0  0.08045  0.40859  0.17200  1.0000
  C   C45       1.0  0.30585  0.23575  0.08401  1.0000
  C   C46       1.0  0.00535  0.36617  0.23277  1.0000
  C   C47       1.0  0.34423  0.01769  0.21038  1.0000
  C   C48       1.0  0.05726  0.02950  0.23941  1.0000
  H   H81       1.0  0.42028  0.45643  0.29047  1.0000
  H   H82       1.0  0.37728  0.40539  0.99823  1.0000
  H   H83       1.0  0.38600  0.45685  0.23942  1.0000
  N   N3        1.0  0.18256  0.01294  0.19304  1.0000
  H   H84       1.0  0.09811  0.46662  0.27741  1.0000
  S   S13       1.0  0.36396  0.05433  0.18712  1.0000
  C   C49       1.0  0.21148  0.02171  0.24999  1.0000
  H   H85       1.0  0.07883  0.01912  0.11236  1.0000
  N   N4        1.0  0.45411  0.37587  0.18913  1.0000
  H   H86       1.0  0.05343  0.44640  0.16140  1.0000
  H   H87       1.0  0.12004  0.38250  0.28358  1.0000
  C   C50       1.0  0.06540  0.48923  0.21959  1.0000
  C   C51       1.0  0.46709  0.33822  0.17596  1.0000
  H   H88       1.0  0.45836  0.12054  0.05130  1.0000
  H   H89       1.0  0.11228  0.01977  0.17243  1.0000
  C   C52       1.0  0.10781  0.45416  0.12356  1.0000
  H   H90       1.0  0.09552  0.05673  0.26823  1.0000
  H   H91       1.0  0.30129  0.25100  0.10777  1.0000
  C   C53       1.0  0.29511  0.26058  0.05478  1.0000
  H   H92       1.0  0.29142  0.20875  0.08430  1.0000
  C   C54       1.0  0.42919  0.05843  0.25910  1.0000
  C   C55       1.0  0.16452  0.03637  0.16733  1.0000
  H   H93       1.0  0.47639  0.03015  0.26081  1.0000
  H   H94       1.0  0.47554  0.43066  0.20254  1.0000
  H   H95       1.0  0.29081  0.03611  0.15193  1.0000
  H   H96       1.0  0.19355  0.05762  0.29054  1.0000
  H   H97       1.0  0.44836  0.32447  0.15964  1.0000
  C   C56       1.0  0.21483  0.99917  0.17841  1.0000
  C   C57       1.0  0.42620  0.37044  0.21354  1.0000
  C   C58       1.0  0.35969  0.99192  0.32254  1.0000
  H   H98       1.0  0.42657  0.42369  0.16900  1.0000
  H   H99       1.0  0.43493  0.45864  0.11555  1.0000
  H   H100      1.0  0.43334  0.41454  0.09182  1.0000
  C   C59       1.0  0.24038  0.03080  0.16998  1.0000
  H   H101      1.0  0.48411  0.43291  0.14598  1.0000
  C   C60       1.0  0.44439  0.09789  0.26485  1.0000
  C   C61       1.0  0.31532  0.46945  0.26766  1.0000
  H   H102      1.0  0.37138  0.33496  0.00287  1.0000
  C   C62       1.0  0.44057  0.39819  0.16002  1.0000
  Fe  Fe8       1.0  0.48718  0.06758  0.16667  1.0000
  S   S14       1.0  0.30993  0.48929  0.12943  1.0000
  C   C63       1.0  0.05806  0.43707  0.99740  1.0000
  H   H103      1.0  0.29361  0.48373  0.22087  1.0000
  H   H104      1.0  0.34683  0.01396  0.30746  1.0000
  H   H105      1.0  0.20931  0.36207  0.00705  1.0000
  H   H106      1.0  0.00668  0.33439  0.23304  1.0000
  H   H107      1.0  0.99771  0.37618  0.25781  1.0000
  H   H108      1.0  0.11804  0.06818  0.12566  1.0000
  C   C64       1.0  0.48481  0.26943  0.18528  1.0000
  H   H109      1.0  0.48883  0.34300  0.15961  1.0000
  S   S15       1.0  0.00882  0.99215  0.20207  1.0000
  H   H110      1.0  0.29159  0.46288  0.28031  1.0000
  H   H111      1.0  0.33302  0.48141  0.28593  1.0000
  C   C65       1.0  0.30305  0.00011  0.25241  1.0000
  H   H112      1.0  0.21468  0.41197  0.01693  1.0000
  C   C66       1.0  0.46643  0.41273  0.13439  1.0000
  H   H113      1.0  0.46727  0.40544  0.25705  1.0000
  C   C67       1.0  0.44969  0.43410  0.10594  1.0000
  C   C68       1.0  0.40857  0.47326  0.24038  1.0000
  H   H114      1.0  0.27025  0.39946  0.03865  1.0000
  C   C69       1.0  0.00336  0.01414  0.02833  1.0000
  H   H115      1.0  0.48057  0.38863  0.12340  1.0000
  H   H116      1.0  0.12160  0.41933  0.31499  1.0000
  H   H117      1.0  0.46283  0.07904  0.00251  1.0000
  H   H118      1.0  0.06808  0.42413  0.02044  1.0000
  H   H119      1.0  0.24630  0.47794  0.03949  1.0000
  C   C70       1.0  0.10015  0.99524  0.27074  1.0000
  C   C71       1.0  0.25363  0.48367  0.01418  1.0000
  C   C72       1.0  0.46788  0.11005  0.99835  1.0000
  H   H120      1.0  0.46873  0.44546  0.08871  1.0000
  H   H121      1.0  0.26692  0.38517  0.99629  1.0000
  C   C73       1.0  0.39683  0.99275  0.31564  1.0000
  C   C74       1.0  0.13131  0.01365  0.47663  1.0000
  Fe  Fe9       1.0  0.30610  0.02831  0.59398  1.0000
  S   S16       1.0  0.27309  0.06716  0.62436  1.0000
  C   C75       1.0  0.44688  0.39428  0.38868  1.0000
  H   H122      1.0  0.20696  0.00863  0.39451  1.0000
  H   H123      1.0  0.10907  0.00041  0.46582  1.0000
  S   S17       1.0  0.35274  0.05230  0.61724  1.0000
  H   H124      1.0  0.35494  0.99813  0.34914  1.0000
  C   C76       1.0  0.13652  0.01338  0.39306  1.0000
  S   S18       1.0  0.39814  0.39515  0.61636  1.0000
  C   C77       1.0  0.15851  0.02166  0.45039  1.0000
  Fe  Fe10      1.0  0.44535  0.42928  0.61131  1.0000
  H   H125      1.0  0.42527  0.02936  0.61065  1.0000
  C   C78       1.0  0.48233  0.47657  0.53419  1.0000
  S   S19       1.0  0.47767  0.37907  0.62442  1.0000
  H   H126      1.0  0.41325  0.38121  0.49305  1.0000
  H   H127      1.0  0.10085  0.06043  0.43852  1.0000
  H   H128      1.0  0.00038  0.38745  0.39130  1.0000
  H   H129      1.0  0.12375  0.04091  0.48877  1.0000
  C   C79       1.0  0.12296  0.07232  0.42605  1.0000
  C   C80       1.0  0.00692  0.46489  0.51128  1.0000
  H   H130      1.0  0.31879  0.31334  0.56380  1.0000
  C   C81       1.0  0.03065  0.47068  0.48602  1.0000
  C   C82       1.0  0.44557  0.46363  0.39485  1.0000
  H   H131      1.0  0.47823  0.40817  0.34508  1.0000
  C   C83       1.0  0.07606  0.44967  0.58599  1.0000
  S   S20       1.0  0.42194  0.28525  0.61240  1.0000
  H   H132      1.0  0.43502  0.41750  0.33957  1.0000
  H   H133      1.0  0.45381  0.36096  0.45053  1.0000
  H   H134      1.0  0.41811  0.46174  0.39362  1.0000
  C   C84       1.0  0.99684  0.40519  0.36879  1.0000
  H   H135      1.0  0.08086  0.99837  0.35250  1.0000
  C   C85       1.0  0.33402  0.32505  0.61465  1.0000
  H   H136      1.0  0.41985  0.42477  0.44452  1.0000
  C   C86       1.0  0.05074  0.48045  0.59693  1.0000
  H   H137      1.0  0.08105  0.38782  0.58323  1.0000
  C   C87       1.0  0.46176  0.06297  0.63780  1.0000
  H   H138      1.0  0.22914  0.05946  0.35671  1.0000
  H   H139      1.0  0.46753  0.33783  0.34243  1.0000
  C   C88       1.0  0.11020  0.09507  0.39560  1.0000
  H   H140      1.0  0.44387  0.41165  0.51209  1.0000
  C   C89       1.0  0.35783  0.18525  0.65200  1.0000
  H   H141      1.0  0.45497  0.00118  0.63354  1.0000
  C   C90       1.0  0.10404  0.99178  0.40098  1.0000
  H   H142      1.0  0.39750  0.21608  0.58219  1.0000
  H   H143      1.0  0.28737  0.29429  0.61473  1.0000
  C   C91       1.0  0.34118  0.31087  0.57950  1.0000
  C   C92       1.0  0.21103  0.03787  0.40410  1.0000
  H   H144      1.0  0.13320  0.09323  0.44422  1.0000
  H   H145      1.0  0.36114  0.32844  0.56830  1.0000
  H   H146      1.0  0.09806  0.07568  0.37755  1.0000
  H   H147      1.0  0.35764  0.32446  0.62852  1.0000
  H   H148      1.0  0.41966  0.39162  0.39228  1.0000
  C   C93       1.0  0.38907  0.21609  0.60767  1.0000
  C   C94       1.0  0.17852  0.06163  0.40462  1.0000
  C   C95       1.0  0.47012  0.19106  0.64148  1.0000
  H   H149      1.0  0.32079  0.27097  0.63511  1.0000
  H   H150      1.0  0.07604  0.14105  0.38379  1.0000
  C   C96       1.0  0.45854  0.38796  0.46409  1.0000
  C   C97       1.0  0.06256  0.40935  0.59156  1.0000
  H   H151      1.0  0.44962  0.36056  0.51163  1.0000
  H   H152      1.0  0.00221  0.45928  0.39477  1.0000
  H   H153      1.0  0.48806  0.05915  0.64445  1.0000
  C   C98       1.0  0.44878  0.35867  0.33345  1.0000
  N   N5        1.0  0.14840  0.04173  0.41873  1.0000
  H   H154      1.0  0.18411  0.08818  0.41892  1.0000
  Fe  Fe11      1.0  0.43029  0.34599  0.63296  1.0000
  H   H155      1.0  0.17721  0.03903  0.46397  1.0000
  C   C99       1.0  0.39748  0.24696  0.62850  1.0000
  H   H156      1.0  0.02814  0.42409  0.32793  1.0000
  H   H157      1.0  0.22116  0.03527  0.42954  1.0000
  C   C100      1.0  0.28598  0.99903  0.47366  1.0000
  Fe  Fe12      1.0  0.31955  0.08762  0.64994  1.0000
  H   H158      1.0  0.03952  0.40499  0.57713  1.0000
  C   C101      1.0  0.36949  0.18539  0.61931  1.0000
  H   H159      1.0  0.05212  0.45220  0.48476  1.0000
  C   C102      1.0  0.44013  0.38530  0.49717  1.0000
  H   H160      1.0  0.30687  0.01599  0.46572  1.0000
  H   H161      1.0  0.17382  0.07115  0.37870  1.0000
  H   H162      1.0  0.45419  0.46774  0.36896  1.0000
  H   H163      1.0  0.32566  0.35523  0.61277  1.0000
  H   H164      1.0  0.02893  0.47637  0.58061  1.0000
  H   H165      1.0  0.05738  0.40450  0.61830  1.0000
  S   S21       1.0  0.30347  0.02284  0.53677  1.0000
  H   H166      1.0  0.42364  0.34717  0.33813  1.0000
  N   N6        1.0  0.45997  0.42716  0.40908  1.0000
  H   H167      1.0  0.34959  0.28057  0.57984  1.0000
  C   C103      1.0  0.45310  0.39729  0.35071  1.0000
  C   C104      1.0  0.44739  0.42365  0.44426  1.0000
  H   H168      1.0  0.08118  0.45244  0.55907  1.0000
  H   H169      1.0  0.06303  0.11142  0.41792  1.0000
  H   H170      1.0  0.27089  0.35582  0.63376  1.0000
  C   C105      1.0  0.45156  0.02738  0.61828  1.0000
  C   C106      1.0  0.23752  0.05700  0.38281  1.0000
  H   H171      1.0  0.45905  0.08787  0.62094  1.0000
  H   H172      1.0  0.26042  0.03939  0.38324  1.0000
  H   H173      1.0  0.36279  0.16231  0.60274  1.0000
  H   H174      1.0  0.09583  0.14606  0.42353  1.0000
  H   H175      1.0  0.08508  0.01042  0.41243  1.0000
  H   H176      1.0  0.45582  0.44823  0.45953  1.0000
  C   C107      1.0  0.27843  0.99689  0.50778  1.0000
  H   H177      1.0  0.04157  0.47326  0.62222  1.0000
  H   H178      1.0  0.16635  0.99927  0.51584  1.0000
  H   H179      1.0  0.17094  0.99404  0.44443  1.0000
  H   H180      1.0  0.24338  0.08593  0.39261  1.0000
  H   H181      1.0  0.13383  0.02758  0.36848  1.0000
  C   C108      1.0  0.08474  0.12520  0.40600  1.0000
  S   S22       1.0  0.45326  0.47068  0.56737  1.0000
  C   C109      1.0  0.30825  0.29915  0.63221  1.0000
  H   H182      1.0  0.13064  0.11027  0.38289  1.0000
  H   H183      1.0  0.45704  0.36652  0.39719  1.0000
  H   H184      1.0  0.48528  0.39019  0.46990  1.0000
  Fe  Fe13      1.0  0.34757  0.00642  0.65626  1.0000
  H   H185      1.0  0.01001  0.44185  0.52889  1.0000
  H   H186      1.0  0.45246  0.18484  0.62118  1.0000
  C   C110      1.0  0.03027  0.40738  0.35127  1.0000
  H   H187      1.0  0.09943  0.45184  0.60008  1.0000
  H   H188      1.0  0.46702  0.02465  0.59563  1.0000
  H   H189      1.0  0.04886  0.42100  0.36769  1.0000
  H   H190      1.0  0.03903  0.37810  0.34496  1.0000
  H   H191      1.0  0.23600  0.41393  0.65118  1.0000
  H   H192      1.0  0.48906  0.13375  0.64265  1.0000
  H   H193      1.0  0.08056  0.48848  0.65772  1.0000
  H   H194      1.0  0.16780  0.39705  0.87969  1.0000
  S   S23       1.0  0.31614  0.04245  0.69030  1.0000
  C   C111      1.0  0.44535  0.43657  0.78806  1.0000
  H   H195      1.0  0.33866  0.29991  0.92973  1.0000
  H   H196      1.0  0.39544  0.45420  0.82117  1.0000
  H   H197      1.0  0.35627  0.29429  0.74720  1.0000
  N   N7        1.0  0.29521  0.31363  0.66510  1.0000
  H   H198      1.0  0.43641  0.04049  0.68101  1.0000
  H   H199      1.0  0.45443  0.11769  0.97525  1.0000
  H   H200      1.0  0.02770  0.11952  0.71036  1.0000
  S   S24       1.0  0.42756  0.36254  0.68642  1.0000
  H   H201      1.0  0.47450  0.07168  0.93863  1.0000
  C   C112      1.0  0.13538  0.06768  0.68967  1.0000
  H   H202      1.0  0.34227  0.33695  0.68034  1.0000
  C   C113      1.0  0.07363  0.46223  0.75378  1.0000
  H   H203      1.0  0.05421  0.99785  0.68373  1.0000
  H   H204      1.0  0.17806  0.42536  0.84373  1.0000
  Fe  Fe14      1.0  0.39753  0.41343  0.67002  1.0000
  H   H205      1.0  0.30849  0.32846  0.90810  1.0000
  C   C114      1.0  0.34629  0.32397  0.74691  1.0000
  C   C115      1.0  0.04648  0.46340  0.73189  1.0000
  H   H206      1.0  0.10663  0.01680  0.69512  1.0000
  H   H207      1.0  0.03531  0.43708  0.72335  1.0000
  H   H208      1.0  0.13141  0.43044  0.92521  1.0000
  C   C116      1.0  0.01689  0.05926  0.72305  1.0000
  N   N8        1.0  0.45018  0.09862  0.69336  1.0000
  C   C117      1.0  0.24324  0.40819  0.67726  1.0000
  H   H209      1.0  0.03082  0.47990  0.82126  1.0000
  H   H210      1.0  0.01347  0.04847  0.69733  1.0000
  C   C118      1.0  0.36977  0.10410  0.74784  1.0000
  H   H211      1.0  0.23139  0.21876  0.67778  1.0000
  C   C119      1.0  0.48474  0.09139  0.70608  1.0000
  C   C120      1.0  0.28039  0.24400  0.68263  1.0000
  H   H212      1.0  0.03333  0.05642  0.78589  1.0000
  C   C121      1.0  0.08667  0.05824  0.78871  1.0000
  H   H213      1.0  0.05592  0.48882  0.94799  1.0000
  C   C122      1.0  0.26893  0.28594  0.67655  1.0000
  C   C123      1.0  0.00786  0.10248  0.72228  1.0000
  C   C124      1.0  0.36695  0.21565  0.67304  1.0000
  C   C125      1.0  0.32379  0.31557  0.68892  1.0000
  C   C126      1.0  0.39074  0.10855  0.71653  1.0000
  H   H214      1.0  0.34395  0.11302  0.74246  1.0000
  H   H215      1.0  0.30051  0.24280  0.70119  1.0000
  H   H216      1.0  0.37945  0.12241  0.76811  1.0000
  N   N9        1.0  0.05103  0.04927  0.73562  1.0000
  H   H217      1.0  0.33727  0.28795  0.68924  1.0000
  H   H218      1.0  0.29355  0.42346  0.74350  1.0000
  H   H219      1.0  0.34703  0.48694  0.84966  1.0000
  C   C127      1.0  0.07654  0.06586  0.71219  1.0000
  H   H220      1.0  0.25726  0.29569  0.69998  1.0000
  S   S25       1.0  0.34988  0.41919  0.70031  1.0000
  H   H221      1.0  0.46976  0.43448  0.77537  1.0000
  C   C128      1.0  0.14570  0.45410  0.87870  1.0000
  H   H222      1.0  0.44950  0.42665  0.81400  1.0000
  H   H223      1.0  0.36948  0.07374  0.75605  1.0000
  C   C129      1.0  0.05418  0.06638  0.76988  1.0000
  H   H224      1.0  0.28907  0.23024  0.65939  1.0000
  C   C130      1.0  0.33091  0.45874  0.72072  1.0000
  Fe  Fe15      1.0  0.27235  0.01923  0.66210  1.0000
  H   H225      1.0  0.08304  0.43483  0.76205  1.0000
  C   C131      1.0  0.43743  0.36627  0.77451  1.0000
  C   C132      1.0  0.28664  0.48272  0.75694  1.0000
  H   H226      1.0  0.27894  0.34181  0.95993  1.0000
  H   H227      1.0  0.48842  0.16916  0.97004  1.0000
  H   H228      1.0  0.43917  0.35829  0.80109  1.0000
  H   H229      1.0  0.22243  0.41655  0.69377  1.0000
  H   H230      1.0  0.26492  0.42620  0.68358  1.0000
  H   H231      1.0  0.47640  0.05010  0.74656  1.0000
  C   C133      1.0  0.10999  0.04405  0.70882  1.0000
  H   H232      1.0  0.44201  0.15993  0.69831  1.0000
  H   H233      1.0  0.05226  0.09811  0.76883  1.0000
  H   H234      1.0  0.20792  0.01556  0.79954  1.0000
  H   H235      1.0  0.26101  0.18959  0.69951  1.0000
  H   H236      1.0  0.26515  0.47729  0.77221  1.0000
  C   C134      1.0  0.08633  0.07722  0.82290  1.0000
  H   H237      1.0  0.36559  0.34376  0.73750  1.0000
  H   H238      1.0  0.35855  0.21563  0.69851  1.0000
  H   H239      1.0  0.04539  0.45441  0.87728  1.0000
  H   H240      1.0  0.10144  0.42297  0.89413  1.0000
  C   C135      1.0  0.05302  0.00619  0.73820  1.0000
  C   C136      1.0  0.25134  0.36575  0.68206  1.0000
  H   H241      1.0  0.03621  0.99578  0.75815  1.0000
  H   H242      1.0  0.10804  0.07053  0.77530  1.0000
  H   H243      1.0  0.42259  0.00439  0.78528  1.0000
  C   C137      1.0  0.25208  0.21943  0.69580  1.0000
  H   H244      1.0  0.09042  0.02709  0.79235  1.0000
  H   H245      1.0  0.37967  0.47067  0.78264  1.0000
  H   H246      1.0  0.38915  0.13897  0.70887  1.0000
  C   C138      1.0  0.42711  0.09651  0.72285  1.0000
  H   H247      1.0  0.42100  0.41281  0.74390  1.0000
  H   H248      1.0  0.42132  0.34519  0.76187  1.0000
  C   C139      1.0  0.31251  0.30969  0.92996  1.0000
  C   C140      1.0  0.31550  0.32638  0.72515  1.0000
  H   H249      1.0  0.07791  0.99669  0.74624  1.0000
  H   H250      1.0  0.45700  0.48481  0.74061  1.0000
  H   H251      1.0  0.48358  0.02809  0.70665  1.0000
  H   H252      1.0  0.25646  0.36115  0.70866  1.0000
  H   H253      1.0  0.41438  0.47520  0.73775  1.0000
  C   C141      1.0  0.30290  0.45223  0.74067  1.0000
  H   H254      1.0  0.12092  0.03670  0.73303  1.0000
  H   H255      1.0  0.00377  0.11337  0.74785  1.0000
  S   S26       1.0  0.33045  0.14934  0.66742  1.0000
  H   H256      1.0  0.30665  0.35637  0.72642  1.0000
  C   C142      1.0  0.06252  0.47412  0.86437  1.0000
  C   C143      1.0  0.15796  0.41784  0.86135  1.0000
  H   H257      1.0  0.45566  0.48840  0.83542  1.0000
  H   H258      1.0  0.08657  0.10890  0.82044  1.0000
  C   C144      1.0  0.42298  0.40655  0.77074  1.0000
  H   H259      1.0  0.24301  0.23060  0.71997  1.0000
  H   H260      1.0  0.38608  0.00545  0.73574  1.0000
  H   H261      1.0  0.08206  0.09603  0.71922  1.0000
  H   H262      1.0  0.06412  0.06873  0.83728  1.0000
  H   H263      1.0  0.12600  0.07498  0.66460  1.0000
  H   H264      1.0  0.43653  0.11472  0.74347  1.0000
  H   H265      1.0  0.07998  0.45675  0.84927  1.0000
  H   H266      1.0  0.13702  0.47414  0.85944  1.0000
  H   H267      1.0  0.42607  0.06687  0.73272  1.0000
  H   H268      1.0  0.37932  0.09062  0.69703  1.0000
  H   H269      1.0  0.39378  0.26909  0.67803  1.0000
  H   H270      1.0  0.39767  0.40610  0.78132  1.0000
  H   H271      1.0  0.33996  0.33250  0.77268  1.0000
  C   C145      1.0  0.43949  0.06864  0.66864  1.0000
  H   H272      1.0  0.29670  0.30706  0.73599  1.0000
  H   H273      1.0  0.16719  0.46746  0.89119  1.0000
  H   H274      1.0  0.13762  0.40445  0.84702  1.0000
  H   H275      1.0  0.23849  0.02116  0.74619  1.0000
  C   C146      1.0  0.21513  0.00621  0.74708  1.0000
  H   H276      1.0  0.32159  0.35721  0.96200  1.0000
  H   H277      1.0  0.29598  0.28447  0.92774  1.0000
  H   H278      1.0  0.22886  0.34915  0.67562  1.0000
  S   S27       1.0  0.22241  0.99437  0.67901  1.0000
  C   C147      1.0  0.11836  0.44497  0.90452  1.0000
  C   C148      1.0  0.30494  0.33206  0.96170  1.0000
  H   H279      1.0  0.10863  0.06821  0.83694  1.0000
  H   H280      1.0  0.05755  0.44291  0.92965  1.0000
  H   H281      1.0  0.14129  0.09441  0.70336  1.0000
  H   H282      1.0  0.42598  0.13999  0.66128  1.0000
  C   C149      1.0  0.44744  0.13839  0.67857  1.0000
  C   C150      1.0  0.19770  0.00300  0.77730  1.0000
  H   H283      1.0  0.32078  0.48177  0.96370  1.0000
  H   H284      1.0  0.15857  0.05088  0.68674  1.0000
  N   N10       1.0  0.43277  0.47740  0.78807  1.0000
  C   C151      1.0  0.29543  0.48587  0.97149  1.0000
  C   C152      1.0  0.39806  0.47740  0.80236  1.0000
  C   C153      1.0  0.38676  0.24616  0.66147  1.0000
  N   N11       1.0  0.09904  0.47901  0.91715  1.0000
  Fe  Fe16      1.0  0.47189  0.40000  0.67717  1.0000
  H   H285      1.0  0.06655  0.06772  0.68652  1.0000
  C   C154      1.0  0.07326  0.46517  0.94138  1.0000
  H   H286      1.0  0.10062  0.42082  0.96908  1.0000
  C   C155      1.0  0.08648  0.44747  0.97410  1.0000
  S   S28       1.0  0.44173  0.45188  0.66414  1.0000
  C   C156      1.0  0.28061  0.35316  0.65952  1.0000
  H   H287      1.0  0.30022  0.37541  0.66147  1.0000
  H   H288      1.0  0.46240  0.36465  0.76306  1.0000
  H   H289      1.0  0.99774  0.04471  0.73834  1.0000
  H   H290      1.0  0.13929  0.49118  0.95105  1.0000
  H   H291      1.0  0.29094  0.28321  0.99023  1.0000
  H   H292      1.0  0.10273  0.46762  0.98761  1.0000
  H   H293      1.0  0.04134  0.41596  0.98550  1.0000
  C   C157      1.0  0.47835  0.15443  0.66046  1.0000
  C   C158      1.0  0.43281  0.49130  0.75266  1.0000
  H   H294      1.0  0.33380  0.29166  0.99064  1.0000
  H   H295      1.0  0.45922  0.21297  0.65829  1.0000
  H   H296      1.0  0.41456  0.07545  0.65875  1.0000
  H   H297      1.0  0.24854  0.28507  0.65804  1.0000
  S   S29       1.0  0.19515  0.90452  0.27909  1.0000
  H   H298      1.0  0.33190  0.55489  0.19453  1.0000
  S   S30       1.0  0.39476  0.49602  0.17552  1.0000
  S   S31       1.0  0.29048  0.92482  0.27144  1.0000
  H   H299      1.0  0.43570  0.89604  0.17965  1.0000
  H   H300      1.0  0.14236  0.52675  0.24061  1.0000
  C   C159      1.0  0.33488  0.95089  0.22486  1.0000
  S   S32       1.0  0.07701  0.56911  0.28817  1.0000
  H   H301      1.0  0.45023  0.93019  0.28952  1.0000
  H   H302      1.0  0.24426  0.64034  0.29666  1.0000
  Fe  Fe17      1.0  0.24285  0.92390  0.30242  1.0000
  C   C160      1.0  0.45750  0.49455  0.27126  1.0000
  H   H303      1.0  0.30699  0.54506  0.27446  1.0000
  H   H304      1.0  0.27850  0.62778  0.22861  1.0000
  H   H305      1.0  0.07631  0.86313  0.02642  1.0000
  C   C161      1.0  0.35186  0.58397  0.23762  1.0000
  C   C162      1.0  0.16257  0.97859  0.20341  1.0000
  Fe  Fe18      1.0  0.03488  0.53389  0.30932  1.0000
  H   H306      1.0  0.33410  0.50300  0.22740  1.0000
  C   C163      1.0  0.32350  0.57728  0.21243  1.0000
  H   H307      1.0  0.13692  0.90603  0.20994  1.0000
  Fe  Fe19      1.0  0.11071  0.53452  0.32087  1.0000
  H   H308      1.0  0.10443  0.93491  0.19173  1.0000
  H   H309      1.0  0.04806  0.93336  0.23188  1.0000
  C   C164      1.0  0.05848  0.96038  0.23958  1.0000
  H   H310      1.0  0.46663  0.98419  0.22153  1.0000
  H   H311      1.0  0.34925  0.96329  0.31665  1.0000
  C   C165      1.0  0.44753  0.51632  0.21476  1.0000
  C   C166      1.0  0.31030  0.96129  0.24797  1.0000
  H   H312      1.0  0.23643  0.57467  0.27382  1.0000
  C   C167      1.0  0.43511  0.93370  0.22248  1.0000
  H   H313      1.0  0.17648  0.93388  0.16767  1.0000
  H   H314      1.0  0.09081  0.91103  0.03600  1.0000
  H   H315      1.0  0.24861  0.61065  0.18377  1.0000
  H   H316      1.0  0.24431  0.54301  0.20984  1.0000
  H   H317      1.0  0.09768  0.93380  0.26799  1.0000
  H   H318      1.0  0.22280  0.59472  0.23518  1.0000
  H   H319      1.0  0.03271  0.93450  0.03802  1.0000
  H   H320      1.0  0.21176  0.56058  0.15980  1.0000
  H   H321      1.0  0.32143  0.60388  0.19739  1.0000
  H   H322      1.0  0.01467  0.87824  0.20010  1.0000
  H   H323      1.0  0.36988  0.97039  0.18785  1.0000
  C   C168      1.0  0.03598  0.86800  0.18504  1.0000
  C   C169      1.0  0.03963  0.51058  0.19787  1.0000
  C   C170      1.0  0.03756  0.90347  0.04081  1.0000
  C   C171      1.0  0.05117  0.96739  0.10324  1.0000
  H   H324      1.0  0.39102  0.57677  0.20079  1.0000
  H   H325      1.0  0.24575  0.54323  0.13470  1.0000
  C   C172      1.0  0.38322  0.59762  0.22012  1.0000
  H   H326      1.0  0.03225  0.83742  0.17846  1.0000
  H   H327      1.0  0.06758  0.95018  0.11929  1.0000
  H   H328      1.0  0.04704  0.51032  0.17139  1.0000
  H   H329      1.0  0.45522  0.53327  0.19367  1.0000
  H   H330      1.0  0.20271  0.63241  0.28241  1.0000
  H   H331      1.0  0.06026  0.56739  0.20675  1.0000
  H   H332      1.0  0.40919  0.92593  0.22826  1.0000
  H   H333      1.0  0.34073  0.92091  0.22124  1.0000
  H   H334      1.0  0.37910  0.62599  0.20838  1.0000
  H   H335      1.0  0.29126  0.60863  0.26696  1.0000
  H   H336      1.0  0.14368  0.96447  0.15326  1.0000
  H   H337      1.0  0.06959  0.90188  0.99769  1.0000
  H   H338      1.0  0.35820  0.55713  0.25091  1.0000
  H   H339      1.0  0.39611  0.95138  0.27642  1.0000
  C   C173      1.0  0.44053  0.92660  0.18548  1.0000
  C   C174      1.0  0.35164  0.97886  0.20604  1.0000
  C   C175      1.0  0.25977  0.58454  0.17277  1.0000
  C   C176      1.0  0.00855  0.89008  0.13189  1.0000
  H   H340      1.0  0.06175  0.89647  0.08833  1.0000
  H   H341      1.0  0.34494  0.60597  0.25622  1.0000
  N   N12       1.0  0.29032  0.56710  0.22713  1.0000
  C   C177      1.0  0.22886  0.63534  0.27433  1.0000
  S   S33       1.0  0.99731  0.49260  0.28582  1.0000
  C   C178      1.0  0.30984  0.49774  0.23929  1.0000
  H   H342      1.0  0.12480  0.89862  0.16742  1.0000
  H   H343      1.0  0.22983  0.59092  0.12849  1.0000
  S   S34       1.0  0.48149  0.49217  0.30823  1.0000
  C   C179      1.0  0.23527  0.56876  0.14746  1.0000
  C   C180      1.0  0.08660  0.96054  0.26020  1.0000
  C   C181      1.0  0.46706  0.51623  0.24373  1.0000
  C   C182      1.0  0.15397  0.94989  0.17534  1.0000
  C   C183      1.0  0.27637  0.60190  0.24457  1.0000
  C   C184      1.0  0.26788  0.55414  0.19958  1.0000
  H   H344      1.0  0.04366  0.92238  0.16221  1.0000
  H   H345      1.0  0.45166  0.91375  0.23591  1.0000
  C   C185      1.0  0.03614  0.55242  0.20843  1.0000
  C   C186      1.0  0.12849  0.92060  0.18696  1.0000
  H   H346      1.0  0.01486  0.49735  0.20012  1.0000
  Fe  Fe20      1.0  0.17097  0.94870  0.31208  1.0000
  H   H347      1.0  0.27898  0.52947  0.18614  1.0000
  C   C187      1.0  0.16452  0.50941  0.23993  1.0000
  S   S35       1.0  0.16088  0.50752  0.30880  1.0000
  C   C188      1.0  0.29341  0.53514  0.25208  1.0000
  H   H348      1.0  0.40358  0.60029  0.23838  1.0000
  C   C189      1.0  0.23984  0.59887  0.25637  1.0000
  C   C190      1.0  0.07068  0.89419  0.02440  1.0000
  H   H349      1.0  0.26861  0.52659  0.26134  1.0000
  H   H350      1.0  0.23065  0.66054  0.25761  1.0000
  H   H351      1.0  0.13933  0.98779  0.21579  1.0000
  H   H352      1.0  0.17597  0.96178  0.22256  1.0000
  N   N13       1.0  0.01018  0.90988  0.09865  1.0000
  H   H353      1.0  0.28245  0.59282  0.15906  1.0000
  H   H354      1.0  0.20471  0.50098  0.99874  1.0000
  H   H355      1.0  0.02666  0.55427  0.23425  1.0000
  N   N14       1.0  0.43978  0.98585  0.26816  1.0000
  C   C191      1.0  0.41830  0.49470  0.21279  1.0000
  H   H356      1.0  0.01820  0.56719  0.19200  1.0000
  H   H357      1.0  0.00215  0.85929  0.12842  1.0000
  C   C192      1.0  0.46101  0.95948  0.28869  1.0000
  H   H358      1.0  0.03413  0.85956  0.07824  1.0000
  H   H359      1.0  0.00279  0.96240  0.12660  1.0000
  C   C193      1.0  0.17870  0.49696  0.26960  1.0000
  H   H360      1.0  0.16816  0.50941  0.18651  1.0000
  H   H361      1.0  0.06216  0.88209  0.14065  1.0000
  C   C194      1.0  0.17922  0.49954  0.20935  1.0000
  H   H362      1.0  0.42339  0.94441  0.17052  1.0000
  H   H363      1.0  0.06151  0.96649  0.07774  1.0000
  H   H364      1.0  0.46641  0.93327  0.17833  1.0000
  C   C195      1.0  0.03982  0.89242  0.15383  1.0000
  H   H365      1.0  0.05866  0.87022  0.20037  1.0000
  C   C196      1.0  0.03690  0.89132  0.07786  1.0000
  H   H366      1.0  0.00212  0.96885  0.08350  1.0000
  C   C197      1.0  0.44199  0.97615  0.23174  1.0000
  H   H367      1.0  0.01806  0.88795  0.02688  1.0000
  C   C198      1.0  0.01500  0.95253  0.10326  1.0000
  H   H368      1.0  0.05775  0.49376  0.24583  1.0000
  C   C199      1.0  0.15897  0.72523  0.32193  1.0000
  H   H369      1.0  0.18463  0.71678  0.31999  1.0000
  S   S36       1.0  0.18317  0.79894  0.31967  1.0000
  H   H370      1.0  0.08945  0.50436  0.21739  1.0000
  H   H371      1.0  0.46129  0.96919  0.31497  1.0000
  C   C200      1.0  0.15068  0.76448  0.32158  1.0000
  C   C201      1.0  0.40433  0.98157  0.27916  1.0000
  H   H372      1.0  0.22678  0.97774  0.19503  1.0000
  H   H373      1.0  0.10415  0.49233  0.16492  1.0000
  Fe  Fe21      1.0  0.19009  0.86429  0.32277  1.0000
  H   H374      1.0  0.21034  0.98342  0.15486  1.0000
  H   H375      1.0  0.11043  0.80474  0.32359  1.0000
  C   C202      1.0  0.11733  0.77483  0.32410  1.0000
  H   H376      1.0  0.98985  0.51790  0.59263  1.0000
  Fe  Fe22      1.0  0.21260  0.92629  0.37332  1.0000
  S   S37       1.0  0.23948  0.88095  0.34407  1.0000
  S   S38       1.0  0.21401  0.93258  0.43030  1.0000
  C   C203      1.0  0.45441  0.50142  0.41299  1.0000
  H   H377      1.0  0.05159  0.51819  0.54280  1.0000
  S   S39       1.0  0.16278  0.90732  0.35426  1.0000
  C   C204      1.0  0.44132  0.53616  0.39401  1.0000
  H   H378      1.0  0.25196  0.80657  0.38994  1.0000
  S   S40       1.0  0.10624  0.57308  0.36559  1.0000
  C   C205      1.0  0.08855  0.86164  0.38954  1.0000
  H   H379      1.0  0.10031  0.55853  0.61475  1.0000
  Fe  Fe23      1.0  0.06216  0.53760  0.38118  1.0000
  H   H380      1.0  0.21148  0.93800  0.50155  1.0000
  H   H381      1.0  0.11714  0.82533  0.51728  1.0000
  S   S41       1.0  0.02589  0.57363  0.35259  1.0000
  H   H382      1.0  0.19221  0.77984  0.38846  1.0000
  C   C206      1.0  0.13784  0.75297  0.41439  1.0000
  C   C207      1.0  0.24716  0.81799  0.41523  1.0000
  H   H383      1.0  0.20314  0.76489  0.42904  1.0000
  H   H384      1.0  0.14310  0.78583  0.53043  1.0000
  H   H385      1.0  0.40874  0.97217  0.33286  1.0000
  H   H386      1.0  0.25670  0.79747  0.43394  1.0000
  C   C208      1.0  0.23979  0.95727  0.45942  1.0000
  H   H387      1.0  0.09436  0.56413  0.50226  1.0000
  C   C209      1.0  0.13862  0.82294  0.40711  1.0000
  H   H388      1.0  0.09221  0.51293  0.49578  1.0000
  N   N15       1.0  0.06228  0.52146  0.59552  1.0000
  H   H389      1.0  0.45651  0.52552  0.51438  1.0000
  H   H390      1.0  0.09470  0.83592  0.43697  1.0000
  H   H391      1.0  0.26071  0.84545  0.41800  1.0000
  C   C210      1.0  0.10086  0.82846  0.41099  1.0000
  H   H392      1.0  0.06240  0.56456  0.55650  1.0000
  H   H393      1.0  0.12395  0.67817  0.39537  1.0000
  H   H394      1.0  0.09409  0.85625  0.36296  1.0000
  H   H395      1.0  0.44853  0.56284  0.40711  1.0000
  H   H396      1.0  0.48572  0.58159  0.62423  1.0000
  C   C211      1.0  0.09269  0.52793  0.61646  1.0000
  H   H397      1.0  0.24509  0.97256  0.54353  1.0000
  H   H398      1.0  0.27344  0.98118  0.42372  1.0000
  H   H399      1.0  0.00541  0.55216  0.56330  1.0000
  H   H400      1.0  0.11172  0.75153  0.42259  1.0000
  C   C212      1.0  0.19001  0.78784  0.41515  1.0000
  H   H401      1.0  0.15382  0.82699  0.46838  1.0000
  C   C213      1.0  0.03507  0.54651  0.60942  1.0000
  H   H402      1.0  0.08708  0.80255  0.40329  1.0000
  H   H403      1.0  0.11094  0.68335  0.43807  1.0000
  H   H404      1.0  0.09828  0.78655  0.46892  1.0000
  H   H405      1.0  0.06608  0.95831  0.37639  1.0000
  H   H406      1.0  0.13642  0.75206  0.38694  1.0000
  C   C214      1.0  0.13269  0.68077  0.42137  1.0000
  C   C215      1.0  0.02672  0.49984  0.46219  1.0000
  C   C216      1.0  0.09278  0.74632  0.32741  1.0000
  H   H407      1.0  0.10033  0.88892  0.39725  1.0000
  H   H408      1.0  0.04367  0.57676  0.61119  1.0000
  S   S42       1.0  0.05769  0.50577  0.43108  1.0000
  H   H409      1.0  0.15549  0.99085  0.38856  1.0000
  H   H410      1.0  0.11492  0.50081  0.55124  1.0000
  H   H411      1.0  0.12051  0.55115  0.55812  1.0000
  H   H412      1.0  0.02860  0.53772  0.63508  1.0000
  C   C217      1.0  0.15538  0.71544  0.42515  1.0000
  C   C218      1.0  0.06850  0.53364  0.55994  1.0000
  H   H413      1.0  0.17428  0.78301  0.47501  1.0000
  H   H414      1.0  0.20267  0.84713  0.40202  1.0000
  C   C219      1.0  0.23220  0.95512  0.49351  1.0000
  N   N16       1.0  0.15408  0.78969  0.42544  1.0000
  C   C220      1.0  0.00194  0.54619  0.59008  1.0000
  S   S43       1.0  0.30373  0.97975  0.63051  1.0000
  H   H415      1.0  0.14410  0.82044  0.38008  1.0000
  H   H416      1.0  0.10589  0.95586  0.35660  1.0000
  C   C221      1.0  0.15232  0.79582  0.46255  1.0000
  H   H417      1.0  0.20660  0.83696  0.44560  1.0000
  H   H418      1.0  0.12348  0.74745  0.48205  1.0000
  C   C222      1.0  0.21023  0.82510  0.42032  1.0000
  S   S44       1.0  0.21919  0.97042  0.33310  1.0000
  C   C223      1.0  0.12188  0.77916  0.48108  1.0000
  H   H419      1.0  0.09880  0.78060  0.52971  1.0000
  C   C224      1.0  0.47767  0.50678  0.51150  1.0000
  C   C225      1.0  0.10429  0.52946  0.54631  1.0000
  C   C226      1.0  0.25131  0.97468  0.51750  1.0000
  H   H420      1.0  0.17739  0.71039  0.40915  1.0000
  H   H421      1.0  0.14971  0.85051  0.41523  1.0000
  H   H422      1.0  0.16381  0.71699  0.45126  1.0000
  C   C227      1.0  0.12025  0.79370  0.51680  1.0000
  H   H423      1.0  0.06137  0.86474  0.39240  1.0000
  H   H424      1.0  0.11407  0.51130  0.60697  1.0000
  H   H425      1.0  0.14636  0.65419  0.42782  1.0000
  S   S45       1.0  0.06968  0.49702  0.33881  1.0000
  H   H426      1.0  0.45188  0.53708  0.36856  1.0000
  H   H427      1.0  0.13163  0.53578  0.50022  1.0000
  H   H428      1.0  0.06711  0.75471  0.32948  1.0000
  C   C228      1.0  0.08839  0.97508  0.36970  1.0000
  H   H429      1.0  0.41395  0.53521  0.39234  1.0000
  H   H430      1.0  0.15074  0.95853  0.49303  1.0000
  Fe  Fe24      1.0  0.07074  0.60651  0.33384  1.0000
  C   C229      1.0  0.10557  0.53609  0.50890  1.0000
  H   H431      1.0  0.46721  0.54614  0.59739  1.0000
  C   C230      1.0  0.14416  0.98690  0.50371  1.0000
  S   S46       1.0  0.06901  0.67245  0.33312  1.0000
  C   C231      1.0  0.10108  0.70707  0.32793  1.0000
  H   H432      1.0  0.14130  0.66677  0.32539  1.0000
  H   H433      1.0  0.48158  0.50450  0.41525  1.0000
  C   C232      1.0  0.26700  0.97929  0.44969  1.0000
  H   H434      1.0  0.10950  0.96760  0.41802  1.0000
  C   C233      1.0  0.99885  0.52347  0.46422  1.0000
  C   C234      1.0  0.13442  0.69673  0.32503  1.0000
  H   H435      1.0  0.45547  0.54859  0.64034  1.0000
  H   H436      1.0  0.12477  0.98266  0.52288  1.0000
  H   H437      1.0  0.99565  0.54632  0.44640  1.0000
  H   H438      1.0  0.44308  0.50258  0.43802  1.0000
  C   C235      1.0  0.08958  0.51809  0.65386  1.0000
  C   C236      1.0  0.47648  0.55172  0.62283  1.0000
  H   H439      1.0  0.48603  0.84033  0.44820  1.0000
  Fe  Fe25      1.0  0.09715  0.95344  0.83230  1.0000
  S   S47       1.0  0.06347  0.92077  0.79860  1.0000
  C   C237      1.0  0.36792  0.89515  0.75743  1.0000
  Fe  Fe26      1.0  0.05053  0.94335  0.89370  1.0000
  S   S48       1.0  0.01454  0.90833  0.86365  1.0000
  S   S49       1.0  0.14631  0.98120  0.81778  1.0000
  Fe  Fe27      1.0  0.05975  0.87879  0.84136  1.0000
  S   S50       1.0  0.06303  0.81448  0.82806  1.0000
  Fe  Fe28      1.0  0.02141  0.95265  0.82331  1.0000
  H   H440      1.0  0.03949  0.55993  0.72441  1.0000
  S   S51       1.0  0.09510  0.91072  0.87414  1.0000
  Fe  Fe29      1.0  0.18141  0.61680  0.83596  1.0000
  S   S52       1.0  0.15412  0.56860  0.86110  1.0000
  S   S53       1.0  0.17203  0.68122  0.84660  1.0000
  Fe  Fe30      1.0  0.23243  0.55989  0.80615  1.0000
  C   C238      1.0  0.43922  0.78929  0.84723  1.0000
  S   S54       1.0  0.27982  0.55949  0.77478  1.0000
  Fe  Fe31      1.0  0.16024  0.53610  0.81304  1.0000
  H   H441      1.0  0.40848  0.87533  0.86139  1.0000
  Fe  Fe32      1.0  0.20401  0.54448  0.87598  1.0000
  H   H442      1.0  0.45886  0.94084  0.86651  1.0000
  S   S55       1.0  0.18487  0.58555  0.78677  1.0000
  S   S56       1.0  0.23099  0.59446  0.85356  1.0000
  H   H443      1.0  0.04363  0.92723  0.72814  1.0000
  C   C239      1.0  0.34997  0.51049  0.83141  1.0000
  H   H444      1.0  0.42190  0.93488  0.89084  1.0000
  C   C240      1.0  0.23003  0.49677  0.99092  1.0000
  H   H445      1.0  0.12591  0.80002  0.75290  1.0000
  S   S57       1.0  0.20822  0.50873  0.82957  1.0000
  H   H446      1.0  0.45526  0.90093  0.89493  1.0000
  C   C241      1.0  0.07631  0.53131  0.75414  1.0000
  S   S58       1.0  0.12272  0.49256  0.79285  1.0000
  H   H447      1.0  0.13091  0.95292  0.75096  1.0000
  H   H448      1.0  0.43131  0.89372  0.77275  1.0000
  C   C242      1.0  0.09357  0.77775  0.83383  1.0000
  C   C243      1.0  0.12079  0.78234  0.85477  1.0000
  C   C244      1.0  0.14429  0.75252  0.85835  1.0000
  C   C245      1.0  0.14086  0.71736  0.84146  1.0000
  C   C246      1.0  0.11346  0.71263  0.82073  1.0000
  C   C247      1.0  0.09010  0.74260  0.81694  1.0000
  H   H449      1.0  0.12346  0.80860  0.86868  1.0000
  H   H450      1.0  0.16515  0.75657  0.87468  1.0000
  H   H451      1.0  0.11034  0.68595  0.80750  1.0000
  H   H452      1.0  0.06910  0.73846  0.80083  1.0000
  C   C248      1.0  0.46011  0.96890  0.76273  1.0000
  H   H453      1.0  0.16139  0.95876  0.69749  1.0000
  H   H454      1.0  0.48895  0.81628  0.80771  1.0000
  H   H455      1.0  0.45917  0.54271  0.70614  1.0000
  C   C249      1.0  0.44828  0.94959  0.70595  1.0000
  H   H456      1.0  0.42566  0.57680  0.70804  1.0000
  C   C250      1.0  0.34266  0.49614  0.71740  1.0000
  H   H457      1.0  0.40807  0.73873  0.84185  1.0000
  H   H458      1.0  0.24889  0.86641  0.70425  1.0000
  C   C251      1.0  0.01754  0.97975  0.97680  1.0000
  N   N17       1.0  0.44125  0.84485  0.80435  1.0000
  C   C252      1.0  0.42140  0.81311  0.82009  1.0000
  C   C253      1.0  0.42134  0.86450  0.77749  1.0000
  H   H459      1.0  0.09086  0.53202  0.97213  1.0000
  H   H460      1.0  0.47732  0.86360  0.74400  1.0000
  H   H461      1.0  0.41296  0.91523  0.83294  1.0000
  H   H462      1.0  0.45734  0.98462  0.98141  1.0000
  C   C254      1.0  0.05552  0.94255  0.70719  1.0000
  C   C255      1.0  0.38604  0.51413  0.82058  1.0000
  H   H463      1.0  0.07249  0.53835  0.66639  1.0000
  H   H464      1.0  0.37681  0.92479  0.76164  1.0000
  S   S59       1.0  0.20763  0.52108  0.92968  1.0000
  C   C256      1.0  0.13358  0.56738  0.96570  1.0000
  H   H465      1.0  0.41300  0.79278  0.80053  1.0000
  H   H466      1.0  0.43930  0.55316  0.76355  1.0000
  H   H467      1.0  0.07481  0.83925  0.76110  1.0000
  C   C257      1.0  0.15430  0.96770  0.75006  1.0000
  C   C258      1.0  0.42627  0.89515  0.84957  1.0000
  H   H468      1.0  0.47036  0.85954  0.84748  1.0000
  C   C259      1.0  0.45312  0.87339  0.82971  1.0000
  H   H469      1.0  0.37671  0.87837  0.80771  1.0000
  C   C260      1.0  0.41628  0.75877  0.86157  1.0000
  H   H470      1.0  0.14946  0.57899  0.94557  1.0000
  C   C261      1.0  0.10695  0.54125  0.95135  1.0000
  H   H471      1.0  0.42964  0.74203  0.88077  1.0000
  H   H472      1.0  0.46810  0.89588  0.81759  1.0000
  C   C262      1.0  0.48352  0.98621  0.98654  1.0000
  H   H473      1.0  0.08998  0.87353  0.73121  1.0000
  H   H474      1.0  0.22500  0.91009  0.70060  1.0000
  S   S60       1.0  0.04890  0.96404  0.94830  1.0000
  S   S61       1.0  0.48549  0.97024  0.79869  1.0000
  H   H475      1.0  0.13971  0.51843  0.91451  1.0000
  C   C263      1.0  0.43240  0.54622  0.71155  1.0000
  C   C264      1.0  0.12294  0.52138  0.67132  1.0000
  H   H476      1.0  0.12186  0.59184  0.97888  1.0000
  S   S62       1.0  0.00045  0.50221  0.69277  1.0000
  H   H477      1.0  0.39429  0.77226  0.87335  1.0000
  H   H478      1.0  0.14072  0.83451  0.72332  1.0000
  S   S63       1.0  0.39340  0.97065  0.66988  1.0000
  H   H479      1.0  0.08760  0.55761  0.76259  1.0000
  H   H480      1.0  0.34061  0.89509  0.76015  1.0000
  H   H481      1.0  0.34153  0.53764  0.84311  1.0000
  H   H482      1.0  0.37426  0.88635  0.73169  1.0000
  C   C265      1.0  0.08889  0.49610  0.76486  1.0000
  N   N18       1.0  0.17786  0.85182  0.77997  1.0000
  C   C266      1.0  0.18710  0.87729  0.80879  1.0000
  C   C267      1.0  0.19372  0.86599  0.74811  1.0000
  C   C268      1.0  0.14081  0.85437  0.77579  1.0000
  C   C269      1.0  0.18664  0.81046  0.78622  1.0000
  C   C270      1.0  0.22328  0.80198  0.79411  1.0000
  C   C271      1.0  0.17372  0.86533  0.84329  1.0000
  C   C272      1.0  0.12625  0.83097  0.74646  1.0000
  C   C273      1.0  0.22748  0.88679  0.75078  1.0000
  C   C274      1.0  0.20213  0.99044  0.71807  1.0000
  C   C275      1.0  0.22797  0.76011  0.80421  1.0000
  C   C276      1.0  0.18546  0.89286  0.87025  1.0000
  H   H483      1.0  0.17863  0.90712  0.80388  1.0000
  H   H484      1.0  0.21423  0.87931  0.81171  1.0000
  H   H485      1.0  0.19679  0.84196  0.73016  1.0000
  H   H486      1.0  0.17728  0.88705  0.73541  1.0000
  H   H487      1.0  0.13316  0.88493  0.77307  1.0000
  H   H488      1.0  0.12766  0.84375  0.79815  1.0000
  H   H489      1.0  0.17106  0.79856  0.80648  1.0000
  H   H490      1.0  0.18052  0.79258  0.76424  1.0000
  H   H491      1.0  0.23248  0.81988  0.81478  1.0000
  H   H492      1.0  0.23868  0.80704  0.77176  1.0000
  H   H493      1.0  0.14644  0.86577  0.84376  1.0000
  H   H494      1.0  0.18238  0.83623  0.85013  1.0000
  H   H495      1.0  0.08075  0.82520  0.71859  1.0000
  H   H496      1.0  0.45560  0.93436  0.68374  1.0000
  H   H497      1.0  0.24559  0.87013  0.76543  1.0000
  C   C277      1.0  0.42477  0.53419  0.74718  1.0000
  H   H498      1.0  0.46416  0.80117  0.77366  1.0000
  C   C278      1.0  0.12272  0.50640  0.93339  1.0000
  H   H499      1.0  0.25456  0.75414  0.80862  1.0000
  H   H500      1.0  0.21422  0.75391  0.82747  1.0000
  H   H501      1.0  0.21908  0.74050  0.78445  1.0000
  H   H502      1.0  0.17687  0.92249  0.86496  1.0000
  H   H503      1.0  0.17508  0.88400  0.89457  1.0000
  H   H504      1.0  0.21284  0.89260  0.87198  1.0000
  C   C279      1.0  0.42992  0.98903  0.76312  1.0000
  C   C280      1.0  0.47143  0.82678  0.78844  1.0000
  C   C281      1.0  0.46922  0.94917  0.73392  1.0000
  C   C282      1.0  0.38339  0.86790  0.78270  1.0000
  C   C283      1.0  0.04217  0.49852  0.84043  1.0000
  H   H505      1.0  0.08281  0.94125  0.70983  1.0000
  C   C284      1.0  0.09077  0.84308  0.73896  1.0000
  H   H506      1.0  0.44691  0.53035  0.81268  1.0000
  C   C285      1.0  0.23893  0.50494  0.95784  1.0000
  H   H507      1.0  0.38826  0.53991  0.80484  1.0000
  C   C286      1.0  0.24251  0.89393  0.71653  1.0000
  H   H508      1.0  0.33582  0.55549  0.73117  1.0000
  H   H509      1.0  0.39848  0.82427  0.83171  1.0000
  H   H510      1.0  0.22397  0.91518  0.76285  1.0000
  H   H511      1.0  0.26537  0.91122  0.71903  1.0000
  C   C287      1.0  0.32658  0.52662  0.73390  1.0000
  H   H512      1.0  0.46115  0.77418  0.83702  1.0000
  C   C288      1.0  0.29839  0.52017  0.75365  1.0000
  H   H513      1.0  0.12002  0.51419  0.69798  1.0000
  C   C289      1.0  0.41823  0.97006  0.70625  1.0000
  H   H514      1.0  0.44719  0.80779  0.86809  1.0000
  H   H515      1.0  0.37178  0.83934  0.77935  1.0000
  H   H516      1.0  0.01640  0.98359  0.70329  1.0000
  H   H517      1.0  0.06373  0.52090  0.89937  1.0000
  H   H518      1.0  0.09202  0.55865  0.93390  1.0000
  C   C290      1.0  0.44162  0.91934  0.87712  1.0000
  H   H519      1.0  0.13261  0.55105  0.66948  1.0000
  H   H520      1.0  0.42389  0.84876  0.75354  1.0000
  C   C291      1.0  0.17166  0.97107  0.71980  1.0000
  C   C292      1.0  0.04893  0.53250  0.73254  1.0000
  H   H521      1.0  0.36378  0.50165  0.70174  1.0000
  H   H522      1.0  0.39807  0.53938  0.75149  1.0000
  H   H523      1.0  0.41795  0.52886  0.69368  1.0000
  H   H524      1.0  0.27926  0.50540  0.92305  1.0000
  C   C293      1.0  0.27189  0.49934  0.94830  1.0000
  H   H525      1.0  0.14116  0.50110  0.66039  1.0000
  H   H526      1.0  0.40067  0.51881  0.84349  1.0000
  C   C294      1.0  0.08166  0.49966  0.88924  1.0000
  C   C295      1.0  0.45568  0.50043  0.80982  1.0000
  H   H527      1.0  0.09932  0.51711  0.87449  1.0000
  C   C296      1.0  0.40917  0.98978  0.73506  1.0000
  C   C297      1.0  0.04370  0.98406  0.70613  1.0000
  C   C298      1.0  0.16715  0.98395  0.77897  1.0000
  S   S64       1.0  0.05585  0.98828  0.85429  1.0000
  C   C299      1.0  0.03400  0.49860  0.72108  1.0000
  H   H528      1.0  0.14940  0.55145  0.98349  1.0000
  H   H529      1.0  0.04859  0.92783  0.68382  1.0000
  H   H530      1.0  0.02220  0.51394  0.85390  1.0000
  H   H531      1.0  0.33390  0.50472  0.80980  1.0000
  H   H532      1.0  0.05815  0.51977  0.82769  1.0000
  Fe  Fe33      1.0  0.97178  0.03487  0.17933  1.0000
  H   H533      1.0  0.59879  0.09741  0.06274  1.0000
  H   H534      1.0  0.51127  0.17649  0.00666  1.0000
  Fe  Fe34      1.0  0.94136  0.11173  0.15521  1.0000
  S   S65       1.0  0.90085  0.08175  0.12787  1.0000
  S   S66       1.0  0.94313  0.17742  0.16123  1.0000
  Fe  Fe35      1.0  0.89562  0.04593  0.17421  1.0000
  H   H535      1.0  0.56247  0.11808  0.08161  1.0000
  Fe  Fe36      1.0  0.94022  0.03994  0.11040  1.0000
  H   H536      1.0  0.68353  0.45756  0.99228  1.0000
  S   S67       1.0  0.93553  0.07677  0.20209  1.0000
  C   C300      1.0  0.67072  0.47458  0.28061  1.0000
  Fe  Fe37      1.0  0.82355  0.37106  0.13468  1.0000
  S   S68       1.0  0.85082  0.42078  0.11133  1.0000
  S   S69       1.0  0.83536  0.30695  0.12514  1.0000
  Fe  Fe38      1.0  0.76889  0.42459  0.16223  1.0000
  S   S70       1.0  0.71600  0.43030  0.18242  1.0000
  Fe  Fe39      1.0  0.80092  0.44304  0.09415  1.0000
  C   C301      1.0  0.97066  0.00126  0.02677  1.0000
  Fe  Fe40      1.0  0.84124  0.45110  0.16000  1.0000
  H   H537      1.0  0.82848  0.43980  0.25514  1.0000
  S   S71       1.0  0.77438  0.39156  0.11432  1.0000
  S   S72       1.0  0.81589  0.40053  0.18429  1.0000
  H   H538      1.0  0.80023  0.99820  0.13584  1.0000
  C   C302      1.0  0.71689  0.44468  0.25047  1.0000
  C   C303      1.0  0.69902  0.44604  0.22087  1.0000
  H   H539      1.0  0.75928  0.99913  0.27659  1.0000
  H   H540      1.0  0.74139  0.43235  0.25059  1.0000
  S   S73       1.0  0.84341  0.04320  0.19703  1.0000
  C   C304      1.0  0.92171  0.45948  0.22540  1.0000
  H   H541      1.0  0.72614  0.44494  0.03537  1.0000
  H   H542      1.0  0.69640  0.15306  0.24463  1.0000
  H   H543      1.0  0.91015  0.43272  0.21858  1.0000
  C   C305      1.0  0.78266  0.99260  0.26485  1.0000
  H   H544      1.0  0.95726  0.43309  0.25806  1.0000
  H   H545      1.0  0.50380  0.27204  0.16548  1.0000
  C   C306      1.0  0.91290  0.21309  0.15093  1.0000
  C   C307      1.0  0.88844  0.20686  0.12707  1.0000
  C   C308      1.0  0.86519  0.23591  0.11957  1.0000
  C   C309      1.0  0.86607  0.27186  0.13549  1.0000
  C   C310      1.0  0.89067  0.27823  0.15921  1.0000
  C   C311      1.0  0.91390  0.24911  0.16676  1.0000
  H   H546      1.0  0.88781  0.17985  0.11395  1.0000
  H   H547      1.0  0.84660  0.23065  0.10091  1.0000
  H   H548      1.0  0.89186  0.30563  0.17167  1.0000
  H   H549      1.0  0.93285  0.25454  0.18501  1.0000
  H   H550      1.0  0.90477  0.39215  0.31274  1.0000
  S   S74       1.0  0.52560  0.06674  0.20840  1.0000
  H   H551      1.0  0.65240  0.46162  0.19888  1.0000
  H   H552      1.0  0.50182  0.31745  0.21335  1.0000
  C   C312      1.0  0.82751  0.01049  0.22682  1.0000
  H   H553      1.0  0.77297  0.28164  0.15263  1.0000
  C   C313      1.0  0.79711  0.01873  0.24242  1.0000
  C   C314      1.0  0.58998  0.01004  0.26874  1.0000
  C   C315      1.0  0.55020  0.02971  0.22607  1.0000
  C   C316      1.0  0.56993  0.03828  0.25380  1.0000
  C   C317      1.0  0.51924  0.41504  0.25310  1.0000
  H   H554      1.0  0.56967  0.06703  0.26383  1.0000
  H   H555      1.0  0.60489  0.01709  0.29008  1.0000
  H   H556      1.0  0.56970  0.08799  0.01029  1.0000
  C   C318      1.0  0.89571  0.42195  0.31617  1.0000
  H   H557      1.0  0.79436  0.45014  0.28264  1.0000
  C   C319      1.0  0.79916  0.48900  0.24056  1.0000
  H   H558      1.0  0.70807  0.99366  0.14852  1.0000
  H   H559      1.0  0.53678  0.01038  0.04788  1.0000
  C   C320      1.0  0.52811  0.00096  0.02393  1.0000
  H   H560      1.0  0.66751  0.04439  0.28521  1.0000
  C   C321      1.0  0.55881  0.10856  0.02823  1.0000
  H   H561      1.0  0.71016  0.04622  0.27241  1.0000
  H   H562      1.0  0.51253  0.12937  0.04617  1.0000
  H   H563      1.0  0.52258  0.41202  0.28030  1.0000
  H   H564      1.0  0.72931  0.17099  0.27028  1.0000
  H   H565      1.0  0.49121  0.36318  0.24890  1.0000
  H   H566      1.0  0.78693  0.40546  0.99506  1.0000
  C   C322      1.0  0.49407  0.99936  0.01785  1.0000
  C   C323      1.0  0.73151  0.46420  0.01507  1.0000
  H   H567      1.0  0.75976  0.01295  0.17894  1.0000
  C   C324      1.0  0.55074  0.99241  0.21340  1.0000
  C   C325      1.0  0.70283  0.45893  0.28009  1.0000
  H   H568      1.0  0.56280  0.06821  0.06942  1.0000
  S   S75       1.0  0.49436  0.09292  0.11551  1.0000
  H   H569      1.0  0.69531  0.02683  0.19720  1.0000
  H   H570      1.0  0.65347  0.00420  0.23739  1.0000
  H   H571      1.0  0.51227  0.07975  0.03638  1.0000
  H   H572      1.0  0.73058  0.12216  0.25498  1.0000
  H   H573      1.0  0.89266  0.43517  0.29132  1.0000
  S   S76       1.0  0.94056  0.01199  0.05829  1.0000
  C   C326      1.0  0.65260  0.47528  0.25113  1.0000
  H   H574      1.0  0.76103  0.01014  0.11739  1.0000
  S   S77       1.0  0.93094  0.00161  0.15447  1.0000
  C   C327      1.0  0.81411  0.46316  0.26718  1.0000
  C   C328      1.0  0.76256  0.48175  0.01331  1.0000
  N   N19       1.0  0.80038  0.17420  0.19276  1.0000
  C   C329      1.0  0.79894  0.14020  0.16969  1.0000
  C   C330      1.0  0.77959  0.16521  0.22294  1.0000
  C   C331      1.0  0.78759  0.20912  0.17482  1.0000
  C   C332      1.0  0.83526  0.18196  0.20386  1.0000
  C   C333      1.0  0.85427  0.14728  0.21867  1.0000
  C   C334      1.0  0.82134  0.14195  0.13850  1.0000
  C   C335      1.0  0.78604  0.24659  0.19554  1.0000
  C   C336      1.0  0.74160  0.16570  0.21775  1.0000
  C   C337      1.0  0.88542  0.16032  0.23670  1.0000
  C   C338      1.0  0.81672  0.10635  0.11692  1.0000
  C   C339      1.0  0.76462  0.27686  0.17854  1.0000
  H   H575      1.0  0.77335  0.13608  0.16052  1.0000
  H   H576      1.0  0.80522  0.11332  0.18317  1.0000
  H   H577      1.0  0.78585  0.13625  0.23261  1.0000
  H   H578      1.0  0.78534  0.18506  0.24374  1.0000
  H   H579      1.0  0.76292  0.20333  0.16378  1.0000
  H   H580      1.0  0.80369  0.21617  0.15332  1.0000
  H   H581      1.0  0.85031  0.19352  0.18309  1.0000
  H   H582      1.0  0.83535  0.20514  0.22282  1.0000
  H   H583      1.0  0.86189  0.12722  0.19870  1.0000
  H   H584      1.0  0.83917  0.13108  0.23673  1.0000
  H   H585      1.0  0.81541  0.16709  0.12285  1.0000
  H   H586      1.0  0.84771  0.14337  0.14554  1.0000
  H   H587      1.0  0.81134  0.25855  0.19822  1.0000
  H   H588      1.0  0.73273  0.19512  0.21220  1.0000
  H   H589      1.0  0.73426  0.14668  0.19705  1.0000
  H   H590      1.0  0.89924  0.13496  0.24585  1.0000
  H   H591      1.0  0.90173  0.17664  0.21971  1.0000
  H   H592      1.0  0.87895  0.17867  0.25826  1.0000
  H   H593      1.0  0.79083  0.10433  0.10808  1.0000
  H   H594      1.0  0.83329  0.10803  0.09497  1.0000
  H   H595      1.0  0.82307  0.08003  0.13103  1.0000
  H   H596      1.0  0.73834  0.26782  0.17828  1.0000
  H   H597      1.0  0.77577  0.24201  0.22067  1.0000
  C   C340      1.0  0.57135  0.09736  0.06263  1.0000
  H   H598      1.0  0.76643  0.30447  0.19211  1.0000
  H   H599      1.0  0.50504  0.39511  0.19103  1.0000
  C   C341      1.0  0.94852  0.45982  0.24778  1.0000
  C   C342      1.0  0.52061  0.10822  0.02713  1.0000
  H   H600      1.0  0.67834  0.06809  0.24704  1.0000
  C   C343      1.0  0.72349  0.15211  0.24889  1.0000
  H   H601      1.0  0.56814  0.13778  0.02330  1.0000
  C   C344      1.0  0.66661  0.46080  0.22154  1.0000
  S   S78       1.0  0.79352  0.47682  0.14116  1.0000
  H   H602      1.0  0.49383  0.24858  0.20400  1.0000
  N   N20       1.0  0.50457  0.11668  0.99413  1.0000
  H   H603      1.0  0.51704  0.44609  0.24739  1.0000
  C   C345      1.0  0.67974  0.00568  0.24493  1.0000
  H   H604      1.0  0.71691  0.45782  0.30283  1.0000
  H   H605      1.0  0.78460  0.04536  0.23691  1.0000
  H   H606      1.0  0.85073  0.04070  0.29383  1.0000
  S   S79       1.0  0.98161  0.07239  0.13473  1.0000
  H   H607      1.0  0.94417  0.44491  0.32285  1.0000
  C   C346      1.0  0.68436  0.04350  0.26343  1.0000
  H   H608      1.0  0.83119  0.40935  0.99563  1.0000
  H   H609      1.0  0.78371  0.47086  0.22425  1.0000
  S   S80       1.0  0.79486  0.47282  0.04288  1.0000
  H   H610      1.0  0.72798  0.01038  0.22295  1.0000
  C   C347      1.0  0.70279  0.00315  0.21417  1.0000
  H   H611      1.0  0.54145  0.40325  0.24043  1.0000
  H   H612      1.0  0.57722  0.99213  0.00395  1.0000
  C   C348      1.0  0.84810  0.05437  0.31860  1.0000
  H   H613      1.0  0.98635  0.37498  0.21441  1.0000
  H   H614      1.0  0.62787  0.48709  0.25112  1.0000
  H   H615      1.0  0.83647  0.08294  0.31520  1.0000
  H   H616      1.0  0.83115  0.47973  0.28324  1.0000
  H   H617      1.0  0.81143  0.41865  0.61220  1.0000
  Fe  Fe41      1.0  0.80118  0.04454  0.59561  1.0000
  S   S81       1.0  0.77532  0.09648  0.61632  1.0000
  H   H618      1.0  0.56497  0.41865  0.39996  1.0000
  Fe  Fe42      1.0  0.82560  0.12020  0.62969  1.0000
  H   H619      1.0  0.76330  0.01034  0.36228  1.0000
  S   S82       1.0  0.85160  0.07009  0.60521  1.0000
  S   S83       1.0  0.79106  0.00766  0.54883  1.0000
  H   H620      1.0  0.90397  0.40775  0.49685  1.0000
  S   S84       1.0  0.89988  0.41409  0.60843  1.0000
  H   H621      1.0  0.83895  0.26201  0.59510  1.0000
  Fe  Fe43      1.0  0.94279  0.45193  0.59401  1.0000
  H   H622      1.0  0.57676  0.41785  0.59660  1.0000
  C   C349      1.0  0.74942  0.06695  0.37851  1.0000
  H   H623      1.0  0.55485  0.40620  0.44221  1.0000
  H   H624      1.0  0.95554  0.39439  0.42106  1.0000
  H   H625      1.0  0.51410  0.42950  0.54726  1.0000
  H   H626      1.0  0.58941  0.37240  0.64117  1.0000
  H   H627      1.0  0.82227  0.38190  0.58274  1.0000
  C   C350      1.0  0.82374  0.04619  0.37628  1.0000
  C   C351      1.0  0.49722  0.42970  0.40831  1.0000
  C   C352      1.0  0.79862  0.04972  0.43148  1.0000
  C   C353      1.0  0.70053  0.03543  0.59827  1.0000
  C   C354      1.0  0.90637  0.28207  0.64271  1.0000
  H   H628      1.0  0.60709  0.48351  0.58712  1.0000
  C   C355      1.0  0.52798  0.48978  0.48126  1.0000
  H   H629      1.0  0.84908  0.04506  0.38675  1.0000
  S   S85       1.0  0.94695  0.48113  0.54300  1.0000
  C   C356      1.0  0.82696  0.07437  0.48337  1.0000
  H   H630      1.0  0.91074  0.47501  0.33754  1.0000
  H   H631      1.0  0.78200  0.38147  0.60195  1.0000
  C   C357      1.0  0.98379  0.44573  0.37791  1.0000
  H   H632      1.0  0.53050  0.45209  0.61393  1.0000
  C   C358      1.0  0.82244  0.36285  0.63391  1.0000
  C   C359      1.0  0.92077  0.42820  0.44886  1.0000
  H   H633      1.0  0.80242  0.02627  0.32871  1.0000
  S   S86       1.0  0.97964  0.41884  0.62463  1.0000
  C   C360      1.0  0.53271  0.45962  0.50403  1.0000
  H   H634      1.0  0.84848  0.07038  0.50007  1.0000
  H   H635      1.0  0.76530  0.08400  0.36170  1.0000
  C   C361      1.0  0.88067  0.28754  0.62005  1.0000
  S   S87       1.0  0.93558  0.31887  0.65220  1.0000
  H   H636      1.0  0.60442  0.43831  0.62597  1.0000
  H   H637      1.0  0.50664  0.36889  0.42243  1.0000
  H   H638      1.0  0.80416  0.06835  0.49781  1.0000
  H   H639      1.0  0.81815  0.07728  0.37405  1.0000
  C   C362      1.0  0.92554  0.40398  0.48006  1.0000
  H   H640      1.0  0.87834  0.31470  0.60743  1.0000
  Fe  Fe44      1.0  0.84907  0.04211  0.65565  1.0000
  H   H641      1.0  0.70676  0.01415  0.64826  1.0000
  C   C363      1.0  0.76487  0.02706  0.38560  1.0000
  H   H642      1.0  0.91276  0.49141  0.40275  1.0000
  C   C364      1.0  0.55300  0.39686  0.41594  1.0000
  C   C365      1.0  0.51003  0.45288  0.53016  1.0000
  H   H643      1.0  0.72946  0.04673  0.52808  1.0000
  H   H644      1.0  0.87318  0.05792  0.32927  1.0000
  C   C366      1.0  0.92398  0.42891  0.37193  1.0000
  H   H645      1.0  0.84902  0.36946  0.63584  1.0000
  H   H646      1.0  0.92779  0.37315  0.47360  1.0000
  H   H647      1.0  0.92829  0.39750  0.37007  1.0000
  S   S88       1.0  0.83286  0.18435  0.61761  1.0000
  H   H648      1.0  0.74801  0.01205  0.40313  1.0000
  H   H649      1.0  0.50570  0.44719  0.38685  1.0000
  H   H650      1.0  0.81960  0.33248  0.62638  1.0000
  H   H651      1.0  0.51638  0.38026  0.38042  1.0000
  H   H652      1.0  0.55411  0.44121  0.50137  1.0000
  H   H653      1.0  0.66526  0.01533  0.63411  1.0000
  C   C367      1.0  0.76161  0.99945  0.51645  1.0000
  C   C368      1.0  0.95156  0.42544  0.42581  1.0000
  C   C369      1.0  0.73372  0.02262  0.51175  1.0000
  H   H654      1.0  0.74553  0.08309  0.40192  1.0000
  H   H655      1.0  0.56970  0.47736  0.56515  1.0000
  H   H656      1.0  0.71827  0.04949  0.33724  1.0000
  H   H657      1.0  0.72776  0.03571  0.59498  1.0000
  C   C370      1.0  0.85851  0.25741  0.61290  1.0000
  C   C371      1.0  0.80855  0.38780  0.60609  1.0000
  H   H658      1.0  0.66225  0.07833  0.60751  1.0000
  Fe  Fe45      1.0  0.93545  0.38377  0.64219  1.0000
  C   C372      1.0  0.82987  0.04723  0.45372  1.0000
  H   H659      1.0  0.98495  0.46284  0.35479  1.0000
  C   C373      1.0  0.57858  0.42928  0.62228  1.0000
  C   C374      1.0  0.86175  0.22119  0.62800  1.0000
  H   H660      1.0  0.50595  0.44557  0.43043  1.0000
  H   H661      1.0  0.79450  0.08068  0.42635  1.0000
  H   H662      1.0  0.97324  0.43527  0.44062  1.0000
  C   C375      1.0  0.57211  0.39641  0.64637  1.0000
  H   H663      1.0  0.69878  0.04567  0.37763  1.0000
  H   H664      1.0  0.54650  0.38568  0.64382  1.0000
  C   C376      1.0  0.51686  0.39141  0.40620  1.0000
  H   H665      1.0  0.91620  0.45809  0.45709  1.0000
  H   H666      1.0  0.82642  0.10466  0.47500  1.0000
  S   S89       1.0  0.80034  0.01358  0.64471  1.0000
  H   H667      1.0  0.69847  0.09603  0.58649  1.0000
  N   N21       1.0  0.79952  0.02707  0.39947  1.0000
  C   C377      1.0  0.94014  0.48838  0.40147  1.0000
  C   C378      1.0  0.97884  0.48828  0.51305  1.0000
  H   H668      1.0  0.69015  0.03331  0.48217  1.0000
  C   C379      1.0  0.55314  0.46245  0.62686  1.0000
  H   H669      1.0  0.56664  0.36942  0.41307  1.0000
  C   C380      1.0  0.71567  0.06311  0.36199  1.0000
  H   H670      1.0  0.68907  0.02722  0.57438  1.0000
  C   C381      1.0  0.68961  0.07638  0.60622  1.0000
  H   H671      1.0  0.83317  0.01787  0.46378  1.0000
  H   H672      1.0  0.77731  0.04036  0.44711  1.0000
  H   H673      1.0  0.85254  0.05507  0.43991  1.0000
  H   H674      1.0  0.70014  0.08591  0.63025  1.0000
  H   H675      1.0  0.70445  0.09190  0.35863  1.0000
  C   C382      1.0  0.92037  0.44529  0.33646  1.0000
  C   C383      1.0  0.82674  0.02911  0.34093  1.0000
  C   C384      1.0  0.69082  0.00742  0.62653  1.0000
  N   N22       1.0  0.94980  0.44741  0.39355  1.0000
  H   H676      1.0  0.49293  0.20311  0.63029  1.0000
  H   H677      1.0  0.89827  0.41763  0.43625  1.0000
  H   H678      1.0  0.54621  0.46445  0.65354  1.0000
  H   H679      1.0  0.94802  0.41306  0.49366  1.0000
  Fe  Fe46      1.0  0.89178  0.45336  0.65206  1.0000
  H   H680      1.0  0.89915  0.43169  0.38350  1.0000
  C   C385      1.0  0.71150  0.01501  0.48550  1.0000
  C   C386      1.0  0.88739  0.21574  0.65077  1.0000
  H   H681      1.0  0.97965  0.39035  0.35176  1.0000
  H   H682      1.0  0.83899  0.00067  0.34199  1.0000
  S   S90       1.0  0.56303  0.48326  0.35378  1.0000
  H   H683      1.0  0.87115  0.42146  0.32853  1.0000
  C   C387      1.0  0.82080  0.48198  0.70249  1.0000
  S   S91       1.0  0.82570  0.09344  0.68067  1.0000
  C   C388      1.0  0.58361  0.45497  0.76834  1.0000
  H   H684      1.0  0.50335  0.09373  0.68602  1.0000
  H   H685      1.0  0.76352  0.47426  0.90831  1.0000
  C   C389      1.0  0.51783  0.06729  0.90819  1.0000
  H   H686      1.0  0.85467  0.41237  0.82615  1.0000
  H   H687      1.0  0.51609  0.05900  0.97872  1.0000
  H   H688      1.0  0.74953  0.39485  0.76803  1.0000
  C   C390      1.0  0.56319  0.42638  0.75463  1.0000
  S   S92       1.0  0.92564  0.42206  0.68656  1.0000
  H   H689      1.0  0.71130  0.44829  0.89438  1.0000
  H   H690      1.0  0.52422  0.03764  0.91590  1.0000
  H   H691      1.0  0.86000  0.45693  0.73117  1.0000
  C   C391      1.0  0.77691  0.46049  0.88738  1.0000
  H   H692      1.0  0.81765  0.27821  0.73618  1.0000
  H   H693      1.0  0.75763  0.42047  0.94181  1.0000
  C   C392      1.0  0.51001  0.15798  0.98418  1.0000
  C   C393      1.0  0.53821  0.43566  0.73179  1.0000
  C   C394      1.0  0.91313  0.02700  0.73389  1.0000
  H   H694      1.0  0.78090  0.23120  0.68330  1.0000
  H   H695      1.0  0.82805  0.29226  0.67254  1.0000
  H   H696      1.0  0.49773  0.16163  0.67891  1.0000
  C   C395      1.0  0.72196  0.99669  0.72324  1.0000
  C   C396      1.0  0.68104  0.04384  0.73892  1.0000
  C   C397      1.0  0.68141  0.40165  0.87729  1.0000
  H   H697      1.0  0.68025  0.36993  0.87894  1.0000
  H   H698      1.0  0.78537  0.30261  0.67019  1.0000
  H   H699      1.0  0.56677  0.39682  0.76185  1.0000
  C   C398      1.0  0.52701  0.04655  0.73215  1.0000
  C   C399      1.0  0.83616  0.47097  0.73200  1.0000
  C   C400      1.0  0.80240  0.40070  0.83441  1.0000
  H   H700      1.0  0.71312  0.37237  0.75147  1.0000
  H   H701      1.0  0.78405  0.37994  0.82466  1.0000
  H   H702      1.0  0.79466  0.42974  0.82639  1.0000
  H   H703      1.0  0.65900  0.41384  0.88935  1.0000
  H   H704      1.0  0.68133  0.41031  0.85081  1.0000
  H   H705      1.0  0.49189  0.11696  0.92669  1.0000
  H   H706      1.0  0.77471  0.28260  0.72663  1.0000
  C   C401      1.0  0.66460  0.01656  0.75876  1.0000
  H   H707      1.0  0.49152  0.11410  0.72426  1.0000
  C   C402      1.0  0.51714  0.08848  0.96861  1.0000
  C   C403      1.0  0.74011  0.36878  0.75539  1.0000
  Fe  Fe47      1.0  0.77711  0.06664  0.66583  1.0000
  H   H708      1.0  0.92934  0.24118  0.67544  1.0000
  H   H709      1.0  0.64263  0.02452  0.77249  1.0000
  H   H710      1.0  0.91721  0.34140  0.71836  1.0000
  C   C404      1.0  0.86607  0.32905  0.73159  1.0000
  C   C405      1.0  0.75736  0.36332  0.72194  1.0000
  C   C406      1.0  0.70996  0.03418  0.72131  1.0000
  Fe  Fe48      1.0  0.96670  0.45922  0.66648  1.0000
  H   H711      1.0  0.55174  0.22239  0.98413  1.0000
  H   H712      1.0  0.89925  0.37434  0.74810  1.0000
  H   H713      1.0  0.80440  0.38849  0.73366  1.0000
  H   H714      1.0  0.82167  0.47435  0.85893  1.0000
  H   H715      1.0  0.85123  0.33130  0.75454  1.0000
  H   H716      1.0  0.79452  0.09063  0.79558  1.0000
  H   H717      1.0  0.75140  0.38893  0.70670  1.0000
  C   C407      1.0  0.83566  0.39141  0.81821  1.0000
  H   H718      1.0  0.79974  0.34097  0.74788  1.0000
  H   H719      1.0  0.96947  0.14033  0.70362  1.0000
  C   C408      1.0  0.54068  0.16676  0.96223  1.0000
  H   H720      1.0  0.84383  0.36203  0.82493  1.0000
  H   H721      1.0  0.67147  0.07275  0.73749  1.0000
  C   C409      1.0  0.82091  0.47899  0.76270  1.0000
  H   H722      1.0  0.77011  0.03233  0.77106  1.0000
  H   H723      1.0  0.86876  0.29839  0.72464  1.0000
  C   C410      1.0  0.93291  0.02356  0.76248  1.0000
  H   H724      1.0  0.81878  0.09825  0.75834  1.0000
  H   H725      1.0  0.81217  0.36695  0.97882  1.0000
  H   H726      1.0  0.88015  0.00723  0.81074  1.0000
  H   H727      1.0  0.82850  0.40839  0.88075  1.0000
  H   H728      1.0  0.77434  0.10090  0.75680  1.0000
  H   H729      1.0  0.53018  0.01854  0.74486  1.0000
  H   H730      1.0  0.76270  0.46939  0.86506  1.0000
  H   H731      1.0  0.74692  0.33771  0.70952  1.0000
  H   H732      1.0  0.82399  0.22645  0.69423  1.0000
  H   H733      1.0  0.79240  0.21534  0.72421  1.0000
  H   H734      1.0  0.85591  0.38258  0.70568  1.0000
  H   H735      1.0  0.74410  0.34342  0.77152  1.0000
  N   N23       1.0  0.77638  0.41744  0.89139  1.0000
  C   C411      1.0  0.80405  0.39766  0.87283  1.0000
  C   C412      1.0  0.77791  0.40642  0.92759  1.0000
  C   C413      1.0  0.74420  0.40214  0.87778  1.0000
  S   S93       1.0  0.51312  0.39833  0.71572  1.0000
  H   H736      1.0  0.82560  0.02953  0.80127  1.0000
  H   H737      1.0  0.56795  0.21534  0.94293  1.0000
  C   C414      1.0  0.71218  0.41663  0.89491  1.0000
  H   H738      1.0  0.51447  0.48162  0.70549  1.0000
  H   H739      1.0  0.54368  0.09293  0.96306  1.0000
  H   H740      1.0  0.91112  0.32667  0.76057  1.0000
  S   S94       1.0  0.73020  0.06997  0.69750  1.0000
  H   H741      1.0  0.80451  0.36656  0.87910  1.0000
  H   H742      1.0  0.83239  0.40821  0.93399  1.0000
  C   C415      1.0  0.53381  0.47398  0.72271  1.0000
  H   H743      1.0  0.77409  0.37495  0.93030  1.0000
  H   H744      1.0  0.74402  0.37022  0.87873  1.0000
  H   H745      1.0  0.74146  0.41013  0.85121  1.0000
  C   C416      1.0  0.79532  0.35960  0.72615  1.0000
  H   H746      1.0  0.82938  0.46878  0.90223  1.0000
  H   H747      1.0  0.53534  0.06949  0.74926  1.0000
  C   C417      1.0  0.85072  0.35146  0.70221  1.0000
  C   C418      1.0  0.79915  0.23489  0.70359  1.0000
  H   H748      1.0  0.53699  0.15553  0.93676  1.0000
  H   H749      1.0  0.71046  0.40682  0.92100  1.0000
  C   C419      1.0  0.80705  0.30443  0.68711  1.0000
  C   C420      1.0  0.97579  0.10936  0.70317  1.0000
  C   C421      1.0  0.80953  0.41736  0.94686  1.0000
  H   H750      1.0  0.54271  0.04657  0.70953  1.0000
  C   C422      1.0  0.90048  0.34392  0.74007  1.0000
  C   C423      1.0  0.79943  0.27634  0.71592  1.0000
  C   C424      1.0  0.54643  0.20987  0.95938  1.0000
  H   H751      1.0  0.79271  0.04027  0.73312  1.0000
  C   C425      1.0  0.82377  0.02117  0.77484  1.0000
  H   H752      1.0  0.89664  0.05119  0.73105  1.0000
  H   H753      1.0  0.50295  0.06562  0.88514  1.0000
  H   H754      1.0  0.81010  0.44883  0.95085  1.0000
  C   C426      1.0  0.79560  0.08582  0.76838  1.0000
  H   H755      1.0  0.93133  0.04521  0.78164  1.0000
  S   S95       1.0  0.83959  0.47459  0.66326  1.0000
  H   H756      1.0  0.83331  0.47126  0.78545  1.0000
  H   H757      1.0  0.78597  0.00065  0.82753  1.0000
  H   H758      1.0  0.83330  0.39317  0.79084  1.0000
  C   C427      1.0  0.95507  0.99271  0.76634  1.0000
  H   H759      1.0  0.60258  0.44740  0.78602  1.0000
  C   C428      1.0  0.79363  0.04308  0.76048  1.0000
  H   H760      1.0  0.95511  0.09323  0.71468  1.0000
  N   N24       1.0  0.81423  0.34565  0.69610  1.0000
  H   H761      1.0  0.86559  0.34243  0.68035  1.0000
  H   H762      1.0  0.52442  0.22428  0.94863  1.0000
  H   H763      1.0  0.54098  0.08308  0.90267  1.0000
  H   H764      1.0  0.84641  0.03311  0.76300  1.0000
  H   H765      1.0  0.95805  0.46934  0.75612  1.0000
  C   C429      1.0  0.49802  0.08765  0.93533  1.0000
  S   S96       1.0  0.89131  0.00244  0.67195  1.0000
  H   H766      1.0  0.89033  0.18818  0.66264  1.0000
  H   H767      1.0  0.56355  0.15362  0.97192  1.0000
  C   C430      1.0  0.80987  0.39855  0.98109  1.0000
  C   C431      1.0  0.91528  0.99952  0.70875  1.0000
  C   C432      1.0  0.81135  0.47976  0.88402  1.0000
  H   H768      1.0  0.57602  0.40605  0.67232  1.0000
  H   H769      1.0  0.60701  0.47957  0.66824  1.0000
  H   H770      1.0  0.80830  0.40161  0.67358  1.0000
  C   C433      1.0  0.49066  0.05211  0.72312  1.0000
  H   H771      1.0  0.50425  0.47458  0.79766  1.0000
  H   H772      1.0  0.91880  0.47031  0.77741  1.0000
  C   C434      1.0  0.80455  0.37087  0.66722  1.0000
  H   H773      1.0  0.97851  0.10025  0.67690  1.0000
  H   H774      1.0  0.77781  0.36770  0.66162  1.0000
  C   C435      1.0  0.90949  0.24595  0.65802  1.0000
  C   C436      1.0  0.93912  0.48837  0.76757  1.0000
  C   C437      1.0  0.70735  0.47137  0.99043  1.0000
  S   S97       1.0  0.68911  0.88110  0.30047  1.0000
  H   H775      1.0  0.91825  0.93026  0.05510  1.0000
  H   H776      1.0  0.83806  0.62685  0.19606  1.0000
  S   S98       1.0  0.78042  0.92250  0.29794  1.0000
  C   C438      1.0  0.65602  0.74440  0.00254  1.0000
  S   S99       1.0  0.65500  0.49332  0.31859  1.0000
  H   H777      1.0  0.74120  0.86964  0.24913  1.0000
  S   S100      1.0  0.57025  0.55593  0.30288  1.0000
  H   H778      1.0  0.81557  0.60571  0.25053  1.0000
  H   H779      1.0  0.94157  0.89794  0.12195  1.0000
  H   H780      1.0  0.70918  0.51339  0.15127  1.0000
  H   H781      1.0  0.64853  0.77372  0.99485  1.0000
  C   C439      1.0  0.94610  0.91590  0.09974  1.0000
  C   C440      1.0  0.74894  0.58301  0.25273  1.0000
  Fe  Fe49      1.0  0.65439  0.92922  0.31436  1.0000
  H   H782      1.0  0.94835  0.94617  0.10741  1.0000
  H   H783      1.0  0.96357  0.55546  0.25044  1.0000
  H   H784      1.0  0.72153  0.51817  0.22377  1.0000
  H   H785      1.0  0.77268  0.96354  0.18103  1.0000
  H   H786      1.0  0.76595  0.59335  0.27240  1.0000
  C   C441      1.0  0.92537  0.52830  0.22117  1.0000
  C   C442      1.0  0.96388  0.49435  0.25710  1.0000
  C   C443      1.0  0.82315  0.58366  0.23220  1.0000
  H   H787      1.0  0.87039  0.61127  0.22368  1.0000
  H   H788      1.0  0.83570  0.56001  0.24557  1.0000
  C   C444      1.0  0.72426  0.55996  0.18403  1.0000
  H   H789      1.0  0.63936  0.73497  0.02287  1.0000
  H   H790      1.0  0.91659  0.55503  0.21086  1.0000
  C   C445      1.0  0.79829  0.95767  0.27159  1.0000
  C   C446      1.0  0.82902  0.94992  0.25663  1.0000
  H   H791      1.0  0.71193  0.58456  0.19633  1.0000
  H   H792      1.0  0.72095  0.61245  0.31137  1.0000
  H   H793      1.0  0.71937  0.54696  0.28687  1.0000
  C   C447      1.0  0.57092  0.96421  0.22824  1.0000
  S   S101      1.0  0.61562  0.93589  0.27331  1.0000
  H   H794      1.0  0.57114  0.93546  0.21823  1.0000
  H   H795      1.0  0.77455  0.96062  0.11949  1.0000
  H   H796      1.0  0.74441  0.94719  0.22592  1.0000
  H   H797      1.0  0.67796  0.52847  0.18076  1.0000
  C   C448      1.0  0.84360  0.97615  0.23442  1.0000
  H   H798      1.0  0.62053  0.89576  0.18189  1.0000
  C   C449      1.0  0.72019  0.93615  0.21746  1.0000
  C   C450      1.0  0.72578  0.89583  0.20246  1.0000
  H   H799      1.0  0.97485  0.87200  0.07505  1.0000
  H   H800      1.0  0.51025  0.98443  0.27985  1.0000
  H   H801      1.0  0.65204  0.97995  0.18503  1.0000
  H   H802      1.0  0.68720  0.55783  0.14523  1.0000
  C   C451      1.0  0.75018  0.87256  0.22324  1.0000
  H   H803      1.0  0.50514  0.89914  0.29845  1.0000
  H   H804      1.0  0.74272  0.57107  0.16609  1.0000
  C   C452      1.0  0.69808  0.53851  0.16416  1.0000
  N   N25       1.0  0.70309  0.96534  0.19581  1.0000
  H   H805      1.0  0.64428  0.56952  0.03034  1.0000
  H   H806      1.0  0.75761  0.50756  0.26947  1.0000
  H   H807      1.0  0.53573  0.98534  0.19212  1.0000
  H   H808      1.0  0.69651  0.56506  0.25209  1.0000
  C   C453      1.0  0.95216  0.52864  0.24357  1.0000
  H   H809      1.0  0.70604  0.93139  0.24071  1.0000
  H   H810      1.0  0.73601  0.89697  0.17702  1.0000
  H   H811      1.0  0.70208  0.87993  0.20228  1.0000
  H   H812      1.0  0.64361  0.66648  0.00104  1.0000
  H   H813      1.0  0.81981  0.50025  0.22558  1.0000
  C   C454      1.0  0.66541  0.55868  0.01542  1.0000
  H   H814      1.0  0.67946  0.59628  0.30371  1.0000
  C   C455      1.0  0.71606  0.57203  0.27035  1.0000
  C   C456      1.0  0.96150  0.97822  0.99958  1.0000
  C   C457      1.0  0.90988  0.49380  0.21194  1.0000
  C   C458      1.0  0.59068  0.97282  0.25594  1.0000
  C   C459      1.0  0.91557  0.91238  0.07772  1.0000
  H   H815      1.0  0.77480  0.88657  0.22355  1.0000
  H   H816      1.0  0.54247  0.92582  0.29158  1.0000
  H   H817      1.0  0.75306  0.84343  0.21253  1.0000
  H   H818      1.0  0.85737  0.58043  0.19042  1.0000
  C   C460      1.0  0.66066  0.92801  0.15901  1.0000
  S   S102      1.0  0.87593  0.49557  0.18380  1.0000
  H   H819      1.0  0.65690  0.94002  0.21184  1.0000
  H   H820      1.0  0.97725  0.91852  0.05698  1.0000
  H   H821      1.0  0.69803  0.63068  0.27614  1.0000
  H   H822      1.0  0.68382  0.54567  0.03246  1.0000
  H   H823      1.0  0.74396  0.60860  0.23706  1.0000
  H   H824      1.0  0.67721  0.90284  0.15793  1.0000
  C   C461      1.0  0.70299  0.60502  0.29163  1.0000
  H   H825      1.0  0.68858  0.61382  0.01401  1.0000
  H   H826      1.0  0.78355  0.59373  0.19788  1.0000
  C   C462      1.0  0.84871  0.60167  0.20908  1.0000
  H   H827      1.0  0.66411  0.94461  0.13575  1.0000
  C   C463      1.0  0.72133  0.97170  0.16355  1.0000
  H   H828      1.0  0.98858  0.90271  0.14748  1.0000
  C   C464      1.0  0.79292  0.56891  0.21239  1.0000
  C   C465      1.0  0.66759  0.95401  0.18940  1.0000
  N   N26       1.0  0.76536  0.55168  0.23269  1.0000
  H   H829      1.0  0.65648  0.53603  0.99833  1.0000
  C   C466      1.0  0.97772  0.90297  0.08111  1.0000
  H   H830      1.0  0.62036  0.89574  0.13719  1.0000
  H   H831      1.0  0.50017  0.94597  0.25200  1.0000
  C   C467      1.0  0.74109  0.53306  0.20951  1.0000
  H   H832      1.0  0.68182  0.74559  0.01182  1.0000
  H   H833      1.0  0.72139  0.94563  0.14789  1.0000
  H   H834      1.0  0.75331  0.51017  0.19477  1.0000
  C   C468      1.0  0.55104  0.99041  0.99890  1.0000
  H   H835      1.0  0.80202  0.54813  0.19341  1.0000
  H   H836      1.0  0.79320  0.53530  0.27629  1.0000
  H   H837      1.0  0.89346  0.92260  0.09153  1.0000
  H   H838      1.0  0.68621  0.67678  0.99751  1.0000
  H   H839      1.0  0.68455  0.98213  0.26256  1.0000
  H   H840      1.0  0.84145  0.92312  0.26184  1.0000
  H   H841      1.0  0.91163  0.88210  0.07031  1.0000
  H   H842      1.0  0.93631  0.96821  0.99779  1.0000
  H   H843      1.0  0.60737  0.93800  0.15947  1.0000
  C   C469      1.0  0.77833  0.52174  0.25632  1.0000
  H   H844      1.0  0.86699  0.96942  0.22271  1.0000
  C   C470      1.0  0.62504  0.91356  0.15950  1.0000
  Fe  Fe50      1.0  0.72918  0.91815  0.32167  1.0000
  C   C471      1.0  0.49774  0.95628  0.27789  1.0000
  C   C472      1.0  0.51639  0.92807  0.29996  1.0000
  C   C473      1.0  0.68147  0.59133  0.99601  1.0000
  C   C474      1.0  0.77426  0.98857  0.13267  1.0000
  C   C475      1.0  0.75794  0.98460  0.16669  1.0000
  H   H845      1.0  0.57279  0.73797  0.32079  1.0000
  H   H846      1.0  0.48956  0.53286  0.24473  1.0000
  H   H847      1.0  0.60791  0.82628  0.48009  1.0000
  Fe  Fe51      1.0  0.68847  0.93950  0.38269  1.0000
  S   S103      1.0  0.72395  0.89145  0.37240  1.0000
  C   C476      1.0  0.66910  0.95669  0.59035  1.0000
  C   C477      1.0  0.58137  0.52406  0.63992  1.0000
  C   C478      1.0  0.65482  0.71893  0.36679  1.0000
  S   S104      1.0  0.64416  0.90509  0.36535  1.0000
  Fe  Fe52      1.0  0.60449  0.51866  0.33299  1.0000
  Fe  Fe53      1.0  0.56903  0.59383  0.34863  1.0000
  S   S105      1.0  0.60475  0.55770  0.37777  1.0000
  H   H848      1.0  0.53791  0.55433  0.60071  1.0000
  H   H849      1.0  0.63725  0.71252  0.43696  1.0000
  Fe  Fe54      1.0  0.56037  0.52464  0.39660  1.0000
  C   C479      1.0  0.87791  0.57952  0.63753  1.0000
  H   H850      1.0  0.98080  0.52311  0.38305  1.0000
  S   S106      1.0  0.52432  0.56352  0.37055  1.0000
  H   H851      1.0  0.58569  0.86968  0.40240  1.0000
  C   C480      1.0  0.63191  0.68876  0.36241  1.0000
  C   C481      1.0  0.93786  0.55899  0.38625  1.0000
  C   C482      1.0  0.64760  0.83356  0.44440  1.0000
  H   H852      1.0  0.86486  0.55181  0.63422  1.0000
  H   H853      1.0  0.83800  0.98486  0.40834  1.0000
  C   C483      1.0  0.61894  0.76233  0.33741  1.0000
  C   C484      1.0  0.56068  0.85212  0.34265  1.0000
  H   H854      1.0  0.55203  0.87553  0.47039  1.0000
  H   H855      1.0  0.61245  0.69209  0.46954  1.0000
  C   C485      1.0  0.64840  0.75608  0.35467  1.0000
  H   H856      1.0  0.81054  0.90749  0.41823  1.0000
  H   H857      1.0  0.94208  0.56710  0.41254  1.0000
  Fe  Fe55      1.0  0.52831  0.52307  0.32686  1.0000
  H   H858      1.0  0.95336  0.53575  0.49035  1.0000
  H   H859      1.0  0.73485  0.97398  0.58557  1.0000
  H   H860      1.0  0.66269  0.88862  0.46507  1.0000
  N   N27       1.0  0.58639  0.81736  0.43141  1.0000
  H   H861      1.0  0.55368  0.80522  0.47249  1.0000
  H   H862      1.0  0.61551  0.55277  0.51796  1.0000
  C   C486      1.0  0.68540  0.94317  0.64959  1.0000
  C   C487      1.0  0.61180  0.71060  0.44718  1.0000
  H   H863      1.0  0.94892  0.58138  0.37016  1.0000
  H   H864      1.0  0.77913  0.87977  0.58632  1.0000
  H   H865      1.0  0.80472  0.89347  0.37559  1.0000
  S   S107      1.0  0.68799  0.97659  0.43024  1.0000
  H   H866      1.0  0.61013  0.83257  0.38520  1.0000
  H   H867      1.0  0.69561  0.85448  0.45963  1.0000
  C   C488      1.0  0.55866  0.82739  0.37387  1.0000
  H   H868      1.0  0.54151  0.84298  0.32469  1.0000
  C   C489      1.0  0.81052  0.98662  0.40743  1.0000
  H   H869      1.0  0.59551  0.69691  0.42847  1.0000
  H   H870      1.0  0.78819  0.95041  0.49765  1.0000
  H   H871      1.0  0.68113  0.96268  0.56599  1.0000
  H   H872      1.0  0.53505  0.80015  0.43323  1.0000
  H   H873      1.0  0.49640  0.53707  0.46848  1.0000
  H   H874      1.0  0.95021  0.51413  0.35195  1.0000
  H   H875      1.0  0.61609  0.76269  0.47490  1.0000
  H   H876      1.0  0.77086  0.95008  0.38895  1.0000
  H   H877      1.0  0.74911  0.93726  0.45149  1.0000
  C   C490      1.0  0.53193  0.52371  0.60554  1.0000
  H   H878      1.0  0.84182  0.91828  0.38730  1.0000
  C   C491      1.0  0.60186  0.69542  0.34622  1.0000
  H   H879      1.0  0.78161  0.92809  0.57110  1.0000
  C   C492      1.0  0.63659  0.90890  0.55594  1.0000
  C   C493      1.0  0.81486  0.91608  0.39206  1.0000
  C   C494      1.0  0.74466  0.96115  0.46803  1.0000
  H   H880      1.0  0.60284  0.55574  0.57798  1.0000
  C   C495      1.0  0.76679  0.96865  0.49437  1.0000
  H   H881      1.0  0.90439  0.57572  0.63108  1.0000
  C   C496      1.0  0.95389  0.52028  0.37860  1.0000
  H   H882      1.0  0.62567  0.87975  0.55575  1.0000
  C   C497      1.0  0.79770  0.95413  0.38465  1.0000
  S   S108      1.0  0.69542  0.96769  0.33251  1.0000
  H   H883      1.0  0.63601  0.91172  0.60905  1.0000
  H   H884      1.0  0.65633  0.80346  0.44611  1.0000
  H   H885      1.0  0.65179  0.84378  0.41878  1.0000
  H   H886      1.0  0.80131  0.96054  0.35812  1.0000
  C   C498      1.0  0.59890  0.75040  0.45642  1.0000
  H   H887      1.0  0.61986  0.77471  0.41174  1.0000
  H   H888      1.0  0.50192  0.84079  0.49016  1.0000
  H   H889      1.0  0.68509  0.91189  0.64501  1.0000
  H   H890      1.0  0.91089  0.55797  0.38134  1.0000
  C   C499      1.0  0.61060  0.83692  0.45423  1.0000
  H   H891      1.0  0.51276  0.53089  0.65697  1.0000
  H   H892      1.0  0.86701  0.60069  0.62015  1.0000
  C   C500      1.0  0.65433  0.91570  0.58884  1.0000
  H   H893      1.0  0.67746  0.71354  0.38020  1.0000
  H   H894      1.0  0.56070  0.79699  0.36623  1.0000
  H   H895      1.0  0.67332  0.89313  0.59159  1.0000
  C   C501      1.0  0.53733  0.85872  0.45234  1.0000
  H   H896      1.0  0.78797  0.91834  0.61465  1.0000
  H   H897      1.0  0.52091  0.51258  0.58216  1.0000
  C   C502      1.0  0.59602  0.77620  0.42528  1.0000
  H   H898      1.0  0.66671  0.84842  0.49332  1.0000
  H   H899      1.0  0.61641  0.93017  0.55253  1.0000
  C   C503      1.0  0.66933  0.85779  0.46715  1.0000
  H   H900      1.0  0.60502  0.86811  0.45565  1.0000
  C   C504      1.0  0.97500  0.51751  0.48932  1.0000
  H   H901      1.0  0.65424  0.91112  0.53487  1.0000
  H   H902      1.0  0.63712  0.66062  0.37234  1.0000
  H   H903      1.0  0.98809  0.60539  0.60064  1.0000
  H   H904      1.0  0.63242  0.95927  0.64957  1.0000
  H   H905      1.0  0.72382  0.90709  0.57521  1.0000
  H   H906      1.0  0.57792  0.76206  0.40859  1.0000
  C   C505      1.0  0.50214  0.85589  0.46592  1.0000
  H   H907      1.0  0.72958  0.89480  0.61850  1.0000
  H   H908      1.0  0.53620  0.87506  0.42883  1.0000
  C   C506      1.0  0.58650  0.83811  0.39858  1.0000
  H   H909      1.0  0.80193  0.97823  0.43261  1.0000
  H   H910      1.0  0.56653  0.54716  0.55312  1.0000
  Fe  Fe56      1.0  0.68048  0.85844  0.35179  1.0000
  C   C507      1.0  0.72805  0.95696  0.60783  1.0000
  H   H911      1.0  0.53376  0.83189  0.38466  1.0000
  S   S109      1.0  0.67622  0.79419  0.36485  1.0000
  H   H912      1.0  0.57435  0.74652  0.46822  1.0000
  H   H913      1.0  0.49180  0.88510  0.46962  1.0000
  C   C508      1.0  0.58983  0.53433  0.56251  1.0000
  C   C509      1.0  0.55269  0.81831  0.44738  1.0000
  C   C510      1.0  0.77357  0.91015  0.59235  1.0000
  H   H914      1.0  0.64744  0.97647  0.59132  1.0000
  C   C511      1.0  0.71683  0.98438  0.46327  1.0000
  N   N28       1.0  0.69288  0.96521  0.61825  1.0000
  H   H915      1.0  0.55655  0.88274  0.34892  1.0000
  H   H916      1.0  0.97308  0.57081  0.63060  1.0000
  H   H917      1.0  0.58523  0.84928  0.33051  1.0000
  C   C512      1.0  0.73651  0.91505  0.59856  1.0000
  H   H918      1.0  0.95417  0.57426  0.59026  1.0000
  C   C513      1.0  0.50387  0.52337  0.63188  1.0000
  S   S110      1.0  0.55783  0.49691  0.44892  1.0000
  C   C514      1.0  0.61141  0.52595  0.53217  1.0000
  H   H919      1.0  0.74524  0.96605  0.62782  1.0000
  C   C515      1.0  0.50021  0.51332  0.48525  1.0000
  S   S111      1.0  0.57026  0.65975  0.34286  1.0000
  H   H920      1.0  0.58750  0.55314  0.63060  1.0000
  S   S112      1.0  0.93142  0.49332  0.63512  1.0000
  H   H921      1.0  0.63581  0.51430  0.53975  1.0000
  C   C516      1.0  0.59575  0.73241  0.33360  1.0000
  H   H922      1.0  0.61381  0.79036  0.32740  1.0000
  H   H923      1.0  0.59905  0.50509  0.51549  1.0000
  H   H924      1.0  0.94902  0.49652  0.42653  1.0000
  C   C517      1.0  0.58283  0.49714  0.58235  1.0000
  C   C518      1.0  0.97794  0.57611  0.60386  1.0000
  C   C519      1.0  0.61322  0.50578  0.65397  1.0000
  H   H925      1.0  0.63109  0.49870  0.63403  1.0000
  N   N29       1.0  0.56295  0.50151  0.61391  1.0000
  H   H926      1.0  0.49264  0.49455  0.63308  1.0000
  H   H927      1.0  0.51623  0.93802  0.32612  1.0000
  Fe  Fe57      1.0  0.60982  0.93888  0.81608  1.0000
  S   S113      1.0  0.57083  0.90259  0.79163  1.0000
  H   H928      1.0  0.64899  0.63461  0.90561  1.0000
  Fe  Fe58      1.0  0.57034  0.94196  0.88282  1.0000
  S   S114      1.0  0.53055  0.90429  0.86206  1.0000
  S   S115      1.0  0.57094  0.96626  0.93641  1.0000
  Fe  Fe59      1.0  0.57136  0.86829  0.83909  1.0000
  S   S116      1.0  0.56819  0.80225  0.83663  1.0000
  Fe  Fe60      1.0  0.53361  0.94149  0.81635  1.0000
  H   H929      1.0  0.83495  0.56186  0.73309  1.0000
  S   S117      1.0  0.61118  0.90334  0.86298  1.0000
  Fe  Fe61      1.0  0.68162  0.60669  0.84046  1.0000
  S   S118      1.0  0.64140  0.56886  0.86024  1.0000
  S   S119      1.0  0.68147  0.67234  0.84659  1.0000
  Fe  Fe62      1.0  0.72324  0.53599  0.81734  1.0000
  C   C520      1.0  0.89570  0.95407  0.83226  1.0000
  H   H930      1.0  0.94981  0.66886  0.71726  1.0000
  Fe  Fe63      1.0  0.64737  0.53622  0.81207  1.0000
  C   C521      1.0  0.74891  0.67575  0.91141  1.0000
  Fe  Fe64      1.0  0.68236  0.53141  0.88101  1.0000
  S   S120      1.0  0.65886  0.94411  0.78741  1.0000
  S   S121      1.0  0.68706  0.57531  0.79184  1.0000
  S   S122      1.0  0.72217  0.57130  0.86429  1.0000
  H   H931      1.0  0.49776  0.96568  0.93768  1.0000
  H   H932      1.0  0.85065  0.92953  0.79005  1.0000
  H   H933      1.0  0.74570  0.96143  0.85835  1.0000
  H   H934      1.0  0.88756  0.62146  0.67497  1.0000
  H   H935      1.0  0.74374  0.98870  0.70935  1.0000
  C   C522      1.0  0.64330  0.65427  0.92663  1.0000
  C   C523      1.0  0.70580  0.96958  0.74343  1.0000
  N   N30       1.0  0.88716  0.57569  0.73431  1.0000
  H   H936      1.0  0.53809  0.82082  0.77073  1.0000
  C   C524      1.0  0.67713  0.97934  0.76145  1.0000
  H   H937      1.0  0.90599  0.61938  0.76728  1.0000
  C   C525      1.0  0.60038  0.76679  0.83876  1.0000
  C   C526      1.0  0.63274  0.77562  0.84829  1.0000
  C   C527      1.0  0.65705  0.74646  0.85047  1.0000
  C   C528      1.0  0.64964  0.70800  0.84288  1.0000
  C   C529      1.0  0.61740  0.69921  0.83300  1.0000
  C   C530      1.0  0.59297  0.72829  0.83124  1.0000
  H   H938      1.0  0.63902  0.80494  0.85420  1.0000
  H   H939      1.0  0.68185  0.75385  0.85800  1.0000
  H   H940      1.0  0.61121  0.66998  0.82675  1.0000
  H   H941      1.0  0.56815  0.72090  0.82382  1.0000
  C   C531      1.0  0.86876  0.97922  0.81701  1.0000
  H   H942      1.0  0.84470  0.55998  0.79312  1.0000
  C   C532      1.0  0.78503  0.96955  0.82223  1.0000
  C   C533      1.0  0.82426  0.92208  0.68628  1.0000
  H   H943      1.0  0.51211  0.51656  0.84699  1.0000
  C   C534      1.0  0.65804  0.60719  0.96876  1.0000
  H   H944      1.0  0.87808  0.52328  0.76156  1.0000
  C   C535      1.0  0.90723  0.61132  0.74066  1.0000
  H   H945      1.0  0.94722  0.53237  0.73155  1.0000
  C   C536      1.0  0.63043  0.53301  0.67807  1.0000
  H   H946      1.0  0.71555  0.94076  0.74519  1.0000
  H   H947      1.0  0.79253  0.52065  0.98482  1.0000
  C   C537      1.0  0.85442  0.96062  0.78518  1.0000
  C   C538      1.0  0.95711  0.96513  0.74128  1.0000
  H   H948      1.0  0.51314  0.80637  0.73573  1.0000
  H   H949      1.0  0.79889  0.93027  0.67855  1.0000
  H   H950      1.0  0.71874  0.63551  0.96187  1.0000
  H   H951      1.0  0.65636  0.98104  0.68193  1.0000
  C   C539      1.0  0.58448  0.66775  0.90749  1.0000
  C   C540      1.0  0.65359  0.71724  0.97292  1.0000
  H   H952      1.0  0.81030  0.90830  0.73593  1.0000
  H   H953      1.0  0.73131  0.97160  0.81710  1.0000
  H   H954      1.0  0.91525  0.94748  0.81372  1.0000
  H   H955      1.0  0.76699  0.66213  0.92843  1.0000
  H   H956      1.0  0.75916  0.70347  0.90273  1.0000
  C   C541      1.0  0.80819  0.60359  0.78582  1.0000
  H   H957      1.0  0.79086  0.53577  0.87141  1.0000
  H   H958      1.0  0.84350  0.61174  0.73122  1.0000
  H   H959      1.0  0.80211  0.53016  0.91456  1.0000
  C   C542      1.0  0.82327  0.96988  0.73391  1.0000
  H   H960      1.0  0.55798  0.66461  0.91409  1.0000
  H   H961      1.0  0.59927  0.66271  0.95856  1.0000
  H   H962      1.0  0.79963  0.97921  0.72256  1.0000
  H   H963      1.0  0.62779  0.71865  0.96379  1.0000
  H   H964      1.0  0.58885  0.65313  0.88342  1.0000
  H   H965      1.0  0.72079  0.70252  0.95007  1.0000
  H   H966      1.0  0.63495  0.89660  0.67840  1.0000
  C   C543      1.0  0.82842  0.92733  0.72366  1.0000
  H   H967      1.0  0.65757  0.58564  0.94830  1.0000
  H   H968      1.0  0.70430  0.57974  0.98436  1.0000
  C   C544      1.0  0.92605  0.51618  0.74146  1.0000
  C   C545      1.0  0.98462  0.96768  0.97474  1.0000
  H   H969      1.0  0.59951  0.61874  0.93542  1.0000
  H   H970      1.0  0.86036  0.60804  0.79354  1.0000
  H   H971      1.0  0.80269  0.95420  0.83850  1.0000
  C   C546      1.0  0.88804  0.56419  0.69819  1.0000
  H   H972      1.0  0.77068  0.96818  0.77060  1.0000
  H   H973      1.0  0.66962  0.72863  0.95305  1.0000
  H   H974      1.0  0.80611  0.63352  0.77675  1.0000
  H   H975      1.0  0.87373  0.53731  0.69476  1.0000
  H   H976      1.0  0.79406  0.92861  0.78402  1.0000
  C   C547      1.0  0.74448  0.51418  0.96212  1.0000
  S   S123      1.0  0.60335  0.53090  0.77643  1.0000
  H   H977      1.0  0.53608  0.85054  0.73435  1.0000
  C   C548      1.0  0.79275  0.96035  0.78549  1.0000
  H   H978      1.0  0.82849  0.89161  0.67958  1.0000
  H   H979      1.0  0.59001  0.69877  0.90487  1.0000
  C   C549      1.0  0.52159  0.83120  0.75066  1.0000
  H   H980      1.0  0.84282  0.98685  0.72124  1.0000
  C   C550      1.0  0.85156  0.58452  0.74312  1.0000
  H   H981      1.0  0.74950  0.53413  0.94228  1.0000
  H   H982      1.0  0.91574  0.49880  0.72087  1.0000
  H   H983      1.0  0.90738  0.96934  0.85335  1.0000
  H   H984      1.0  0.95784  0.65989  0.76077  1.0000
  C   C551      1.0  0.96079  0.64839  0.73523  1.0000
  H   H985      1.0  0.87512  0.96212  0.76687  1.0000
  C   C552      1.0  0.76876  0.50670  0.98651  1.0000
  H   H986      1.0  0.61375  0.54062  0.69901  1.0000
  C   C553      1.0  0.60592  0.64965  0.93437  1.0000
  H   H987      1.0  0.84245  0.93979  0.67253  1.0000
  N   N31       1.0  0.82338  0.97817  0.77072  1.0000
  C   C554      1.0  0.71597  0.68275  0.92906  1.0000
  C   C555      1.0  0.70129  0.64482  0.94225  1.0000
  H   H988      1.0  0.61987  0.93334  0.70609  1.0000
  C   C556      1.0  0.93734  0.96860  0.71265  1.0000
  H   H989      1.0  0.88507  0.92682  0.84157  1.0000
  H   H990      1.0  0.93920  0.94718  0.69333  1.0000
  N   N32       1.0  0.66630  0.64646  0.95528  1.0000
  H   H991      1.0  0.70314  0.62280  0.92226  1.0000
  H   H992      1.0  0.91344  0.55701  0.68987  1.0000
  C   C557      1.0  0.50645  0.97541  0.96158  1.0000
  H   H993      1.0  0.78998  0.58553  0.77249  1.0000
  C   C558      1.0  0.94451  0.60909  0.73219  1.0000
  H   H994      1.0  0.89639  0.63629  0.72743  1.0000
  H   H995      1.0  0.74530  0.65706  0.88940  1.0000
  H   H996      1.0  0.97402  0.94127  0.74386  1.0000
  H   H997      1.0  0.80186  0.60315  0.81264  1.0000
  H   H998      1.0  0.90737  0.55388  0.78040  1.0000
  S   S124      1.0  0.68179  0.50493  0.93355  1.0000
  C   C559      1.0  0.84329  0.58830  0.78068  1.0000
  H   H999      1.0  0.85367  0.91740  0.73017  1.0000
  C   C560      1.0  0.55429  0.50256  0.73634  1.0000
  H   H1000     1.0  0.69939  0.69717  0.91125  1.0000
  H   H1001     1.0  0.53829  0.52965  0.81276  1.0000
  H   H1002     1.0  0.97713  0.94958  0.95435  1.0000
  C   C561      1.0  0.54050  0.97763  0.96745  1.0000
  C   C562      1.0  0.80919  0.52312  0.88867  1.0000
  H   H1003     1.0  0.83362  0.53621  0.88349  1.0000
  H   H1004     1.0  0.66172  0.91659  0.70980  1.0000
  H   H1005     1.0  0.55056  0.53218  0.72941  1.0000
  C   C563      1.0  0.75035  0.95592  0.83161  1.0000
  S   S125      1.0  0.77337  0.50939  0.80362  1.0000
  H   H1006     1.0  0.94899  0.59878  0.70659  1.0000
  H   H1007     1.0  0.64730  0.68323  0.91610  1.0000
  H   H1008     1.0  0.95093  0.50427  0.78822  1.0000
  C   C564      1.0  0.89887  0.54291  0.75592  1.0000
  H   H1009     1.0  0.74765  0.92471  0.82697  1.0000
  H   H1010     1.0  0.95724  0.58990  0.75001  1.0000
  C   C565      1.0  0.66290  0.67555  0.98292  1.0000
  S   S126      1.0  0.57265  0.98048  0.83778  1.0000
  C   C566      1.0  0.64174  0.92320  0.69184  1.0000
  H   H1011     1.0  0.50183  0.87808  0.77879  1.0000
  H   H1012     1.0  0.77760  0.50851  0.68126  1.0000
  H   H1013     1.0  0.98763  0.64577  0.72982  1.0000
  C   C567      1.0  0.51227  0.52843  0.82145  1.0000
  H   H1014     1.0  0.63275  0.60718  0.97963  1.0000
  C   C568      1.0  0.77446  0.50799  0.73470  1.0000
  C   C569      1.0  0.57923  0.49329  0.75932  1.0000
  H   H1015     1.0  0.56538  0.52916  0.66189  1.0000
  H   H1016     1.0  0.84974  0.98444  0.83619  1.0000
  S   S127      1.0  0.68407  0.49490  0.83462  1.0000
  H   H1017     1.0  0.70562  0.94729  0.66796  1.0000
  H   H1018     1.0  0.49253  0.93399  0.73303  1.0000
  H   H1019     1.0  0.75082  0.52253  0.73551  1.0000
  H   H1020     1.0  0.50228  0.55809  0.82184  1.0000
  C   C570      1.0  0.65271  0.95423  0.66749  1.0000
  C   C571      1.0  0.49211  0.85298  0.76520  1.0000
  H   H1021     1.0  0.84746  0.59896  0.67743  1.0000
  C   C572      1.0  0.49215  0.50312  0.79811  1.0000
  C   C573      1.0  0.79016  0.49784  0.76423  1.0000
  C   C574      1.0  0.71363  0.49625  0.96363  1.0000
  C   C575      1.0  0.78973  0.50003  0.70399  1.0000
  S   S128      1.0  0.98017  0.99108  0.80240  1.0000
  H   H1022     1.0  0.63827  0.55960  0.66521  1.0000
  H   H1023     1.0  0.65270  0.51886  0.68853  1.0000
  C   C576      1.0  0.87420  0.59386  0.67315  1.0000
  H   H1024     1.0  0.49368  0.51593  0.77302  1.0000
