data_image0
_chemical_formula_structural       H2SHFeS2FeSHFeSFeS3H2SC7H5CH2NH2NC6H4C2H2C3H2CHC2H2C2H3CH2CHCH7CFeH2C3H8CH2CHCH7CHC7H2CSH4C2HSH3FeCHC2HNCHC2HC3H3NH5CH7FeC2H2CH2C2H8CHSHSHCHCH5C2H2C2H2CHC2HFeSH2CHCH7CH9SCFeS2Fe2CHCNC2HC6SH3CH4CH2CH4CHC2H2NH2C4HS3H4C2HCSCH2CSC2HSH4CH3CH2CH3C2HCH2CH9CHCH4CSFeS2H5SFe2HSC7H6CHSH4CH2CHCH2CFeH2CNH2CHC2SH3CNSCHCH7C2HC2H2FeHCH3CHC3HCH3C2FeSH2C4HCHS3FeHFeCSFeH4SHCHC2HC4HCH3FeH5SCHSH5CH2CH2FeHCH2CHSCH3NH3C2H7CHNC5HC4H2SH4CHCH3CHFeSFeS2H3CH2CHC5H2C3H4FeCH4C2H2C2HNC3H3CH3SCH2CH2CH3CHCH2C2H2C2H2CH6CH3C3H3SCH4FeS2FeS2FeS3H3SC7H4C2H2C6HSH5CH3C6H4CH3CH2C2H2FeCHCH4CHCHCH2CH4SNH3C2H4SH2NCH2FeC2HC2H4C2H2CH4C2H2CHNH2FeH2CHCH2CH2C4H4CNHC2HCHSH6CH11CSH2C4HSCH9CH3CH5CSH4C2HCH5CH2CHFeC2H2SFeS2FeS2FeSFeS3HCSHCHC6H4C4H3C5H6C4H4CH3C2HCHC2HC2H15CH2C2H2C2H3CHC3HC4H5CFeHCH4CH3CH7CHCHCNH5CH5NH3CHC2HCHCH4C2HNCHCSCH8CH4CSFeSHFeS2FeSFeS3FeS2FeHFeCH3SHSHC7H3CH5C3HCH8SHC7H2C2HC2HCHCHCH6CH2CH2CH2CH9CHCH2CH3NC4H2C3H2CH4CHCH2CH6C2SCHSH6NFeC2HCH3C4H2CHCH3CHC2H2C2H4NHC2H2CSCSH2FeHCHCHCH10FeH2CH3CH3CHCH2C2H2FeHCHNH2SH10CH3CHC2HCH2CHSHCH4C2H5C2H10CHCHSHCFeS2FeHFeSH2Fe2CSCHS2CSC2SH2FeSFeSHC4HSH2CH4C2HC3H2CHCSHC6H5SC2HC2H2CHC3HC3H4C2HNH3FeC2H3CHCH2SHSH3SCH7CH2CHSCH3C4HNCH2NHFeSC2H2SHCH2SH5FeH3CHCFeHC2HCH2CH7NSH5CHS2H2C2H6CH7CH3CH4FeS2FeS2FeSFeS3CH3SC6H4C2H2C2HSH2C2HCH2C2HCHCH5CH2CHCH2NCH2NH5CH2C2H2CH3CHC3HC3H4CH3CH2CH3CH4CHCHCHC2H3CN2CHCH3CH4C3H2C3H2CHC2H4CHCH3CH4CH2CH4CHCH5C2H2FeCH5CHCSHC2HNH3NHSH4CHCH7CHCH2C2HC
_chemical_formula_sum              "H1024 S128 Fe64 C576 N32"
_cell_length_a       31.0381
_cell_length_b       30.9588
_cell_length_c       66.5987
_cell_angle_alpha    91.8858
_cell_angle_beta     87.5654
_cell_angle_gamma    86.151

_space_group_name_H-M_alt    "P 1"
_space_group_IT_number       1

loop_
  _space_group_symop_operation_xyz
  'x, y, z'

loop_
  _atom_site_type_symbol
  _atom_site_label
  _atom_site_symmetry_multiplicity
  _atom_site_fract_x
  _atom_site_fract_y
  _atom_site_fract_z
  _atom_site_occupancy
  H   H1        1.0  0.17795  0.44463  0.08294  1.0000
  H   H2        1.0  0.48405  0.04363  0.10840  1.0000
  S   S1        1.0  0.41958  0.39821  0.06215  1.0000
  H   H3        1.0  0.43801  0.07246  0.12057  1.0000
  Fe  Fe1       1.0  0.15135  0.13258  0.10904  1.0000
  S   S2        1.0  0.20212  0.17092  0.12251  1.0000
  S   S3        1.0  0.17121  0.07621  0.08717  1.0000
  Fe  Fe2       1.0  0.07558  0.19528  0.12641  1.0000
  S   S4        1.0  0.12237  0.23803  0.14124  1.0000
  H   H4        1.0  0.26900  0.01806  0.97272  1.0000
  Fe  Fe3       1.0  0.16370  0.22955  0.11249  1.0000
  S   S5        1.0  0.19199  0.27903  0.09189  1.0000
  Fe  Fe4       1.0  0.15712  0.17592  0.15005  1.0000
  S   S6        1.0  0.18604  0.15760  0.17955  1.0000
  S   S7        1.0  0.11493  0.19086  0.09717  1.0000
  S   S8        1.0  0.10812  0.13333  0.13723  1.0000
  H   H5        1.0  0.07728  0.07530  0.19393  1.0000
  H   H6        1.0  0.35838  0.03613  0.06479  1.0000
  S   S9        1.0  0.18625  0.27663  0.25896  1.0000
  C   C1        1.0  0.27727  0.99338  0.07503  1.0000
  C   C2        1.0  0.18696  0.19240  0.20099  1.0000
  C   C3        1.0  0.20803  0.17699  0.21783  1.0000
  C   C4        1.0  0.20813  0.20267  0.23560  1.0000
  C   C5        1.0  0.18742  0.24418  0.23663  1.0000
  C   C6        1.0  0.16698  0.26004  0.21967  1.0000
  C   C7        1.0  0.16648  0.23410  0.20190  1.0000
  H   H7        1.0  0.22423  0.14488  0.21714  1.0000
  H   H8        1.0  0.22452  0.19041  0.24845  1.0000
  H   H9        1.0  0.15104  0.29225  0.22035  1.0000
  H   H10       1.0  0.15017  0.24619  0.18899  1.0000
  H   H11       1.0  0.11594  0.13369  0.21028  1.0000
  C   C8        1.0  0.42478  0.29470  0.09191  1.0000
  H   H12       1.0  0.03948  0.24543  0.25905  1.0000
  H   H13       1.0  0.46905  0.14289  0.05190  1.0000
  N   N1        1.0  0.10014  0.12062  0.25293  1.0000
  H   H14       1.0  0.07512  0.19081  0.28029  1.0000
  H   H15       1.0  0.44564  0.02056  0.07994  1.0000
  N   N2        1.0  0.42341  0.08848  0.08076  1.0000
  C   C9        1.0  0.29542  0.37621  0.10150  1.0000
  C   C10       1.0  0.27762  0.35531  0.11801  1.0000
  C   C11       1.0  0.24769  0.32361  0.11525  1.0000
  C   C12       1.0  0.23389  0.31396  0.09601  1.0000
  C   C13       1.0  0.25171  0.33489  0.07951  1.0000
  C   C14       1.0  0.28284  0.36539  0.08218  1.0000
  H   H16       1.0  0.28693  0.36388  0.13301  1.0000
  H   H17       1.0  0.23454  0.30745  0.12804  1.0000
  H   H18       1.0  0.24113  0.32770  0.06456  1.0000
  H   H19       1.0  0.29611  0.38144  0.06936  1.0000
  C   C15       1.0  0.21231  0.06676  0.26683  1.0000
  C   C16       1.0  0.42674  0.04479  0.09019  1.0000
  H   H20       1.0  0.08228  0.12037  0.28474  1.0000
  H   H21       1.0  0.36629  0.08602  0.11808  1.0000
  C   C17       1.0  0.07463  0.24550  0.26152  1.0000
  C   C18       1.0  0.22100  0.04581  0.08957  1.0000
  C   C19       1.0  0.24235  0.04609  0.10765  1.0000
  H   H22       1.0  0.15334  0.36836  0.10277  1.0000
  H   H23       1.0  0.44389  0.22389  0.13246  1.0000
  C   C20       1.0  0.00972  0.39178  0.12964  1.0000
  H   H24       1.0  0.22888  0.06603  0.12034  1.0000
  C   C21       1.0  0.23418  0.01181  0.97303  1.0000
  C   C22       1.0  0.43889  0.00312  0.12213  1.0000
  H   H25       1.0  0.13544  0.35957  0.26402  1.0000
  H   H26       1.0  0.08826  0.26942  0.07644  1.0000
  C   C23       1.0  0.99874  0.10056  0.28766  1.0000
  C   C24       1.0  0.12132  0.10021  0.21552  1.0000
  H   H27       1.0  0.10669  0.34079  0.28593  1.0000
  H   H28       1.0  0.34663  0.03114  0.98199  1.0000
  H   H29       1.0  0.38113  0.23622  0.11812  1.0000
  C   C25       1.0  0.05509  0.28350  0.08061  1.0000
  H   H30       1.0  0.21509  0.04208  0.96954  1.0000
  H   H31       1.0  0.42578  0.30061  0.05015  1.0000
  C   C26       1.0  0.02287  0.11675  0.26917  1.0000
  H   H32       1.0  0.09458  0.05829  0.23778  1.0000
  C   C27       1.0  0.23874  0.01948  0.07326  1.0000
  H   H33       1.0  0.18745  0.38465  0.28908  1.0000
  H   H34       1.0  0.17413  0.37178  0.13623  1.0000
  H   H35       1.0  0.08044  0.35111  0.14744  1.0000
  H   H36       1.0  0.11750  0.03525  0.20221  1.0000
  H   H37       1.0  0.01601  0.39131  0.14592  1.0000
  H   H38       1.0  0.02316  0.34384  0.09113  1.0000
  H   H39       1.0  0.05818  0.10003  0.22990  1.0000
  C   C28       1.0  0.10990  0.36847  0.27589  1.0000
  Fe  Fe5       1.0  0.37270  0.44337  0.08039  1.0000
  H   H40       1.0  0.07950  0.26857  0.27421  1.0000
  H   H41       1.0  0.47493  0.43543  0.00006  1.0000
  C   C29       1.0  0.08018  0.33073  0.10925  1.0000
  C   C30       1.0  0.47384  0.14705  0.06825  1.0000
  C   C31       1.0  0.35179  0.06113  0.03534  1.0000
  H   H42       1.0  0.37097  0.20791  0.25305  1.0000
  H   H43       1.0  0.40721  0.11441  0.05197  1.0000
  H   H44       1.0  0.47593  0.32700  0.07544  1.0000
  H   H45       1.0  0.42495  0.25704  0.23939  1.0000
  H   H46       1.0  0.34393  0.27638  0.10842  1.0000
  H   H47       1.0  0.44240  0.24534  0.05585  1.0000
  H   H48       1.0  0.20849  0.42234  0.10317  1.0000
  H   H49       1.0  0.14581  0.43946  0.12714  1.0000
  C   C32       1.0  0.45996  0.43621  0.98569  1.0000
  H   H50       1.0  0.15471  0.31916  0.13243  1.0000
  H   H51       1.0  0.33658  0.08289  0.09597  1.0000
  C   C33       1.0  0.36047  0.00026  0.97583  1.0000
  H   H52       1.0  0.19040  0.32517  0.16459  1.0000
  C   C34       1.0  0.15730  0.34064  0.16338  1.0000
  H   H53       1.0  0.34789  0.24617  0.15194  1.0000
  H   H54       1.0  0.11228  0.17824  0.23662  1.0000
  H   H55       1.0  0.07364  0.34803  0.07738  1.0000
  H   H56       1.0  0.35090  0.09260  0.02777  1.0000
  H   H57       1.0  0.45699  0.44034  0.14820  1.0000
  H   H58       1.0  0.37231  0.23471  0.27753  1.0000
  H   H59       1.0  0.44665  0.18631  0.25805  1.0000
  C   C35       1.0  0.10319  0.37081  0.13888  1.0000
  H   H60       1.0  0.29723  0.12862  0.12226  1.0000
  C   C36       1.0  0.14000  0.43708  0.11086  1.0000
  C   C37       1.0  0.09294  0.20029  0.26655  1.0000
  C   C38       1.0  0.46865  0.10384  0.07902  1.0000
  C   C39       1.0  0.42224  0.25257  0.25584  1.0000
  C   C40       1.0  0.18199  0.44626  0.09944  1.0000
  C   C41       1.0  0.37679  0.23885  0.26109  1.0000
  C   C42       1.0  0.07225  0.10628  0.27026  1.0000
  H   H61       1.0  0.16407  0.04828  0.24681  1.0000
  H   H62       1.0  0.09242  0.41878  0.29798  1.0000
  C   C43       1.0  0.47100  0.28258  0.12144  1.0000
  S   S10       1.0  0.23068  0.17758  0.29254  1.0000
  H   H63       1.0  0.15443  0.37119  0.17271  1.0000
  H   H64       1.0  0.03952  0.26298  0.09180  1.0000
  H   H65       1.0  0.12537  0.43486  0.27708  1.0000
  H   H66       1.0  0.05704  0.17222  0.24238  1.0000
  C   C44       1.0  0.36203  0.06738  0.05748  1.0000
  C   C45       1.0  0.46864  0.23283  0.12111  1.0000
  H   H67       1.0  0.09148  0.25691  0.24785  1.0000
  S   S11       1.0  0.33186  0.41673  0.10576  1.0000
  H   H68       1.0  0.22375  0.44655  0.28642  1.0000
  H   H69       1.0  0.31961  0.04769  0.03428  1.0000
  H   H70       1.0  0.31340  0.29164  0.14453  1.0000
  Fe  Fe6       1.0  0.20173  0.24458  0.28814  1.0000
  C   C46       1.0  0.14937  0.34990  0.14138  1.0000
  H   H71       1.0  0.33740  0.09206  0.06402  1.0000
  C   C47       1.0  0.44913  0.37686  0.13453  1.0000
  C   C48       1.0  0.40798  0.08311  0.05965  1.0000
  H   H72       1.0  0.46088  0.21982  0.10611  1.0000
  N   N3        1.0  0.43283  0.30812  0.11340  1.0000
  C   C49       1.0  0.46421  0.29427  0.07674  1.0000
  H   H73       1.0  0.39457  0.03170  0.09213  1.0000
  C   C50       1.0  0.14675  0.11511  0.25846  1.0000
  C   C51       1.0  0.12477  0.39220  0.10430  1.0000
  H   H74       1.0  0.21478  0.08331  0.28176  1.0000
  C   C52       1.0  0.41624  0.42854  0.98452  1.0000
  C   C53       1.0  0.39445  0.12166  0.09305  1.0000
  C   C54       1.0  0.05692  0.32975  0.08902  1.0000
  H   H75       1.0  0.34109  0.16373  0.12358  1.0000
  H   H76       1.0  0.00098  0.35902  0.12479  1.0000
  H   H77       1.0  0.06049  0.31316  0.12028  1.0000
  N   N4        1.0  0.08949  0.37505  0.11750  1.0000
  H   H78       1.0  0.15142  0.13296  0.27290  1.0000
  H   H79       1.0  0.38178  0.14752  0.08318  1.0000
  H   H80       1.0  0.03603  0.28351  0.06687  1.0000
  H   H81       1.0  0.43118  0.06035  0.05057  1.0000
  H   H82       1.0  0.41329  0.13870  0.10437  1.0000
  C   C55       1.0  0.32424  0.14192  0.11346  1.0000
  H   H83       1.0  0.37624  0.03829  0.02730  1.0000
  H   H84       1.0  0.41323  0.26171  0.09079  1.0000
  H   H85       1.0  0.22444  0.00252  0.98846  1.0000
  H   H86       1.0  0.13266  0.07548  0.18478  1.0000
  H   H87       1.0  0.07715  0.07065  0.27183  1.0000
  H   H88       1.0  0.13384  0.31818  0.16936  1.0000
  H   H89       1.0  0.42524  0.28428  0.26379  1.0000
  Fe  Fe7       1.0  0.46808  0.44627  0.06927  1.0000
  C   C56       1.0  0.29784  0.99278  0.09330  1.0000
  C   C57       1.0  0.44848  0.04370  0.11080  1.0000
  H   H90       1.0  0.39809  0.31628  0.08619  1.0000
  H   H91       1.0  0.05687  0.43809  0.12412  1.0000
  C   C58       1.0  0.45741  0.21866  0.26255  1.0000
  H   H92       1.0  0.45611  0.00283  0.13641  1.0000
  H   H93       1.0  0.47392  0.29354  0.99550  1.0000
  C   C59       1.0  0.09196  0.09336  0.23446  1.0000
  C   C60       1.0  0.35529  0.10468  0.10510  1.0000
  H   H94       1.0  0.45597  0.22006  0.27926  1.0000
  H   H95       1.0  0.37100  0.33481  0.12658  1.0000
  H   H96       1.0  0.12736  0.20266  0.27006  1.0000
  H   H97       1.0  0.40138  0.30158  0.14278  1.0000
  H   H98       1.0  0.22529  0.03263  0.26786  1.0000
  H   H99       1.0  0.31026  0.16067  0.10106  1.0000
  H   H100      1.0  0.49093  0.07860  0.07097  1.0000
  H   H101      1.0  0.11430  0.39579  0.08869  1.0000
  C   C61       1.0  0.08967  0.16760  0.24861  1.0000
  H   H102      1.0  0.07879  0.37489  0.26853  1.0000
  S   S12       1.0  0.38505  0.41570  0.00585  1.0000
  H   H103      1.0  0.15605  0.09421  0.21848  1.0000
  S   S13       1.0  0.00458  0.22314  0.12997  1.0000
  H   H104      1.0  0.35229  0.26410  0.25659  1.0000
  C   C62       1.0  0.33075  0.26061  0.13920  1.0000
  H   H105      1.0  0.41692  0.37479  0.10623  1.0000
  C   C63       1.0  0.44290  0.35526  0.11354  1.0000
  H   H106      1.0  0.10099  0.40292  0.14703  1.0000
  H   H107      1.0  0.11064  0.30994  0.10701  1.0000
  H   H108      1.0  0.16795  0.13019  0.24728  1.0000
  H   H109      1.0  0.14683  0.05213  0.27306  1.0000
  H   H110      1.0  0.00465  0.06490  0.28863  1.0000
  C   C64       1.0  0.36280  0.26759  0.12171  1.0000
  C   C65       1.0  0.39258  0.30449  0.12681  1.0000
  H   H111      1.0  0.30640  0.23826  0.13426  1.0000
  H   H112      1.0  0.23236  0.08277  0.25544  1.0000
  C   C66       1.0  0.16517  0.06787  0.26100  1.0000
  C   C67       1.0  0.28030  0.01927  0.10956  1.0000
  H   H113      1.0  0.22234  0.01905  0.05925  1.0000
  H   H114      1.0  0.19153  0.47910  0.10379  1.0000
  C   C68       1.0  0.11139  0.06955  0.19813  1.0000
  H   H115      1.0  0.47313  0.35983  0.10454  1.0000
  C   C69       1.0  0.12096  0.40887  0.28787  1.0000
  C   C70       1.0  0.04989  0.40597  0.11751  1.0000
  H   H116      1.0  0.42224  0.37138  0.14544  1.0000
  Fe  Fe8       1.0  0.40440  0.44043  0.03622  1.0000
  S   S14       1.0  0.35313  0.48169  0.05395  1.0000
  H   H117      1.0  0.29597  0.01893  0.12377  1.0000
  H   H118      1.0  0.48014  0.19484  0.22711  1.0000
  C   C71       1.0  0.45243  0.27908  0.05572  1.0000
  H   H119      1.0  0.45036  0.17298  0.07465  1.0000
  C   C72       1.0  0.19903  0.46608  0.29611  1.0000
  H   H120      1.0  0.48328  0.07476  0.97088  1.0000
  H   H121      1.0  0.04086  0.41245  0.10183  1.0000
  H   H122      1.0  0.01492  0.15216  0.26873  1.0000
  H   H123      1.0  0.40366  0.00250  0.12573  1.0000
  H   H124      1.0  0.01032  0.10089  0.25565  1.0000
  H   H125      1.0  0.48171  0.10854  0.09418  1.0000
  H   H126      1.0  0.44122  0.34292  0.97089  1.0000
  C   C73       1.0  0.45128  0.42583  0.13316  1.0000
  H   H127      1.0  0.48103  0.28010  0.04517  1.0000
  H   H128      1.0  0.42030  0.44066  0.12795  1.0000
  H   H129      1.0  0.44132  0.03874  0.97685  1.0000
  H   H130      1.0  0.11515  0.46304  0.10752  1.0000
  H   H131      1.0  0.17470  0.47836  0.28554  1.0000
  H   H132      1.0  0.47537  0.29240  0.13740  1.0000
  H   H133      1.0  0.47991  0.36396  0.14069  1.0000
  H   H134      1.0  0.47811  0.43355  0.12261  1.0000
  H   H135      1.0  0.49129  0.27206  0.08134  1.0000
  S   S15       1.0  0.45735  0.48487  0.04144  1.0000
  C   C74       1.0  0.16215  0.39959  0.30000  1.0000
  Fe  Fe9       1.0  0.19130  0.26519  0.33290  1.0000
  S   S16       1.0  0.22021  0.19927  0.34101  1.0000
  S   S17       1.0  0.16776  0.31817  0.35611  1.0000
  Fe  Fe10      1.0  0.17857  0.17363  0.31701  1.0000
  Fe  Fe11      1.0  0.27068  0.20813  0.31607  1.0000
  C   C75       1.0  0.06705  0.09778  0.36738  1.0000
  H   H136      1.0  0.11514  0.14096  0.35742  1.0000
  C   C76       1.0  0.01277  0.36550  0.40672  1.0000
  N   N5        1.0  0.00442  0.31955  0.40059  1.0000
  C   C77       1.0  0.06623  0.48523  0.61107  1.0000
  C   C78       1.0  0.14046  0.46228  0.32263  1.0000
  H   H137      1.0  0.19449  0.39837  0.33642  1.0000
  C   C79       1.0  0.04652  0.40878  0.34825  1.0000
  C   C80       1.0  0.05778  0.37464  0.33421  1.0000
  C   C81       1.0  0.09430  0.34618  0.33665  1.0000
  C   C82       1.0  0.12036  0.35195  0.35301  1.0000
  C   C83       1.0  0.10892  0.38590  0.36715  1.0000
  C   C84       1.0  0.07200  0.41406  0.36487  1.0000
  S   S18       1.0  0.24461  0.27580  0.30992  1.0000
  H   H138      1.0  0.10273  0.32035  0.32561  1.0000
  H   H139      1.0  0.12911  0.39088  0.37976  1.0000
  H   H140      1.0  0.00817  0.20643  0.61791  1.0000
  C   C85       1.0  0.39301  0.20568  0.31791  1.0000
  H   H141      1.0  0.04498  0.07150  0.60698  1.0000
  H   H142      1.0  0.43924  0.30173  0.32483  1.0000
  H   H143      1.0  0.26151  0.35282  0.34160  1.0000
  H   H144      1.0  0.29035  0.40169  0.34315  1.0000
  C   C86       1.0  0.47244  0.19555  0.31707  1.0000
  H   H145      1.0  0.10208  0.24631  0.36518  1.0000
  H   H146      1.0  0.41299  0.27043  0.37325  1.0000
  C   C87       1.0  0.47565  0.24010  0.32044  1.0000
  H   H147      1.0  0.07184  0.30143  0.39267  1.0000
  H   H148      1.0  0.27199  0.41797  0.30803  1.0000
  H   H149      1.0  0.05682  0.35115  0.43141  1.0000
  H   H150      1.0  0.08761  0.42277  0.43286  1.0000
  C   C88       1.0  0.03984  0.30203  0.38573  1.0000
  H   H151      1.0  0.12266  0.48416  0.31237  1.0000
  C   C89       1.0  0.00402  0.29097  0.41851  1.0000
  C   C90       1.0  0.05656  0.41865  0.42557  1.0000
  H   H152      1.0  0.03855  0.37066  0.32118  1.0000
  H   H153      1.0  0.04276  0.32399  0.37294  1.0000
  N   N6        1.0  0.17854  0.43796  0.31137  1.0000
  H   H154      1.0  0.02927  0.01692  0.33873  1.0000
  H   H155      1.0  0.00300  0.25128  0.37150  1.0000
  C   C91       1.0  0.39630  0.25026  0.32095  1.0000
  C   C92       1.0  0.03829  0.47432  0.59589  1.0000
  C   C93       1.0  0.03544  0.25527  0.37733  1.0000
  C   C94       1.0  0.01232  0.05873  0.60670  1.0000
  H   H156      1.0  0.03735  0.28425  0.42373  1.0000
  S   S19       1.0  0.14681  0.23880  0.31071  1.0000
  S   S20       1.0  0.00838  0.04176  0.38122  1.0000
  S   S21       1.0  0.00867  0.42758  0.59841  1.0000
  H   H157      1.0  0.22203  0.44627  0.33588  1.0000
  H   H158      1.0  0.99813  0.07180  0.59287  1.0000
  H   H159      1.0  0.42935  0.14403  0.31346  1.0000
  H   H160      1.0  0.03529  0.01159  0.57108  1.0000
  C   C95       1.0  0.09601  0.11445  0.35318  1.0000
  C   C96       1.0  0.05468  0.37161  0.41811  1.0000
  H   H161      1.0  0.08049  0.04602  0.31365  1.0000
  C   C97       1.0  0.25210  0.39566  0.31654  1.0000
  S   S22       1.0  0.13884  0.11398  0.31554  1.0000
  C   C98       1.0  0.01787  0.00882  0.60308  1.0000
  H   H162      1.0  0.11682  0.43917  0.32778  1.0000
  H   H163      1.0  0.08368  0.36337  0.40808  1.0000
  C   C99       1.0  0.07653  0.06086  0.32860  1.0000
  S   S23       1.0  0.00402  0.44711  0.34307  1.0000
  C   C100      1.0  0.04745  0.04425  0.34279  1.0000
  C   C101      1.0  0.44806  0.26857  0.37612  1.0000
  H   H164      1.0  0.01476  0.38571  0.39331  1.0000
  S   S24       1.0  0.34220  0.18205  0.31638  1.0000
  H   H165      1.0  0.02976  0.42762  0.43682  1.0000
  H   H166      1.0  0.06968  0.46466  0.62381  1.0000
  H   H167      1.0  0.45800  0.20872  0.35940  1.0000
  H   H168      1.0  0.05417  0.44102  0.41290  1.0000
  C   C102      1.0  0.04297  0.06232  0.36237  1.0000
  H   H169      1.0  0.06314  0.26454  0.34727  1.0000
  H   H170      1.0  0.06416  0.44083  0.37553  1.0000
  H   H171      1.0  0.99304  0.25860  0.41416  1.0000
  C   C103      1.0  0.43729  0.26724  0.32224  1.0000
  H   H172      1.0  0.36720  0.27163  0.32246  1.0000
  H   H173      1.0  0.02305  0.13004  0.62895  1.0000
  C   C104      1.0  0.27988  0.37597  0.33279  1.0000
  H   H174      1.0  0.06403  0.11185  0.38250  1.0000
  H   H175      1.0  0.06572  0.20927  0.35484  1.0000
  H   H176      1.0  0.30909  0.35801  0.32567  1.0000
  C   C105      1.0  0.06870  0.24327  0.36014  1.0000
  C   C106      1.0  0.10124  0.09578  0.33375  1.0000
  H   H177      1.0  0.04100  0.23167  0.38931  1.0000
  C   C107      1.0  0.46601  0.22133  0.37443  1.0000
  H   H178      1.0  0.45237  0.28265  0.39140  1.0000
  H   H179      1.0  0.44875  0.20312  0.38599  1.0000
  C   C108      1.0  0.43143  0.17853  0.31595  1.0000
  H   H180      1.0  0.00783  0.26923  0.45890  1.0000
  H   H181      1.0  0.15503  0.37347  0.31049  1.0000
  H   H182      1.0  0.01721  0.99676  0.52803  1.0000
  H   H183      1.0  0.03871  0.99568  0.50224  1.0000
  H   H184      1.0  0.46462  0.28805  0.36479  1.0000
  H   H185      1.0  0.08090  0.00799  0.58720  1.0000
  H   H186      1.0  0.46610  0.46229  0.55593  1.0000
  H   H187      1.0  0.24434  0.36890  0.30619  1.0000
  H   H188      1.0  0.48683  0.13574  0.39181  1.0000
  C   C109      1.0  0.21064  0.42035  0.32599  1.0000
  H   H189      1.0  0.15548  0.46586  0.35447  1.0000
  C   C110      1.0  0.04819  0.99683  0.58477  1.0000
  H   H190      1.0  0.03179  0.99222  0.61605  1.0000
  H   H191      1.0  0.00949  0.11644  0.30163  1.0000
  H   H192      1.0  0.39223  0.17773  0.90733  1.0000
  H   H193      1.0  0.40694  0.43681  0.93399  1.0000
  C   C111      1.0  0.30508  0.42870  0.84127  1.0000
  S   S25       1.0  0.42006  0.45347  0.84417  1.0000
  Fe  Fe12      1.0  0.42043  0.39915  0.86630  1.0000
  S   S26       1.0  0.38434  0.33741  0.86291  1.0000
  S   S27       1.0  0.39556  0.44334  0.89241  1.0000
  H   H194      1.0  0.37934  0.29853  0.94858  1.0000
  H   H195      1.0  0.31086  0.32965  0.93376  1.0000
  H   H196      1.0  0.30698  0.46376  0.81332  1.0000
  H   H197      1.0  0.36354  0.42260  0.96483  1.0000
  H   H198      1.0  0.29284  0.39370  0.87845  1.0000
  S   S28       1.0  0.35600  0.03663  0.93880  1.0000
  Fe  Fe13      1.0  0.37943  0.00237  0.86391  1.0000
  Fe  Fe14      1.0  0.43515  0.07734  0.87581  1.0000
  H   H199      1.0  0.04103  0.04168  0.67984  1.0000
  S   S29       1.0  0.36514  0.06544  0.88187  1.0000
  C   C112      1.0  0.40723  0.28347  0.86530  1.0000
  C   C113      1.0  0.25804  0.44511  0.84769  1.0000
  C   C114      1.0  0.39998  0.31369  0.93708  1.0000
  C   C115      1.0  0.44129  0.19649  0.86894  1.0000
  C   C116      1.0  0.39674  0.20579  0.86769  1.0000
  C   C117      1.0  0.37989  0.24897  0.86585  1.0000
  C   C118      1.0  0.25710  0.40006  0.87798  1.0000
  H   H200      1.0  0.31345  0.35063  0.90883  1.0000
  H   H201      1.0  0.37531  0.17964  0.86796  1.0000
  H   H202      1.0  0.34548  0.25551  0.86467  1.0000
  H   H203      1.0  0.34709  0.41911  0.81442  1.0000
  H   H204      1.0  0.24263  0.31753  0.89173  1.0000
  H   H205      1.0  0.40414  0.34678  0.94335  1.0000
  C   C119      1.0  0.33122  0.34652  0.92281  1.0000
  H   H206      1.0  0.38379  0.15104  0.93058  1.0000
  S   S30       1.0  0.46466  0.14274  0.87132  1.0000
  H   H207      1.0  0.36632  0.28860  0.91095  1.0000
  H   H208      1.0  0.39228  0.33803  0.90669  1.0000
  H   H209      1.0  0.43799  0.15558  0.92045  1.0000
  H   H210      1.0  0.29162  0.40849  0.81062  1.0000
  C   C120      1.0  0.43911  0.24507  0.92383  1.0000
  H   H211      1.0  0.33723  0.37915  0.92912  1.0000
  H   H212      1.0  0.37346  0.23129  0.93501  1.0000
  C   C121      1.0  0.40671  0.21564  0.93409  1.0000
  H   H213      1.0  0.46084  0.31461  0.90526  1.0000
  C   C122      1.0  0.37393  0.32006  0.91792  1.0000
  H   H214      1.0  0.18016  0.43303  0.86304  1.0000
  H   H215      1.0  0.09515  0.03114  0.66909  1.0000
  C   C123      1.0  0.42187  0.43678  0.94830  1.0000
  Fe  Fe15      1.0  0.38875  0.02742  0.90788  1.0000
  H   H216      1.0  0.24916  0.35933  0.85056  1.0000
  H   H217      1.0  0.24485  0.39883  0.89387  1.0000
  C   C124      1.0  0.26490  0.00709  0.89394  1.0000
  N   N7        1.0  0.24607  0.44416  0.86986  1.0000
  H   H218      1.0  0.44115  0.06681  0.95358  1.0000
  H   H219      1.0  0.27174  0.00076  0.93662  1.0000
  C   C125      1.0  0.40524  0.17247  0.92237  1.0000
  H   H220      1.0  0.26733  0.03257  0.90586  1.0000
  C   C126      1.0  0.25392  0.31843  0.87571  1.0000
  C   C127      1.0  0.46564  0.44417  0.94940  1.0000
  S   S31       1.0  0.44810  0.01709  0.85545  1.0000
  H   H221      1.0  0.27510  0.05216  0.87010  1.0000
  H   H222      1.0  0.47088  0.22608  0.92275  1.0000
  H   H223      1.0  0.47025  0.34923  0.92593  1.0000
  C   C128      1.0  0.06035  0.02884  0.66625  1.0000
  N   N8        1.0  0.44333  0.28878  0.93405  1.0000
  S   S32       1.0  0.45780  0.04248  0.90310  1.0000
  C   C129      1.0  0.47225  0.31444  0.92086  1.0000
  H   H224      1.0  0.46754  0.99033  0.94717  1.0000
  C   C130      1.0  0.31297  0.43024  0.81850  1.0000
  H   H225      1.0  0.31250  0.39478  0.84548  1.0000
  H   H226      1.0  0.24082  0.29103  0.86728  1.0000
  H   H227      1.0  0.32829  0.44919  0.84848  1.0000
  H   H228      1.0  0.20275  0.36392  0.86781  1.0000
  H   H229      1.0  0.30634  0.46755  0.87946  1.0000
  H   H230      1.0  0.28978  0.31401  0.87462  1.0000
  H   H231      1.0  0.23573  0.42635  0.83872  1.0000
  C   C131      1.0  0.23860  0.36125  0.86669  1.0000
  C   C132      1.0  0.45175  0.27421  0.86663  1.0000
  H   H232      1.0  0.21922  0.04832  0.87781  1.0000
  C   C133      1.0  0.46860  0.23104  0.86840  1.0000
  C   C134      1.0  0.25075  0.02953  0.87494  1.0000
  H   H233      1.0  0.41629  0.20793  0.94948  1.0000
  H   H234      1.0  0.47331  0.30019  0.86597  1.0000
  Fe  Fe16      1.0  0.46531  0.45133  0.89780  1.0000
  H   H235      1.0  0.43002  0.24878  0.90798  1.0000
  C   C135      1.0  0.46195  0.28203  0.95437  1.0000
  H   H236      1.0  0.43910  0.26538  0.96428  1.0000
  H   H237      1.0  0.24782  0.00536  0.86244  1.0000
  H   H238      1.0  0.21657  0.01501  0.93268  1.0000
  C   C136      1.0  0.48951  0.01293  0.95396  1.0000
  H   H239      1.0  0.29758  0.99103  0.89058  1.0000
  C   C137      1.0  0.46222  0.05059  0.96455  1.0000
  C   C138      1.0  0.27113  0.47682  0.88094  1.0000
  C   C139      1.0  0.39729  0.42884  0.96579  1.0000
  H   H240      1.0  0.05642  0.08881  0.65102  1.0000
  C   C140      1.0  0.36887  0.99444  0.95501  1.0000
  H   H241      1.0  0.19931  0.98941  0.90026  1.0000
  H   H242      1.0  0.05450  0.99411  0.66361  1.0000
  H   H243      1.0  0.25368  0.47871  0.84241  1.0000
  C   C141      1.0  0.04861  0.05485  0.64791  1.0000
  C   C142      1.0  0.19801  0.45487  0.87280  1.0000
  Fe  Fe17      1.0  0.48822  0.46183  0.85337  1.0000
  S   S33       1.0  0.49023  0.40388  0.87313  1.0000
  H   H244      1.0  0.26797  0.45297  0.91179  1.0000
  H   H245      1.0  0.18665  0.44838  0.88842  1.0000
  C   C143      1.0  0.47176  0.32380  0.96639  1.0000
  C   C144      1.0  0.99995  0.05270  0.64370  1.0000
  C   C145      1.0  0.25986  0.48319  0.90384  1.0000
  C   C146      1.0  0.48462  0.44399  0.96814  1.0000
  H   H246      1.0  0.99217  0.01805  0.64335  1.0000
  C   C147      1.0  0.23942  0.98719  0.93618  1.0000
  H   H247      1.0  0.06973  0.04139  0.63505  1.0000
  S   S34       1.0  0.37898  0.86227  0.05396  1.0000
  S   S35       1.0  0.45167  0.90326  0.08219  1.0000
  S   S36       1.0  0.39793  0.88168  0.99598  1.0000
  Fe  Fe18      1.0  0.41232  0.89479  0.02842  1.0000
  H   H248      1.0  0.22480  0.53740  0.27555  1.0000
  Fe  Fe19      1.0  0.40671  0.52534  0.06028  1.0000
  C   C148      1.0  0.43060  0.59360  0.99256  1.0000
  S   S37       1.0  0.38765  0.59594  0.05303  1.0000
  Fe  Fe20      1.0  0.47831  0.93437  0.05492  1.0000
  H   H249      1.0  0.40420  0.65856  0.96957  1.0000
  H   H250      1.0  0.26760  0.90095  0.10274  1.0000
  H   H251      1.0  0.35292  0.60432  0.01280  1.0000
  H   H252      1.0  0.33673  0.87934  0.11811  1.0000
  S   S38       1.0  0.34456  0.95840  0.09679  1.0000
  H   H253      1.0  0.35517  0.51633  0.98958  1.0000
  C   C149      1.0  0.46407  0.88047  0.13680  1.0000
  H   H254      1.0  0.27298  0.50521  0.28185  1.0000
  C   C150      1.0  0.37380  0.72566  0.99248  1.0000
  C   C151      1.0  0.24585  0.52776  0.28796  1.0000
  H   H255      1.0  0.35106  0.78392  0.19311  1.0000
  C   C152      1.0  0.41152  0.64540  0.05857  1.0000
  C   C153      1.0  0.39106  0.68442  0.05239  1.0000
  C   C154      1.0  0.40831  0.72463  0.05656  1.0000
  C   C155      1.0  0.44610  0.72637  0.06720  1.0000
  H   H256      1.0  0.45276  0.61742  0.98654  1.0000
  C   C156      1.0  0.44959  0.64707  0.06901  1.0000
  H   H257      1.0  0.36134  0.68361  0.04454  1.0000
  H   H258      1.0  0.24326  0.86246  0.08668  1.0000
  H   H259      1.0  0.39199  0.75429  0.05182  1.0000
  Fe  Fe21      1.0  0.44636  0.84299  0.06270  1.0000
  H   H260      1.0  0.39478  0.79672  0.16248  1.0000
  H   H261      1.0  0.30719  0.80634  0.14240  1.0000
  H   H262      1.0  0.34757  0.65220  0.97127  1.0000
  H   H263      1.0  0.33182  0.75701  0.11673  1.0000
  H   H264      1.0  0.37019  0.74709  0.00626  1.0000
  S   S39       1.0  0.42167  0.49061  0.08866  1.0000
  C   C157      1.0  0.37409  0.67831  0.99835  1.0000
  H   H265      1.0  0.37613  0.52997  0.01365  1.0000
  S   S40       1.0  0.47954  0.87228  0.03623  1.0000
  H   H266      1.0  0.25959  0.55726  0.29426  1.0000
  H   H267      1.0  0.43636  0.52265  0.99507  1.0000
  H   H268      1.0  0.36247  0.85185  0.09663  1.0000
  H   H269      1.0  0.46746  0.91413  0.14251  1.0000
  H   H270      1.0  0.41546  0.66618  0.11547  1.0000
  C   C158      1.0  0.45560  0.54871  0.98938  1.0000
  H   H271      1.0  0.40145  0.67203  0.00828  1.0000
  H   H272      1.0  0.37927  0.68811  0.09738  1.0000
  C   C159      1.0  0.35133  0.58695  0.99799  1.0000
  H   H273      1.0  0.30076  0.80663  0.09227  1.0000
  H   H274      1.0  0.29476  0.88185  0.07925  1.0000
  Fe  Fe22      1.0  0.38638  0.92498  0.07136  1.0000
  H   H275      1.0  0.31925  0.59745  0.99217  1.0000
  C   C160      1.0  0.27444  0.87236  0.09228  1.0000
  H   H276      1.0  0.35611  0.75641  0.15813  1.0000
  H   H277      1.0  0.42756  0.60088  0.00910  1.0000
  C   C161      1.0  0.35061  0.53843  0.00299  1.0000
  H   H278      1.0  0.34340  0.67450  0.00710  1.0000
  S   S41       1.0  0.41333  0.95900  0.04492  1.0000
  C   C162      1.0  0.46661  0.68736  0.07337  1.0000
  H   H279      1.0  0.30195  0.79866  0.18073  1.0000
  H   H280      1.0  0.27510  0.82688  0.11573  1.0000
  H   H281      1.0  0.34638  0.73392  0.98279  1.0000
  N   N9        1.0  0.38679  0.59949  0.98351  1.0000
  H   H282      1.0  0.30194  0.54820  0.02760  1.0000
  H   H283      1.0  0.29040  0.97299  0.06243  1.0000
  H   H284      1.0  0.39956  0.87829  0.14921  1.0000
  C   C163      1.0  0.38738  0.92605  0.98075  1.0000
  C   C164      1.0  0.30727  0.52917  0.01316  1.0000
  H   H285      1.0  0.36817  0.77206  0.09720  1.0000
  H   H286      1.0  0.48243  0.91956  0.96935  1.0000
  H   H287      1.0  0.46565  0.61742  0.07392  1.0000
  H   H288      1.0  0.34082  0.83865  0.18526  1.0000
  H   H289      1.0  0.40336  0.89863  0.12419  1.0000
  H   H290      1.0  0.40607  0.73586  0.13559  1.0000
  H   H291      1.0  0.45018  0.97365  0.11298  1.0000
  C   C165      1.0  0.41630  0.87336  0.13420  1.0000
  H   H292      1.0  0.33456  0.85208  0.14931  1.0000
  N   N10       1.0  0.36456  0.81491  0.12371  1.0000
  C   C166      1.0  0.41059  0.82738  0.12513  1.0000
  C   C167      1.0  0.36397  0.77018  0.11389  1.0000
  C   C168      1.0  0.34182  0.84690  0.11033  1.0000
  C   C169      1.0  0.34014  0.81768  0.14387  1.0000
  C   C170      1.0  0.36013  0.79140  0.16094  1.0000
  H   H293      1.0  0.47797  0.85775  0.14776  1.0000
  C   C171      1.0  0.29701  0.83491  0.10305  1.0000
  C   C172      1.0  0.39961  0.73546  0.11943  1.0000
  C   C173      1.0  0.38763  0.68987  0.11342  1.0000
  C   C174      1.0  0.33694  0.80405  0.18121  1.0000
  H   H294      1.0  0.42703  0.82511  0.10987  1.0000
  H   H295      1.0  0.46413  0.54139  0.97323  1.0000
  S   S42       1.0  0.46745  0.77644  0.07414  1.0000
  H   H296      1.0  0.35962  0.68064  0.12287  1.0000
  H   H297      1.0  0.43051  0.74140  0.11129  1.0000
  H   H298      1.0  0.42997  0.80423  0.13403  1.0000
  H   H299      1.0  0.28027  0.53725  0.00322  1.0000
  C   C175      1.0  0.37794  0.64703  0.97951  1.0000
  H   H300      1.0  0.30722  0.49414  0.01628  1.0000
  C   C176      1.0  0.37029  0.96623  0.98875  1.0000
  H   H301      1.0  0.36358  0.97068  0.00477  1.0000
  H   H302      1.0  0.40465  0.73209  0.98440  1.0000
  H   H303      1.0  0.48277  0.87549  0.12222  1.0000
  C   C177      1.0  0.02900  0.73295  0.60016  1.0000
  H   H304      1.0  0.04178  0.77489  0.56182  1.0000
  Fe  Fe23      1.0  0.16850  0.72595  0.62106  1.0000
  S   S43       1.0  0.15530  0.78848  0.60491  1.0000
  Fe  Fe24      1.0  0.15354  0.63030  0.61451  1.0000
  S   S44       1.0  0.11617  0.59543  0.59071  1.0000
  S   S45       1.0  0.20716  0.67131  0.60407  1.0000
  H   H305      1.0  0.46250  0.74910  0.63169  1.0000
  H   H306      1.0  0.06154  0.73797  0.60550  1.0000
  H   H307      1.0  0.11959  0.75695  0.54413  1.0000
  C   C178      1.0  0.05346  0.66514  0.55045  1.0000
  H   H308      1.0  0.19651  0.73113  0.54122  1.0000
  H   H309      1.0  0.06914  0.59906  0.63405  1.0000
  C   C179      1.0  0.05838  0.53792  0.57814  1.0000
  H   H310      1.0  0.03392  0.88007  0.58107  1.0000
  C   C180      1.0  0.17636  0.72358  0.55467  1.0000
  C   C181      1.0  0.35936  0.65236  0.63132  1.0000
  C   C182      1.0  0.02216  0.86276  0.61176  1.0000
  C   C183      1.0  0.12892  0.72408  0.54936  1.0000
  C   C184      1.0  0.09955  0.71428  0.56783  1.0000
  H   H311      1.0  0.11204  0.52982  0.62145  1.0000
  H   H312      1.0  0.05140  0.85921  0.42354  1.0000
  C   C185      1.0  0.36374  0.67370  0.61322  1.0000
  C   C186      1.0  0.40520  0.68199  0.60528  1.0000
  C   C187      1.0  0.44274  0.66962  0.61540  1.0000
  H   H313      1.0  0.05562  0.55791  0.56520  1.0000
  H   H314      1.0  0.11537  0.68653  0.57568  1.0000
  H   H315      1.0  0.33521  0.68346  0.60526  1.0000
  H   H316      1.0  0.40814  0.69823  0.59119  1.0000
  Fe  Fe25      1.0  0.23820  0.65775  0.63346  1.0000
  C   C188      1.0  0.43832  0.64868  0.63359  1.0000
  H   H317      1.0  0.06539  0.80332  0.42876  1.0000
  H   H318      1.0  0.11663  0.53572  0.36345  1.0000
  H   H319      1.0  0.17775  0.50801  0.34045  1.0000
  H   H320      1.0  0.99729  0.68843  0.58168  1.0000
  C   C189      1.0  0.10351  0.81593  0.60765  1.0000
  C   C190      1.0  0.08709  0.83923  0.59156  1.0000
  H   H321      1.0  0.10081  0.74288  0.57820  1.0000
  H   H322      1.0  0.10610  0.83968  0.57758  1.0000
  C   C191      1.0  0.00888  0.64626  0.54790  1.0000
  C   C192      1.0  0.03090  0.74785  0.53209  1.0000
  H   H323      1.0  0.01142  0.79339  0.50943  1.0000
  N   N11       1.0  0.05331  0.70547  0.56385  1.0000
  C   C193      1.0  0.04625  0.86210  0.59350  1.0000
  C   C194      1.0  0.08640  0.54878  0.59330  1.0000
  C   C195      1.0  0.04106  0.82565  0.42196  1.0000
  H   H324      1.0  0.10482  0.54458  0.33757  1.0000
  H   H325      1.0  0.06409  0.74328  0.52534  1.0000
  H   H326      1.0  0.01535  0.76398  0.59444  1.0000
  C   C196      1.0  0.03433  0.50098  0.57943  1.0000
  H   H327      1.0  0.18096  0.74825  0.56670  1.0000
  H   H328      1.0  0.05117  0.96107  0.58232  1.0000
  H   H329      1.0  0.06742  0.67055  0.53524  1.0000
  S   S46       1.0  0.11423  0.68589  0.63008  1.0000
  C   C197      1.0  0.00089  0.72198  0.61846  1.0000
  H   H330      1.0  0.01313  0.49285  0.56760  1.0000
  H   H331      1.0  0.48280  0.52870  0.61497  1.0000
  C   C198      1.0  0.14936  0.48855  0.34213  1.0000
  H   H332      1.0  0.01674  0.63189  0.51558  1.0000
  H   H333      1.0  0.01748  0.94787  0.51254  1.0000
  C   C199      1.0  0.03135  0.69594  0.58378  1.0000
  H   H334      1.0  0.01347  0.69114  0.62482  1.0000
  H   H335      1.0  0.00358  0.73013  0.37224  1.0000
  H   H336      1.0  0.07521  0.63880  0.55637  1.0000
  C   C200      1.0  0.02961  0.74457  0.55533  1.0000
  H   H337      1.0  0.12727  0.70006  0.53681  1.0000
  C   C201      1.0  0.11051  0.51941  0.34884  1.0000
  H   H338      1.0  0.18777  0.69111  0.55974  1.0000
  H   H339      1.0  0.03090  0.81840  0.53178  1.0000
  C   C202      1.0  0.45902  0.81759  0.62657  1.0000
  C   C203      1.0  0.03850  0.83927  0.62778  1.0000
  H   H340      1.0  0.04756  0.66658  0.59022  1.0000
  H   H341      1.0  0.03989  0.81716  0.40566  1.0000
  C   C204      1.0  0.07879  0.81554  0.62568  1.0000
  C   C205      1.0  0.09017  0.52224  0.60981  1.0000
  H   H342      1.0  0.00276  0.56167  0.62036  1.0000
  H   H343      1.0  0.24220  0.49835  0.31657  1.0000
  C   C206      1.0  0.99658  0.82312  0.43245  1.0000
  H   H344      1.0  0.99462  0.74621  0.56006  1.0000
  H   H345      1.0  0.03492  0.58788  0.53112  1.0000
  H   H346      1.0  0.08088  0.50152  0.35081  1.0000
  H   H347      1.0  0.42886  0.81665  0.61825  1.0000
  H   H348      1.0  0.19424  0.53095  0.31035  1.0000
  H   H349      1.0  0.00148  0.74822  0.63022  1.0000
  C   C207      1.0  0.01158  0.79203  0.52607  1.0000
  H   H350      1.0  0.01160  0.72285  0.52521  1.0000
  H   H351      1.0  0.00593  0.75450  0.43616  1.0000
  H   H352      1.0  0.99963  0.83256  0.44848  1.0000
  C   C208      1.0  0.01329  0.98381  0.51249  1.0000
  C   C209      1.0  0.21988  0.50650  0.30449  1.0000
  C   C210      1.0  0.00987  0.61485  0.52967  1.0000
  H   H353      1.0  0.45918  0.84922  0.63487  1.0000
  H   H354      1.0  0.00014  0.62789  0.56139  1.0000
  H   H355      1.0  0.47081  0.80482  0.81485  1.0000
  S   S47       1.0  0.35453  0.55785  0.87485  1.0000
  C   C211      1.0  0.27097  0.61547  0.73529  1.0000
  H   H356      1.0  0.05018  0.62040  0.78352  1.0000
  H   H357      1.0  0.48230  0.63289  0.88416  1.0000
  H   H358      1.0  0.14099  0.56442  0.76032  1.0000
  H   H359      1.0  0.45792  0.63911  0.90920  1.0000
  Fe  Fe26      1.0  0.16904  0.68484  0.82273  1.0000
  S   S48       1.0  0.13713  0.72703  0.84819  1.0000
  S   S49       1.0  0.19675  0.61482  0.82173  1.0000
  Fe  Fe27      1.0  0.16094  0.75659  0.79298  1.0000
  S   S50       1.0  0.13048  0.80486  0.81604  1.0000
  S   S51       1.0  0.17795  0.77533  0.76132  1.0000
  Fe  Fe28      1.0  0.18007  0.77812  0.83675  1.0000
  S   S52       1.0  0.22088  0.81410  0.85872  1.0000
  S   S53       1.0  0.21406  0.73427  0.81281  1.0000
  S   S54       1.0  0.11802  0.70392  0.80091  1.0000
  H   H360      1.0  0.27490  0.53648  0.77487  1.0000
  H   H361      1.0  0.17612  0.61873  0.73961  1.0000
  H   H362      1.0  0.47385  0.91838  0.83984  1.0000
  S   S55       1.0  0.11554  0.66596  0.68725  1.0000
  C   C212      1.0  0.38702  0.95464  0.94722  1.0000
  C   C213      1.0  0.13199  0.69767  0.70762  1.0000
  C   C214      1.0  0.11247  0.69367  0.72679  1.0000
  C   C215      1.0  0.12561  0.71810  0.74332  1.0000
  C   C216      1.0  0.15870  0.74619  0.74081  1.0000
  C   C217      1.0  0.17772  0.75066  0.72161  1.0000
  C   C218      1.0  0.16443  0.72647  0.70507  1.0000
  H   H363      1.0  0.08754  0.67126  0.72888  1.0000
  H   H364      1.0  0.11071  0.71469  0.75803  1.0000
  H   H365      1.0  0.20310  0.77262  0.71954  1.0000
  H   H366      1.0  0.17946  0.73009  0.69041  1.0000
  C   C219      1.0  0.29833  0.69399  0.76243  1.0000
  C   C220      1.0  0.43554  0.85544  0.85992  1.0000
  H   H367      1.0  0.30470  0.54035  0.75117  1.0000
  H   H368      1.0  0.29112  0.61024  0.78569  1.0000
  C   C221      1.0  0.25360  0.85716  0.85275  1.0000
  C   C222      1.0  0.24940  0.88034  0.83518  1.0000
  C   C223      1.0  0.27482  0.91577  0.83173  1.0000
  C   C224      1.0  0.30448  0.92846  0.84582  1.0000
  C   C225      1.0  0.30921  0.90465  0.86315  1.0000
  C   C226      1.0  0.28416  0.86904  0.86648  1.0000
  H   H369      1.0  0.22611  0.87145  0.82440  1.0000
  S   S56       1.0  0.18752  0.61165  0.64254  1.0000
  H   H370      1.0  0.33245  0.91336  0.87388  1.0000
  H   H371      1.0  0.28854  0.85029  0.87974  1.0000
  H   H372      1.0  0.27196  0.75198  0.74834  1.0000
  H   H373      1.0  0.19014  0.50934  0.85223  1.0000
  H   H374      1.0  0.42579  0.86544  0.80904  1.0000
  C   C227      1.0  0.34335  0.53440  0.77719  1.0000
  H   H375      1.0  0.31815  0.68323  0.74870  1.0000
  H   H376      1.0  0.42287  0.74497  0.68590  1.0000
  H   H377      1.0  0.10802  0.61417  0.75848  1.0000
  C   C228      1.0  0.24311  0.60151  0.83539  1.0000
  C   C229      1.0  0.25254  0.62619  0.85238  1.0000
  C   C230      1.0  0.28745  0.61285  0.86403  1.0000
  C   C231      1.0  0.31378  0.57529  0.85858  1.0000
  C   C232      1.0  0.30558  0.55163  0.84106  1.0000
  C   C233      1.0  0.26993  0.56434  0.82967  1.0000
  H   H378      1.0  0.23214  0.65489  0.85691  1.0000
  H   H379      1.0  0.29367  0.63147  0.87751  1.0000
  H   H380      1.0  0.23443  0.94883  0.88744  1.0000
  H   H381      1.0  0.26295  0.54527  0.81645  1.0000
  C   C234      1.0  0.41210  0.55678  0.92800  1.0000
  H   H382      1.0  0.35199  0.74188  0.67244  1.0000
  H   H383      1.0  0.46308  0.83924  0.96401  1.0000
  H   H384      1.0  0.27827  0.76586  0.66399  1.0000
  C   C235      1.0  0.38791  0.81836  0.83791  1.0000
  H   H385      1.0  0.27101  0.93380  0.81820  1.0000
  H   H386      1.0  0.02762  0.85963  0.76996  1.0000
  C   C236      1.0  0.29469  0.89639  0.93552  1.0000
  C   C237      1.0  0.20005  0.88483  0.90802  1.0000
  H   H387      1.0  0.19351  0.89652  0.89281  1.0000
  H   H388      1.0  0.32075  0.50951  0.91125  1.0000
  Fe  Fe29      1.0  0.15189  0.67078  0.65724  1.0000
  C   C238      1.0  0.16336  0.85660  0.91394  1.0000
  H   H389      1.0  0.11646  0.48648  0.86109  1.0000
  C   C239      1.0  0.38625  0.77814  0.64915  1.0000
  H   H390      1.0  0.09122  0.79779  0.63816  1.0000
  H   H391      1.0  0.05969  0.76703  0.77983  1.0000
  H   H392      1.0  0.44368  0.87527  0.70401  1.0000
  H   H393      1.0  0.03589  0.83951  0.79486  1.0000
  C   C240      1.0  0.28314  0.92655  0.91817  1.0000
  H   H394      1.0  0.28592  0.90682  0.90399  1.0000
  C   C241      1.0  0.43730  0.73926  0.67036  1.0000
  H   H395      1.0  0.26749  0.87755  0.94061  1.0000
  C   C242      1.0  0.28555  0.51849  0.91319  1.0000
  H   H396      1.0  0.00052  0.57815  0.66628  1.0000
  H   H397      1.0  0.23036  0.86364  0.90707  1.0000
  C   C243      1.0  0.37355  0.80450  0.81675  1.0000
  H   H398      1.0  0.46764  0.86837  0.86180  1.0000
  H   H399      1.0  0.46675  0.63904  0.64161  1.0000
  H   H400      1.0  0.32034  0.75908  0.76175  1.0000
  H   H401      1.0  0.05199  0.78674  0.75505  1.0000
  S   S57       1.0  0.46849  0.50908  0.87864  1.0000
  N   N12       1.0  0.23982  0.95181  0.91991  1.0000
  H   H402      1.0  0.13182  0.87593  0.91465  1.0000
  H   H403      1.0  0.16194  0.82988  0.90246  1.0000
  H   H404      1.0  0.16887  0.84210  0.92873  1.0000
  C   C244      1.0  0.13282  0.50878  0.87121  1.0000
  C   C245      1.0  0.23255  0.97324  0.90013  1.0000
  H   H405      1.0  0.39401  0.94991  0.93131  1.0000
  H   H406      1.0  0.46681  0.65729  0.68221  1.0000
  H   H407      1.0  0.30701  0.79485  0.82668  1.0000
  H   H408      1.0  0.08104  0.84139  0.77707  1.0000
  S   S58       1.0  0.30817  0.64041  0.64210  1.0000
  H   H409      1.0  0.07766  0.59457  0.66049  1.0000
  H   H410      1.0  0.39751  0.62071  0.94057  1.0000
  N   N13       1.0  0.43006  0.77944  0.65819  1.0000
  C   C246      1.0  0.42836  0.82231  0.87653  1.0000
  H   H411      1.0  0.23122  0.68828  0.75546  1.0000
  H   H412      1.0  0.17178  0.65655  0.76123  1.0000
  Fe  Fe30      1.0  0.46514  0.98192  0.88332  1.0000
  C   C247      1.0  0.42877  0.87664  0.82493  1.0000
  C   C248      1.0  0.01669  0.57158  0.65125  1.0000
  H   H413      1.0  0.40008  0.78556  0.80804  1.0000
  C   C249      1.0  0.30552  0.76960  0.65297  1.0000
  C   C250      1.0  0.25286  0.65064  0.72110  1.0000
  H   H414      1.0  0.42008  0.71208  0.66383  1.0000
  H   H415      1.0  0.39915  0.89822  0.82892  1.0000
  H   H416      1.0  0.03339  0.64578  0.80767  1.0000
  H   H417      1.0  0.24406  0.94552  0.96259  1.0000
  C   C251      1.0  0.45957  0.94410  0.81132  1.0000
  C   C252      1.0  0.20292  0.92312  0.92351  1.0000
  H   H418      1.0  0.36008  0.88002  0.92280  1.0000
  H   H419      1.0  0.44382  0.78988  0.87204  1.0000
  C   C253      1.0  0.38396  0.57417  0.96387  1.0000
  H   H420      1.0  0.43009  0.56897  0.91487  1.0000
  H   H421      1.0  0.40828  0.88936  0.95367  1.0000
  H   H422      1.0  0.36163  0.84097  0.84477  1.0000
  H   H423      1.0  0.30661  0.61283  0.73213  1.0000
  C   C254      1.0  0.29633  0.60158  0.76929  1.0000
  C   C255      1.0  0.47298  0.82912  0.68103  1.0000
  H   H424      1.0  0.20393  0.90867  0.93849  1.0000
  H   H425      1.0  0.32794  0.61400  0.76465  1.0000
  C   C256      1.0  0.46774  0.90532  0.82462  1.0000
  H   H426      1.0  0.26957  0.75531  0.77553  1.0000
  N   N14       1.0  0.43083  0.83870  0.83864  1.0000
  H   H427      1.0  0.32421  0.76839  0.80297  1.0000
  H   H428      1.0  0.22116  0.56727  0.75828  1.0000
  Fe  Fe31      1.0  0.08945  0.75056  0.82538  1.0000
  H   H429      1.0  0.32627  0.52324  0.83656  1.0000
  H   H430      1.0  0.39398  0.62326  0.65538  1.0000
  C   C257      1.0  0.13802  0.59948  0.76467  1.0000
  H   H431      1.0  0.13550  0.60345  0.78135  1.0000
  C   C258      1.0  0.28940  0.74306  0.76200  1.0000
  H   H432      1.0  0.37250  0.54673  0.76968  1.0000
  H   H433      1.0  0.26002  0.58368  0.72998  1.0000
  C   C259      1.0  0.44642  0.83690  0.89644  1.0000
  H   H434      1.0  0.24339  0.67389  0.77997  1.0000
  H   H435      1.0  0.39313  0.81908  0.87923  1.0000
  C   C260      1.0  0.48889  0.63914  0.90024  1.0000
  C   C261      1.0  0.21946  0.60172  0.76371  1.0000
  C   C262      1.0  0.30240  0.55143  0.76722  1.0000
  C   C263      1.0  0.17668  0.62215  0.75620  1.0000
  H   H436      1.0  0.03159  0.53786  0.65079  1.0000
  H   H437      1.0  0.34629  0.49844  0.77597  1.0000
  H   H438      1.0  0.21588  0.60140  0.78041  1.0000
  H   H439      1.0  0.34200  0.54445  0.79340  1.0000
  C   C264      1.0  0.18188  0.50195  0.86807  1.0000
  N   N15       1.0  0.26034  0.62274  0.75762  1.0000
  H   H440      1.0  0.02572  0.73032  0.74096  1.0000
  C   C265      1.0  0.34739  0.77215  0.66408  1.0000
  C   C266      1.0  0.33205  0.86347  0.92898  1.0000
  H   H441      1.0  0.27819  0.54995  0.90606  1.0000
  C   C267      1.0  0.25591  0.67012  0.76403  1.0000
  H   H442      1.0  0.00179  0.65762  0.74010  1.0000
  S   S59       1.0  0.01739  0.77392  0.82817  1.0000
  H   H443      1.0  0.31786  0.68688  0.77570  1.0000
  H   H444      1.0  0.04018  0.63638  0.65213  1.0000
  H   H445      1.0  0.26744  0.50893  0.87400  1.0000
  H   H446      1.0  0.48219  0.83732  0.89491  1.0000
  H   H447      1.0  0.48751  0.96471  0.81170  1.0000
  H   H448      1.0  0.34242  0.84485  0.94212  1.0000
  C   C268      1.0  0.41157  0.58933  0.94580  1.0000
  H   H449      1.0  0.36351  0.83354  0.80826  1.0000
  H   H450      1.0  0.04009  0.69538  0.77055  1.0000
  H   H451      1.0  0.32168  0.84040  0.91729  1.0000
  H   H452      1.0  0.42805  0.52522  0.93190  1.0000
  H   H453      1.0  0.34980  0.57539  0.95923  1.0000
  H   H454      1.0  0.27697  0.52251  0.92953  1.0000
  H   H455      1.0  0.34294  0.74627  0.82597  1.0000
  H   H456      1.0  0.40585  0.81849  0.68429  1.0000
  H   H457      1.0  0.30975  0.94885  0.91685  1.0000
  H   H458      1.0  0.27043  0.68053  0.72273  1.0000
  H   H459      1.0  0.41203  0.88377  0.86344  1.0000
  C   C269      1.0  0.02204  0.62949  0.79394  1.0000
  S   S60       1.0  0.20341  0.71594  0.64962  1.0000
  H   H460      1.0  0.43256  0.86985  0.90120  1.0000
  H   H461      1.0  0.23879  0.60683  0.69622  1.0000
  C   C270      1.0  0.46643  0.80508  0.83155  1.0000
  C   C271      1.0  0.33462  0.77680  0.81826  1.0000
  C   C272      1.0  0.22612  0.97530  0.95793  1.0000
  C   C273      1.0  0.05303  0.60228  0.64928  1.0000
  H   H462      1.0  0.12274  0.50336  0.88708  1.0000
  S   S61       1.0  0.33530  0.97373  0.84116  1.0000
  C   C274      1.0  0.42979  0.81988  0.67147  1.0000
  H   H463      1.0  0.41846  0.84881  0.66316  1.0000
  H   H464      1.0  0.30506  0.91594  0.94848  1.0000
  H   H465      1.0  0.21829  0.65992  0.72441  1.0000
  H   H466      1.0  0.19101  0.97016  0.95905  1.0000
  H   H467      1.0  0.38817  0.78893  0.84708  1.0000
  H   H468      1.0  0.19622  0.52612  0.87798  1.0000
  H   H469      1.0  0.34253  0.79985  0.67511  1.0000
  H   H470      1.0  0.43007  0.96407  0.81683  1.0000
  H   H471      1.0  0.29836  0.79955  0.64464  1.0000
  C   C275      1.0  0.25796  0.63530  0.69901  1.0000
  H   H472      1.0  0.45722  0.77186  0.83501  1.0000
  H   H473      1.0  0.02104  0.69039  0.70751  1.0000
  H   H474      1.0  0.47675  0.69627  0.70216  1.0000
  C   C276      1.0  0.00795  0.70280  0.77841  1.0000
  H   H475      1.0  0.43813  0.81408  0.90829  1.0000
  H   H476      1.0  0.37871  0.55188  0.92349  1.0000
  H   H477      1.0  0.17156  0.94300  0.92386  1.0000
  H   H478      1.0  0.00702  0.59949  0.79842  1.0000
  H   H479      1.0  0.02008  0.83970  0.64195  1.0000
  C   C277      1.0  0.03949  0.78943  0.77092  1.0000
  S   S62       1.0  0.39739  0.96415  0.89047  1.0000
  H   H480      1.0  0.37789  0.80856  0.64132  1.0000
  H   H481      1.0  0.01497  0.71775  0.79325  1.0000
  H   H482      1.0  0.24584  0.66162  0.68932  1.0000
  H   H483      1.0  0.45561  0.93310  0.79551  1.0000
  C   C278      1.0  0.46344  0.77940  0.64101  1.0000
  C   C279      1.0  0.39541  0.92037  0.95997  1.0000
  H   H484      1.0  0.29246  0.62670  0.69458  1.0000
  C   C280      1.0  0.04618  0.83537  0.77868  1.0000
  H   H485      1.0  0.48215  0.84175  0.93795  1.0000
  H   H486      1.0  0.46324  0.89964  0.68128  1.0000
  H   H487      1.0  0.44534  0.59348  0.94994  1.0000
  H   H488      1.0  0.12228  0.54262  0.86768  1.0000
  H   H489      1.0  0.38691  0.75140  0.63745  1.0000
  C   C281      1.0  0.48454  0.72014  0.67187  1.0000
  H   H490      1.0  0.48080  0.80472  0.69239  1.0000
  H   H491      1.0  0.30777  0.74121  0.64223  1.0000
  C   C282      1.0  0.46978  0.87347  0.69199  1.0000
  H   H492      1.0  0.47816  0.55540  0.65043  1.0000
  Fe  Fe32      1.0  0.40042  0.49762  0.87099  1.0000
  C   C283      1.0  0.48726  0.68370  0.68680  1.0000
  C   C284      1.0  0.39695  0.63984  0.64139  1.0000
  H   H493      1.0  0.39311  0.53925  0.96550  1.0000
  H   H494      1.0  0.22511  0.49289  0.90688  1.0000
  S   S63       1.0  0.53011  0.42588  0.08438  1.0000
  Fe  Fe33      1.0  0.74964  0.16564  0.12053  1.0000
  S   S64       1.0  0.72003  0.23397  0.12377  1.0000
  S   S65       1.0  0.82182  0.14349  0.11594  1.0000
  Fe  Fe34      1.0  0.66002  0.12697  0.12476  1.0000
  S   S66       1.0  0.62470  0.19243  0.12923  1.0000
  S   S67       1.0  0.62192  0.06685  0.12673  1.0000
  Fe  Fe35      1.0  0.66813  0.21195  0.10391  1.0000
  S   S68       1.0  0.63998  0.24482  0.07700  1.0000
  Fe  Fe36      1.0  0.67874  0.20865  0.14885  1.0000
  S   S69       1.0  0.66685  0.24914  0.17766  1.0000
  S   S70       1.0  0.70092  0.14520  0.09828  1.0000
  S   S71       1.0  0.71095  0.14158  0.14676  1.0000
  H   H495      1.0  0.87318  0.16982  0.04169  1.0000
  C   C285      1.0  0.81562  0.09360  0.06523  1.0000
  S   S72       1.0  0.66877  0.15246  0.25999  1.0000
  H   H496      1.0  0.93841  0.14978  0.18624  1.0000
  C   C286      1.0  0.79301  0.16985  0.23555  1.0000
  H   H497      1.0  0.87577  0.22517  0.17462  1.0000
  C   C287      1.0  0.66586  0.22210  0.20048  1.0000
  C   C288      1.0  0.66740  0.17689  0.20073  1.0000
  C   C289      1.0  0.66784  0.15598  0.21912  1.0000
  C   C290      1.0  0.66689  0.18008  0.23734  1.0000
  C   C291      1.0  0.66528  0.22532  0.23712  1.0000
  C   C292      1.0  0.66452  0.24627  0.21871  1.0000
  H   H498      1.0  0.66791  0.15799  0.18678  1.0000
  H   H499      1.0  0.66902  0.12097  0.21921  1.0000
  H   H500      1.0  0.66524  0.24416  0.25106  1.0000
  H   H501      1.0  0.66354  0.28127  0.21859  1.0000
  C   C293      1.0  0.87214  0.16642  0.12011  1.0000
  C   C294      1.0  0.91089  0.14074  0.11595  1.0000
  C   C295      1.0  0.91536  0.22597  0.12995  1.0000
  C   C296      1.0  0.87467  0.20918  0.12719  1.0000
  H   H502      1.0  0.90949  0.10759  0.11046  1.0000
  H   H503      1.0  0.80401  0.11555  0.20542  1.0000
  H   H504      1.0  0.84529  0.22932  0.13042  1.0000
  C   C297      1.0  0.55646  0.37329  0.08266  1.0000
  C   C298      1.0  0.55836  0.34795  0.06481  1.0000
  C   C299      1.0  0.58333  0.30814  0.06341  1.0000
  C   C300      1.0  0.60610  0.29312  0.07989  1.0000
  C   C301      1.0  0.60291  0.31768  0.09796  1.0000
  H   H505      1.0  0.80465  0.13339  0.16026  1.0000
  H   H506      1.0  0.54324  0.01290  0.97349  1.0000
  H   H507      1.0  0.58570  0.28935  0.04938  1.0000
  H   H508      1.0  0.62042  0.30651  0.11073  1.0000
  H   H509      1.0  0.53758  0.21788  0.11524  1.0000
  H   H510      1.0  0.51853  0.44953  0.96909  1.0000
  C   C302      1.0  0.55450  0.00656  0.07333  1.0000
  C   C303      1.0  0.59617  0.04439  0.10592  1.0000
  C   C304      1.0  0.59907  0.06203  0.08688  1.0000
  C   C305      1.0  0.57861  0.04297  0.07065  1.0000
  H   H511      1.0  0.86262  0.20991  0.20984  1.0000
  H   H512      1.0  0.58331  0.11237  0.25579  1.0000
  H   H513      1.0  0.61746  0.09008  0.08462  1.0000
  H   H514      1.0  0.58141  0.05658  0.05594  1.0000
  C   C306      1.0  0.87070  0.20575  0.04292  1.0000
  H   H515      1.0  0.72206  0.20471  0.05901  1.0000
  H   H516      1.0  0.85051  0.09721  0.06741  1.0000
  H   H517      1.0  0.53407  0.19968  0.28097  1.0000
  C   C307      1.0  0.74642  0.21415  0.04743  1.0000
  C   C308      1.0  0.79963  0.17545  0.06735  1.0000
  H   H518      1.0  0.52606  0.29484  0.98220  1.0000
  C   C309      1.0  0.82348  0.22366  0.03984  1.0000
  H   H519      1.0  0.80331  0.22135  0.25772  1.0000
  C   C310      1.0  0.57859  0.35782  0.09923  1.0000
  C   C311      1.0  0.95159  0.15739  0.11883  1.0000
  H   H520      1.0  0.54182  0.35977  0.05189  1.0000
  C   C312      1.0  0.55134  0.98906  0.09239  1.0000
  C   C313      1.0  0.78848  0.21143  0.18130  1.0000
  H   H521      1.0  0.56939  0.11788  0.28245  1.0000
  H   H522      1.0  0.74786  0.18817  0.03542  1.0000
  H   H523      1.0  0.82406  0.25883  0.03688  1.0000
  H   H524      1.0  0.56986  0.99395  0.12324  1.0000
  H   H525      1.0  0.77752  0.17459  0.08087  1.0000
  H   H526      1.0  0.75217  0.27124  0.02857  1.0000
  H   H527      1.0  0.90235  0.25767  0.02807  1.0000
  H   H528      1.0  0.77786  0.28531  0.06424  1.0000
  H   H529      1.0  0.76056  0.12727  0.05327  1.0000
  H   H530      1.0  0.81437  0.20837  0.02538  1.0000
  H   H531      1.0  0.86800  0.15320  0.20538  1.0000
  H   H532      1.0  0.57603  0.21578  0.22661  1.0000
  H   H533      1.0  0.84772  0.10811  0.17417  1.0000
  H   H534      1.0  0.82738  0.15753  0.23568  1.0000
  H   H535      1.0  0.52090  0.22150  0.14166  1.0000
  C   C314      1.0  0.85465  0.18380  0.19896  1.0000
  H   H536      1.0  0.74892  0.20266  0.21599  1.0000
  H   H537      1.0  0.81073  0.13418  0.03962  1.0000
  C   C315      1.0  0.78453  0.19872  0.21730  1.0000
  C   C316      1.0  0.79528  0.13281  0.05489  1.0000
  H   H538      1.0  0.80679  0.05485  0.15586  1.0000
  H   H539      1.0  0.60324  0.33276  0.25897  1.0000
  C   C317      1.0  0.68979  0.24676  0.02470  1.0000
  C   C318      1.0  0.56070  0.28085  0.25433  1.0000
  H   H540      1.0  0.75391  0.20560  0.17912  1.0000
  H   H541      1.0  0.89268  0.21178  0.01163  1.0000
  H   H542      1.0  0.87390  0.16975  0.16669  1.0000
  C   C319      1.0  0.56990  0.32496  0.26358  1.0000
  H   H543      1.0  0.78498  0.17241  0.26816  1.0000
  C   C320      1.0  0.79347  0.13719  0.19331  1.0000
  C   C321      1.0  0.78338  0.28664  0.16669  1.0000
  C   C322      1.0  0.78643  0.25441  0.07162  1.0000
  H   H544      1.0  0.91682  0.25909  0.13542  1.0000
  C   C323      1.0  0.54815  0.19874  0.22149  1.0000
  C   C324      1.0  0.79377  0.06998  0.17043  1.0000
  C   C325      1.0  0.51179  0.21051  0.12645  1.0000
  C   C326      1.0  0.93013  0.18400  0.18258  1.0000
  H   H545      1.0  0.56373  0.28342  0.23775  1.0000
  H   H546      1.0  0.93998  0.20586  0.19486  1.0000
  H   H547      1.0  0.50156  0.29054  0.11339  1.0000
  H   H548      1.0  0.80962  0.27799  0.15515  1.0000
  H   H549      1.0  0.57775  0.18639  0.19153  1.0000
  C   C327      1.0  0.81219  0.11418  0.17355  1.0000
  Fe  Fe37      1.0  0.66279  0.18995  0.28975  1.0000
  H   H550      1.0  0.75751  0.13691  0.19342  1.0000
  C   C328      1.0  0.88174  0.19135  0.17937  1.0000
  H   H551      1.0  0.82172  0.26860  0.19168  1.0000
  H   H552      1.0  0.76419  0.27234  0.19683  1.0000
  H   H553      1.0  0.54683  0.35076  0.25837  1.0000
  H   H554      1.0  0.79392  0.28712  0.11120  1.0000
  C   C329      1.0  0.79032  0.26087  0.18558  1.0000
  H   H555      1.0  0.70120  0.22548  0.01153  1.0000
  H   H556      1.0  0.80471  0.20308  0.16638  1.0000
  H   H557      1.0  0.67523  0.27766  0.01918  1.0000
  C   C330      1.0  0.82740  0.26294  0.08318  1.0000
  H   H558      1.0  0.80479  0.32862  0.09350  1.0000
  H   H559      1.0  0.83229  0.17402  0.07351  1.0000
  H   H560      1.0  0.78335  0.32183  0.17052  1.0000
  H   H561      1.0  0.88222  0.21511  0.05782  1.0000
  H   H562      1.0  0.84070  0.23350  0.09033  1.0000
  H   H563      1.0  0.85243  0.27494  0.07278  1.0000
  H   H564      1.0  0.84792  0.30402  0.10750  1.0000
  C   C331      1.0  0.81772  0.29787  0.09983  1.0000
  H   H565      1.0  0.55431  0.16402  0.22479  1.0000
  C   C332      1.0  0.57220  0.00786  0.10858  1.0000
  H   H566      1.0  0.79894  0.08981  0.08010  1.0000
  C   C333      1.0  0.78154  0.19471  0.25551  1.0000
  N   N16       1.0  0.80621  0.18280  0.19739  1.0000
  H   H567      1.0  0.66433  0.23088  0.03341  1.0000
  H   H568      1.0  0.94883  0.19095  0.16861  1.0000
  H   H569      1.0  0.75798  0.07336  0.17002  1.0000
  H   H570      1.0  0.57759  0.37740  0.11303  1.0000
  H   H571      1.0  0.81237  0.06376  0.05586  1.0000
  C   C334      1.0  0.90199  0.22181  0.02694  1.0000
  H   H572      1.0  0.93520  0.20765  0.02923  1.0000
  H   H573      1.0  0.77252  0.14175  0.23493  1.0000
  H   H574      1.0  0.96346  0.10827  0.28664  1.0000
  H   H575      1.0  0.71458  0.27980  0.04999  1.0000
  H   H576      1.0  0.75172  0.28031  0.16044  1.0000
  N   N17       1.0  0.79012  0.21679  0.05646  1.0000
  H   H577      1.0  0.80305  0.04820  0.18268  1.0000
  H   H578      1.0  0.54381  0.13808  0.06302  1.0000
  H   H579      1.0  0.75941  0.25016  0.08283  1.0000
  C   C335      1.0  0.95418  0.20022  0.12583  1.0000
  H   H580      1.0  0.58582  0.25697  0.25921  1.0000
  C   C336      1.0  0.55677  0.11094  0.26743  1.0000
  C   C337      1.0  0.72738  0.25605  0.03795  1.0000
  H   H581      1.0  0.74759  0.20862  0.25595  1.0000
  C   C338      1.0  0.49441  0.31300  0.98571  1.0000
  H   H582      1.0  0.52689  0.16683  0.08631  1.0000
  C   C339      1.0  0.51942  0.16224  0.07027  1.0000
  H   H583      1.0  0.56647  0.19114  0.25876  1.0000
  H   H584      1.0  0.79455  0.23154  0.22152  1.0000
  H   H585      1.0  0.98097  0.13706  0.11560  1.0000
  H   H586      1.0  0.52223  0.19358  0.06283  1.0000
  C   C340      1.0  0.54736  0.20198  0.19864  1.0000
  C   C341      1.0  0.97037  0.42318  0.12709  1.0000
  H   H587      1.0  0.49533  0.24853  0.22485  1.0000
  N   N18       1.0  0.50314  0.22354  0.25455  1.0000
  C   C342      1.0  0.50469  0.21731  0.23188  1.0000
  H   H588      1.0  0.54563  0.07759  0.26711  1.0000
  C   C343      1.0  0.53252  0.19080  0.26465  1.0000
  S   S73       1.0  0.64035  0.25985  0.29475  1.0000
  C   C344      1.0  0.51923  0.14336  0.26324  1.0000
  H   H589      1.0  0.54492  0.23646  0.19443  1.0000
  H   H590      1.0  0.51982  0.18523  0.19265  1.0000
  H   H591      1.0  0.56735  0.32452  0.28027  1.0000
  H   H592      1.0  0.50950  0.17484  0.12635  1.0000
  H   H593      1.0  0.51057  0.27329  0.27743  1.0000
  H   H594      1.0  0.97692  0.45646  0.13231  1.0000
  H   H595      1.0  0.49268  0.29353  0.25425  1.0000
  H   H596      1.0  0.49266  0.13898  0.27457  1.0000
  C   C345      1.0  0.51479  0.26850  0.26074  1.0000
  H   H597      1.0  0.50753  0.13517  0.24816  1.0000
  H   H598      1.0  0.50019  0.34352  0.99413  1.0000
  H   H599      1.0  0.96174  0.42357  0.11107  1.0000
  H   H600      1.0  0.94231  0.41269  0.13615  1.0000
  C   C346      1.0  0.51953  0.98943  0.96877  1.0000
  S   S74       1.0  0.92982  0.07158  0.56206  1.0000
  Fe  Fe38      1.0  0.86442  0.42819  0.56678  1.0000
  S   S75       1.0  0.89265  0.39424  0.59296  1.0000
  H   H601      1.0  0.95043  0.04198  0.31888  1.0000
  Fe  Fe39      1.0  0.92679  0.37759  0.53646  1.0000
  S   S76       1.0  0.96115  0.34038  0.56036  1.0000
  S   S77       1.0  0.93507  0.36221  0.50292  1.0000
  Fe  Fe40      1.0  0.89457  0.33226  0.57368  1.0000
  S   S78       1.0  0.86927  0.26935  0.58551  1.0000
  Fe  Fe41      1.0  0.95723  0.40482  0.57773  1.0000
  S   S79       1.0  0.89403  0.00879  0.38692  1.0000
  S   S80       1.0  0.86046  0.36605  0.54890  1.0000
  S   S81       1.0  0.92890  0.44223  0.55258  1.0000
  Fe  Fe42      1.0  0.67036  0.17560  0.33427  1.0000
  S   S82       1.0  0.64722  0.24474  0.34286  1.0000
  S   S83       1.0  0.68834  0.12855  0.35837  1.0000
  Fe  Fe43      1.0  0.69225  0.26205  0.31751  1.0000
  H   H602      1.0  0.88165  0.24735  0.30995  1.0000
  Fe  Fe44      1.0  0.59698  0.23624  0.31953  1.0000
  C   C347      1.0  0.58472  0.17571  0.37908  1.0000
  H   H603      1.0  0.72362  0.47300  0.62727  1.0000
  H   H604      1.0  0.85415  0.11188  0.58560  1.0000
  H   H605      1.0  0.53380  0.08036  0.36659  1.0000
  S   S84       1.0  0.81180  0.43271  0.38652  1.0000
  H   H606      1.0  0.89857  0.02637  0.32800  1.0000
  S   S85       1.0  0.93302  0.44687  0.39267  1.0000
  H   H607      1.0  0.85619  0.43641  0.49999  1.0000
  C   C348      1.0  0.76218  0.34452  0.33641  1.0000
  C   C349      1.0  0.79560  0.37186  0.33211  1.0000
  C   C350      1.0  0.81156  0.39854  0.34728  1.0000
  C   C351      1.0  0.79402  0.39847  0.36698  1.0000
  C   C352      1.0  0.76097  0.37073  0.37135  1.0000
  C   C353      1.0  0.74521  0.34377  0.35619  1.0000
  C   C354      1.0  0.95508  0.47051  0.45897  1.0000
  H   H608      1.0  0.83691  0.41972  0.34366  1.0000
  H   H609      1.0  0.74712  0.37046  0.38652  1.0000
  H   H610      1.0  0.71949  0.32302  0.35974  1.0000
  C   C355      1.0  0.72839  0.08599  0.35272  1.0000
  H   H611      1.0  0.65608  0.22207  0.41177  1.0000
  H   H612      1.0  0.88261  0.01072  0.50690  1.0000
  H   H613      1.0  0.86610  0.24396  0.34719  1.0000
  H   H614      1.0  0.55317  0.04932  0.33275  1.0000
  H   H615      1.0  0.96183  0.24495  0.44835  1.0000
  C   C356      1.0  0.93584  0.43302  0.45280  1.0000
  C   C357      1.0  0.92964  0.40009  0.46648  1.0000
  C   C358      1.0  0.94247  0.40452  0.48635  1.0000
  H   H616      1.0  0.91040  0.35665  0.34830  1.0000
  C   C359      1.0  0.79644  0.40900  0.49354  1.0000
  H   H617      1.0  0.91424  0.37138  0.46175  1.0000
  H   H618      1.0  0.85062  0.45128  0.46404  1.0000
  H   H619      1.0  0.56266  0.09163  0.39517  1.0000
  H   H620      1.0  0.82906  0.16577  0.32520  1.0000
  H   H621      1.0  0.54190  0.06691  0.42873  1.0000
  H   H622      1.0  0.94814  0.18656  0.39694  1.0000
  H   H623      1.0  0.60194  0.14358  0.38077  1.0000
  H   H624      1.0  0.92591  0.19781  0.48742  1.0000
  S   S86       1.0  0.71803  0.19330  0.31032  1.0000
  H   H625      1.0  0.76118  0.41694  0.49375  1.0000
  C   C360      1.0  0.91019  0.12627  0.56760  1.0000
  C   C361      1.0  0.93400  0.15983  0.56006  1.0000
  C   C362      1.0  0.92129  0.20373  0.56488  1.0000
  C   C363      1.0  0.88482  0.21469  0.57758  1.0000
  C   C364      1.0  0.86073  0.18109  0.58491  1.0000
  C   C365      1.0  0.87303  0.13719  0.57981  1.0000
  C   C366      1.0  0.52010  0.09085  0.42133  1.0000
  H   H626      1.0  0.94028  0.22909  0.55917  1.0000
  H   H627      1.0  0.83242  0.18914  0.59471  1.0000
  C   C367      1.0  0.74269  0.07482  0.33290  1.0000
  C   C368      1.0  0.83532  0.06345  0.50427  1.0000
  H   H628      1.0  0.76695  0.47442  0.47365  1.0000
  C   C369      1.0  0.91130  0.34328  0.36357  1.0000
  C   C370      1.0  0.96016  0.04738  0.50612  1.0000
  H   H629      1.0  0.83801  0.45894  0.42822  1.0000
  C   C371      1.0  0.54807  0.10166  0.35542  1.0000
  H   H630      1.0  0.94948  0.00688  0.44069  1.0000
  C   C372      1.0  0.51712  0.15056  0.39598  1.0000
  H   H631      1.0  0.52956  0.46887  0.58791  1.0000
  C   C373      1.0  0.80394  0.36622  0.50401  1.0000
  H   H632      1.0  0.89137  0.36599  0.37403  1.0000
  H   H633      1.0  0.59817  0.18677  0.36454  1.0000
  H   H634      1.0  0.92869  0.07377  0.60680  1.0000
  H   H635      1.0  0.57190  0.13094  0.41438  1.0000
  H   H636      1.0  0.82834  0.05386  0.48860  1.0000
  H   H637      1.0  0.91076  0.12021  0.38521  1.0000
  C   C374      1.0  0.64718  0.19951  0.39957  1.0000
  H   H638      1.0  0.52073  0.23673  0.39112  1.0000
  H   H639      1.0  0.65494  0.16574  0.40410  1.0000
  C   C375      1.0  0.96835  0.99738  0.50542  1.0000
  H   H640      1.0  0.92528  0.18423  0.35121  1.0000
  H   H641      1.0  0.95184  0.09862  0.45954  1.0000
  C   C376      1.0  0.82126  0.44559  0.50347  1.0000
  H   H642      1.0  0.91171  0.01631  0.47421  1.0000
  H   H643      1.0  0.98194  0.13678  0.39549  1.0000
  C   C377      1.0  0.74609  0.06265  0.36849  1.0000
  H   H644      1.0  0.79189  0.01144  0.37687  1.0000
  H   H645      1.0  0.89082  0.12829  0.48985  1.0000
  H   H646      1.0  0.98501  0.38095  0.41609  1.0000
  H   H647      1.0  0.83085  0.09923  0.50610  1.0000
  H   H648      1.0  0.82608  0.10380  0.38392  1.0000
  H   H649      1.0  0.78759  0.34041  0.49595  1.0000
  H   H650      1.0  0.83902  0.35637  0.50398  1.0000
  H   H651      1.0  0.79038  0.36925  0.51973  1.0000
  H   H652      1.0  0.73475  0.07051  0.38384  1.0000
  C   C378      1.0  0.79212  0.01732  0.34476  1.0000
  H   H653      1.0  0.63033  0.47734  0.60355  1.0000
  C   C379      1.0  0.52769  0.14851  0.35862  1.0000
  H   H654      1.0  0.80618  0.05358  0.53403  1.0000
  H   H655      1.0  0.93614  0.33951  0.40126  1.0000
  C   C380      1.0  0.84824  0.25197  0.31667  1.0000
  H   H656      1.0  0.94078  0.31485  0.43252  1.0000
  H   H657      1.0  0.84905  0.15032  0.39553  1.0000
  H   H658      1.0  0.88525  0.06690  0.46971  1.0000
  N   N19       1.0  0.86354  0.15479  0.35246  1.0000
  C   C381      1.0  0.86979  0.10732  0.34636  1.0000
  C   C382      1.0  0.82313  0.16240  0.36592  1.0000
  C   C383      1.0  0.85577  0.17945  0.33356  1.0000
  C   C384      1.0  0.90240  0.17139  0.36253  1.0000
  H   H659      1.0  0.80770  0.40318  0.47759  1.0000
  H   H660      1.0  0.96108  0.21892  0.60375  1.0000
  C   C385      1.0  0.96831  0.47469  0.47877  1.0000
  C   C386      1.0  0.82281  0.13954  0.38623  1.0000
  C   C387      1.0  0.77394  0.04010  0.32893  1.0000
  H   H661      1.0  0.78424  0.03108  0.31355  1.0000
  H   H662      1.0  0.77957  0.13215  0.41222  1.0000
  C   C388      1.0  0.94433  0.18797  0.50065  1.0000
  H   H663      1.0  0.83934  0.09577  0.34049  1.0000
  H   H664      1.0  0.87580  0.08718  0.35956  1.0000
  H   H665      1.0  0.81687  0.19746  0.36996  1.0000
  H   H666      1.0  0.79440  0.15273  0.35773  1.0000
  C   C389      1.0  0.84442  0.22898  0.33657  1.0000
  H   H667      1.0  0.96293  0.15187  0.55070  1.0000
  C   C390      1.0  0.77842  0.02904  0.36457  1.0000
  H   H668      1.0  0.89212  0.19971  0.37278  1.0000
  H   H669      1.0  0.89815  0.12285  0.51600  1.0000
  C   C391      1.0  0.93028  0.13841  0.37459  1.0000
  H   H670      1.0  0.84033  0.28725  0.31936  1.0000
  H   H671      1.0  0.78182  0.44648  0.60211  1.0000
  H   H672      1.0  0.79029  0.44143  0.44084  1.0000
  H   H673      1.0  0.81047  0.23535  0.34250  1.0000
  H   H674      1.0  0.81756  0.44335  0.52013  1.0000
  H   H675      1.0  0.77845  0.18646  0.40313  1.0000
  C   C392      1.0  0.95248  0.06307  0.46116  1.0000
  C   C393      1.0  0.81141  0.46885  0.43945  1.0000
  S   S87       1.0  0.52624  0.26358  0.32298  1.0000
  C   C394      1.0  0.66367  0.46086  0.57514  1.0000
  H   H676      1.0  0.92501  0.19820  0.51465  1.0000
  S   S88       1.0  0.74282  0.31238  0.31649  1.0000
  H   H677      1.0  0.80318  0.00855  0.51614  1.0000
  H   H678      1.0  0.58371  0.10015  0.35645  1.0000
  H   H679      1.0  0.89686  0.31144  0.36319  1.0000
  H   H680      1.0  0.80892  0.37279  0.31687  1.0000
  H   H681      1.0  0.94868  0.28699  0.39063  1.0000
  H   H682      1.0  0.65636  0.45318  0.55929  1.0000
  N   N20       1.0  0.91844  0.06509  0.49767  1.0000
  Fe  Fe45      1.0  0.96000  0.48353  0.36709  1.0000
  C   C395      1.0  0.91338  0.11393  0.50078  1.0000
  C   C396      1.0  0.88169  0.04638  0.50936  1.0000
  H   H683      1.0  0.98736  0.17517  0.37605  1.0000
  C   C397      1.0  0.96066  0.32007  0.39141  1.0000
  H   H684      1.0  0.59946  0.44950  0.58555  1.0000
  H   H685      1.0  0.88511  0.05216  0.52581  1.0000
  H   H686      1.0  0.51018  0.42211  0.55930  1.0000
  C   C398      1.0  0.95802  0.33855  0.37003  1.0000
  C   C399      1.0  0.78065  0.15155  0.39850  1.0000
  C   C400      1.0  0.94746  0.04280  0.44018  1.0000
  C   C401      1.0  0.91522  0.05174  0.47580  1.0000
  H   H687      1.0  0.76856  0.05715  0.51417  1.0000
  H   H688      1.0  0.97129  0.37079  0.36936  1.0000
  C   C402      1.0  0.92430  0.04871  0.33069  1.0000
  H   H689      1.0  0.93640  0.02844  0.62197  1.0000
  C   C403      1.0  0.96162  0.44201  0.49250  1.0000
  H   H690      1.0  0.92526  0.42964  0.43761  1.0000
  H   H691      1.0  0.72900  0.09227  0.32061  1.0000
  H   H692      1.0  0.94836  0.11410  0.36430  1.0000
  C   C404      1.0  0.95511  0.13898  0.49993  1.0000
  H   H693      1.0  0.75218  0.14501  0.38965  1.0000
  C   C405      1.0  0.85967  0.06927  0.63360  1.0000
  C   C406      1.0  0.80136  0.04444  0.51804  1.0000
  H   H694      1.0  0.53873  0.16744  0.34563  1.0000
  H   H695      1.0  0.55210  0.10249  0.32259  1.0000
  C   C407      1.0  0.54629  0.11556  0.40613  1.0000
  C   C408      1.0  0.53838  0.08297  0.33467  1.0000
  H   H696      1.0  0.89304  0.10041  0.31479  1.0000
  H   H697      1.0  0.59351  0.24110  0.39126  1.0000
  H   H698      1.0  0.98447  0.05088  0.46619  1.0000
  H   H699      1.0  0.88484  0.17561  0.32313  1.0000
  N   N21       1.0  0.53657  0.17221  0.37803  1.0000
  H   H700      1.0  0.93812  0.04242  0.34552  1.0000
  C   C409      1.0  0.97465  0.30832  0.43685  1.0000
  C   C410      1.0  0.96385  0.16095  0.38650  1.0000
  H   H701      1.0  0.97461  0.13146  0.51315  1.0000
  H   H702      1.0  0.67937  0.43143  0.58156  1.0000
  C   C411      1.0  0.76556  0.47825  0.60085  1.0000
  S   S89       1.0  0.61687  0.16608  0.31323  1.0000
  C   C412      1.0  0.59905  0.20703  0.39584  1.0000
  S   S90       1.0  0.81404  0.48477  0.56521  1.0000
  H   H703      1.0  0.49513  0.07309  0.41369  1.0000
  H   H704      1.0  0.66688  0.20567  0.38577  1.0000
  Fe  Fe46      1.0  0.90629  0.00427  0.56824  1.0000
  H   H705      1.0  0.95463  0.20933  0.63015  1.0000
  C   C413      1.0  0.62221  0.47522  0.58746  1.0000
  H   H706      1.0  0.73452  0.45949  0.51908  1.0000
  C   C414      1.0  0.90621  0.09568  0.32989  1.0000
  H   H707      1.0  0.50416  0.11346  0.43312  1.0000
  C   C415      1.0  0.51562  0.21764  0.37708  1.0000
  H   H708      1.0  0.96148  0.05853  0.52212  1.0000
  H   H709      1.0  0.97373  0.05228  0.42970  1.0000
  H   H710      1.0  0.82511  0.23967  0.30592  1.0000
  H   H711      1.0  0.91592  0.05385  0.43414  1.0000
  H   H712      1.0  0.85026  0.07800  0.61827  1.0000
  H   H713      1.0  0.97559  0.13044  0.48620  1.0000
  H   H714      1.0  0.97467  0.20510  0.50053  1.0000
  H   H715      1.0  0.58044  0.20345  0.41020  1.0000
  H   H716      1.0  0.93358  0.11672  0.33123  1.0000
  H   H717      1.0  0.97657  0.31686  0.35869  1.0000
  Fe  Fe47      1.0  0.86851  0.47614  0.38414  1.0000
  H   H718      1.0  0.53113  0.23517  0.36462  1.0000
  H   H719      1.0  0.97216  0.44537  0.50772  1.0000
  C   C416      1.0  0.97462  0.27579  0.45362  1.0000
  H   H720      1.0  0.56308  0.47671  0.55184  1.0000
  H   H721      1.0  0.94447  0.42082  0.63236  1.0000
  H   H722      1.0  0.49242  0.14578  0.35720  1.0000
  C   C417      1.0  0.83059  0.47992  0.45956  1.0000
  H   H723      1.0  0.95375  0.28942  0.46660  1.0000
  H   H724      1.0  0.98858  0.06048  0.49844  1.0000
  H   H725      1.0  0.98621  0.33870  0.44330  1.0000
  C   C418      1.0  0.93890  0.06410  0.62194  1.0000
  H   H726      1.0  0.50294  0.08228  0.33303  1.0000
  C   C419      1.0  0.50038  0.45226  0.55158  1.0000
  H   H727      1.0  0.50676  0.17501  0.40820  1.0000
  H   H728      1.0  0.93575  0.14644  0.60904  1.0000
  C   C420      1.0  0.97391  0.19932  0.61613  1.0000
  C   C421      1.0  0.97031  0.15120  0.61110  1.0000
  H   H729      1.0  0.89320  0.48396  0.62589  1.0000
  H   H730      1.0  0.50288  0.44518  0.53509  1.0000
  Fe  Fe48      1.0  0.96352  0.98615  0.37979  1.0000
  H   H731      1.0  0.50143  0.17419  0.31526  1.0000
  C   C422      1.0  0.98858  0.12277  0.62796  1.0000
  H   H732      1.0  0.98840  0.14344  0.59656  1.0000
  N   N22       1.0  0.98496  0.07463  0.62507  1.0000
  H   H733      1.0  0.98627  0.99554  0.60033  1.0000
  H   H734      1.0  0.53454  0.32251  0.88937  1.0000
  S   S91       1.0  0.49740  0.45339  0.92764  1.0000
  H   H735      1.0  0.59917  0.46439  0.79334  1.0000
  H   H736      1.0  0.52471  0.26413  0.91309  1.0000
  H   H737      1.0  0.57361  0.43963  0.89899  1.0000
  H   H738      1.0  0.50312  0.22428  0.86923  1.0000
  H   H739      1.0  0.61963  0.41852  0.88345  1.0000
  H   H740      1.0  0.53570  0.29980  0.93388  1.0000
  H   H741      1.0  0.97272  0.13484  0.64257  1.0000
  H   H742      1.0  0.93634  0.43208  0.65914  1.0000
  H   H743      1.0  0.54656  0.45721  0.78396  1.0000
  H   H744      1.0  0.83540  0.08525  0.64466  1.0000
  C   C423      1.0  0.54619  0.32563  0.90485  1.0000
  H   H745      1.0  0.58096  0.31437  0.90443  1.0000
  H   H746      1.0  0.91212  0.07438  0.65315  1.0000
  H   H747      1.0  0.59390  0.44714  0.76738  1.0000
  C   C424      1.0  0.52069  0.29806  0.91909  1.0000
  H   H748      1.0  0.54295  0.36026  0.91002  1.0000
  C   C425      1.0  0.59455  0.44576  0.88561  1.0000
  C   C426      1.0  0.90954  0.48293  0.64039  1.0000
  H   H749      1.0  0.57484  0.44673  0.87210  1.0000
  C   C427      1.0  0.90449  0.08418  0.63777  1.0000
  H   H750      1.0  0.98188  0.06736  0.65730  1.0000
  H   H751      1.0  0.89193  0.41697  0.64439  1.0000
  C   C428      1.0  0.57911  0.46819  0.78001  1.0000
  H   H752      1.0  0.50893  0.02697  0.94172  1.0000
  S   S92       1.0  0.54556  0.47559  0.83273  1.0000
  H   H753      1.0  0.90233  0.12006  0.63756  1.0000
  C   C429      1.0  0.92146  0.43536  0.64434  1.0000
  H   H754      1.0  0.49268  0.34456  0.95757  1.0000
  H   H755      1.0  0.49177  0.25987  0.95295  1.0000
  H   H756      1.0  0.85913  0.03364  0.63498  1.0000
  H   H757      1.0  0.55089  0.96529  0.00509  1.0000
  C   C430      1.0  0.80896  0.88558  0.27814  1.0000
  C   C431      1.0  0.49796  0.54740  0.00033  1.0000
  H   H758      1.0  0.83991  0.87020  0.27150  1.0000
  H   H759      1.0  0.80681  0.92030  0.27432  1.0000
  H   H760      1.0  0.57473  0.90757  0.02714  1.0000
  H   H761      1.0  0.61976  0.92248  0.01154  1.0000
  H   H762      1.0  0.59387  0.87287  0.00595  1.0000
  C   C432      1.0  0.55691  0.93204  0.99828  1.0000
  C   C433      1.0  0.58842  0.90715  0.01144  1.0000
  H   H763      1.0  0.52579  0.91635  0.99890  1.0000
  H   H764      1.0  0.51446  0.51445  0.99861  1.0000
  H   H765      1.0  0.83057  0.81448  0.29657  1.0000
  H   H766      1.0  0.51982  0.57095  0.99398  1.0000
  H   H767      1.0  0.49171  0.55526  0.01664  1.0000
  H   H768      1.0  0.78149  0.86982  0.27150  1.0000
  H   H769      1.0  0.49574  0.68831  0.08169  1.0000
  H   H770      1.0  0.49902  0.98406  0.98249  1.0000
  H   H771      1.0  0.53309  0.96093  0.09464  1.0000
  H   H772      1.0  0.60135  0.95756  0.97657  1.0000
  C   C434      1.0  0.80718  0.88197  0.30098  1.0000
  H   H773      1.0  0.53298  0.85860  0.97569  1.0000
  C   C435      1.0  0.57548  0.93426  0.97631  1.0000
  H   H774      1.0  0.59275  0.90256  0.97211  1.0000
  S   S93       1.0  0.52859  0.98447  0.05251  1.0000
  H   H775      1.0  0.90541  0.63942  0.43786  1.0000
  C   C436      1.0  0.94093  0.77283  0.46234  1.0000
  Fe  Fe49      1.0  0.84244  0.93459  0.57822  1.0000
  S   S94       1.0  0.89231  0.87926  0.57238  1.0000
  S   S95       1.0  0.77470  0.92435  0.59084  1.0000
  Fe  Fe50      1.0  0.93583  0.92059  0.58944  1.0000
  H   H776      1.0  0.54793  0.66210  0.56753  1.0000
  Fe  Fe51      1.0  0.91246  0.91622  0.54544  1.0000
  S   S96       1.0  0.93650  0.88337  0.51585  1.0000
  H   H777      1.0  0.77676  0.89977  0.30694  1.0000
  H   H778      1.0  0.82967  0.85891  0.44282  1.0000
  Fe  Fe52      1.0  0.56013  0.67845  0.61902  1.0000
  Fe  Fe53      1.0  0.65290  0.70965  0.61429  1.0000
  C   C437      1.0  0.81126  0.77999  0.33354  1.0000
  S   S97       1.0  0.70631  0.73505  0.59451  1.0000
  C   C438      1.0  0.93722  0.64400  0.43024  1.0000
  H   H779      1.0  0.76161  0.87886  0.39300  1.0000
  S   S98       1.0  0.62087  0.65230  0.60158  1.0000
  S   S99       1.0  0.97243  0.89380  0.61550  1.0000
  C   C439      1.0  0.84809  0.87579  0.62944  1.0000
  S   S100      1.0  0.87127  0.90657  0.38567  1.0000
  C   C440      1.0  0.55374  0.53129  0.61036  1.0000
  C   C441      1.0  0.54208  0.63675  0.55595  1.0000
  S   S101      1.0  0.94795  0.93929  0.35495  1.0000
  H   H780      1.0  0.75296  0.85221  0.33682  1.0000
  H   H781      1.0  0.91104  0.53628  0.56870  1.0000
  Fe  Fe54      1.0  0.94166  0.88943  0.37894  1.0000
  S   S102      1.0  0.96930  0.81871  0.37617  1.0000
  Fe  Fe55      1.0  0.87836  0.95927  0.36368  1.0000
  S   S103      1.0  0.85937  0.96912  0.54979  1.0000
  H   H782      1.0  0.78316  0.52766  0.47290  1.0000
  C   C442      1.0  0.94330  0.76897  0.37611  1.0000
  C   C443      1.0  0.96880  0.72957  0.37396  1.0000
  C   C444      1.0  0.94981  0.68934  0.37395  1.0000
  C   C445      1.0  0.90485  0.68794  0.37578  1.0000
  H   H783      1.0  0.87846  0.79736  0.38085  1.0000
  S   S104      1.0  0.88490  0.97437  0.59704  1.0000
  H   H784      1.0  0.88656  0.73357  0.47108  1.0000
  H   H785      1.0  0.59808  0.59724  0.56317  1.0000
  C   C446      1.0  0.78653  0.85531  0.34179  1.0000
  H   H786      1.0  0.96991  0.65940  0.37216  1.0000
  H   H787      1.0  0.78451  0.51287  0.52721  1.0000
  H   H788      1.0  0.92104  0.72556  0.41605  1.0000
  H   H789      1.0  0.76821  0.54757  0.50772  1.0000
  C   C447      1.0  0.69727  0.51895  0.52602  1.0000
  C   C448      1.0  0.72216  0.56007  0.59747  1.0000
  H   H790      1.0  0.96691  0.71919  0.61428  1.0000
  C   C449      1.0  0.91354  0.90443  0.49423  1.0000
  C   C450      1.0  0.93727  0.90048  0.47580  1.0000
  C   C451      1.0  0.92018  0.91846  0.45849  1.0000
  H   H791      1.0  0.94947  0.79675  0.33336  1.0000
  H   H792      1.0  0.85078  0.91115  0.63186  1.0000
  C   C452      1.0  0.87229  0.92564  0.49521  1.0000
  H   H793      1.0  0.98704  0.68834  0.42966  1.0000
  C   C453      1.0  0.79507  0.49388  0.47605  1.0000
  S   S105      1.0  0.87875  0.63833  0.37485  1.0000
  H   H794      1.0  0.93351  0.64354  0.41372  1.0000
  C   C454      1.0  0.75569  0.87167  0.59179  1.0000
  C   C455      1.0  0.71645  0.86542  0.60232  1.0000
  C   C456      1.0  0.70073  0.82378  0.60340  1.0000
  C   C457      1.0  0.72409  0.78815  0.59383  1.0000
  C   C458      1.0  0.76315  0.79447  0.58326  1.0000
  C   C459      1.0  0.77895  0.83592  0.58229  1.0000
  H   H795      1.0  0.70904  0.52224  0.54150  1.0000
  H   H796      1.0  0.57846  0.55179  0.61671  1.0000
  H   H797      1.0  0.78126  0.76714  0.57568  1.0000
  H   H798      1.0  0.80880  0.84027  0.57391  1.0000
  H   H799      1.0  0.82800  0.69405  0.34338  1.0000
  S   S106      1.0  0.83114  0.97382  0.33943  1.0000
  C   C460      1.0  0.89954  0.55426  0.58279  1.0000
  C   C461      1.0  0.75462  0.54473  0.58311  1.0000
  H   H800      1.0  0.69811  0.89295  0.60961  1.0000
  C   C462      1.0  0.87935  0.72737  0.37809  1.0000
  C   C463      1.0  0.54272  0.57725  0.58150  1.0000
  H   H801      1.0  0.79299  0.88995  0.33999  1.0000
  H   H802      1.0  0.84214  0.54803  0.52931  1.0000
  C   C464      1.0  0.91110  0.76172  0.49766  1.0000
  H   H803      1.0  0.91335  0.81425  0.41746  1.0000
  C   C465      1.0  0.80804  0.83395  0.30718  1.0000
  C   C466      1.0  0.89842  0.76755  0.37851  1.0000
  C   C467      1.0  0.90470  0.80512  0.43312  1.0000
  H   H804      1.0  0.93521  0.73432  0.49987  1.0000
  C   C468      1.0  0.90834  0.54624  0.51950  1.0000
  C   C469      1.0  0.84094  0.74437  0.32208  1.0000
  C   C470      1.0  0.82720  0.69922  0.32696  1.0000
  H   H805      1.0  0.93419  0.52323  0.51274  1.0000
  H   H806      1.0  0.83601  0.85110  0.41580  1.0000
  H   H807      1.0  0.96945  0.88467  0.47509  1.0000
  H   H808      1.0  0.84004  0.74733  0.30557  1.0000
  C   C471      1.0  0.92397  0.72594  0.43266  1.0000
  C   C472      1.0  0.87905  0.94005  0.45952  1.0000
  H   H809      1.0  0.70562  0.59161  0.59602  1.0000
  N   N23       1.0  0.55641  0.53179  0.58765  1.0000
  H   H810      1.0  0.56009  0.56984  0.54879  1.0000
  H   H811      1.0  0.82326  0.96009  0.47878  1.0000
  H   H812      1.0  0.93905  0.91617  0.44447  1.0000
  Fe  Fe56      1.0  0.63896  0.62021  0.62991  1.0000
  C   C473      1.0  0.52608  0.49966  0.57977  1.0000
  C   C474      1.0  0.90038  0.76435  0.47552  1.0000
  H   H813      1.0  0.71678  0.48862  0.49737  1.0000
  H   H814      1.0  0.91140  0.60226  0.61710  1.0000
  H   H815      1.0  0.90651  0.83520  0.44259  1.0000
  C   C475      1.0  0.78557  0.84745  0.36467  1.0000
  H   H816      1.0  0.91718  0.55498  0.53498  1.0000
  C   C476      1.0  0.60295  0.51994  0.58096  1.0000
  H   H817      1.0  0.84495  0.77899  0.44623  1.0000
  H   H818      1.0  0.60764  0.52081  0.56438  1.0000
  S   S107      1.0  0.97144  0.54306  0.38613  1.0000
  H   H819      1.0  0.85348  0.92819  0.50928  1.0000
  S   S108      1.0  0.96385  0.93473  0.40313  1.0000
  H   H820      1.0  0.81661  0.77419  0.34966  1.0000
  H   H821      1.0  0.94959  0.80572  0.46715  1.0000
  H   H822      1.0  0.82948  0.72720  0.62913  1.0000
  S   S109      1.0  0.85740  0.96490  0.43845  1.0000
  C   C477      1.0  0.82712  0.83546  0.42999  1.0000
  H   H823      1.0  0.87481  0.81955  0.34674  1.0000
  H   H824      1.0  0.50686  0.58176  0.58091  1.0000
  H   H825      1.0  0.76271  0.56463  0.57063  1.0000
  H   H826      1.0  0.77698  0.77326  0.33109  1.0000
  H   H827      1.0  0.95010  0.85514  0.33362  1.0000
  H   H828      1.0  0.81868  0.84314  0.37012  1.0000
  H   H829      1.0  0.76861  0.81780  0.36794  1.0000
  C   C478      1.0  0.91486  0.56685  0.61947  1.0000
  H   H830      1.0  0.88126  0.55728  0.62244  1.0000
  H   H831      1.0  0.84230  0.55012  0.49233  1.0000
  C   C479      1.0  0.79505  0.67064  0.63379  1.0000
  H   H832      1.0  0.88129  0.75669  0.50688  1.0000
  S   S110      1.0  0.89478  0.51048  0.35755  1.0000
  C   C480      1.0  0.73045  0.49182  0.51241  1.0000
  H   H833      1.0  0.97774  0.79782  0.53221  1.0000
  H   H834      1.0  0.55100  0.60150  0.59315  1.0000
  H   H835      1.0  0.89150  0.71906  0.43879  1.0000
  C   C481      1.0  0.84870  0.51767  0.49882  1.0000
  C   C482      1.0  0.93189  0.54536  0.59903  1.0000
  C   C483      1.0  0.50937  0.54721  0.62064  1.0000
  C   C484      1.0  0.76125  0.88515  0.37668  1.0000
  H   H836      1.0  0.95997  0.61626  0.43372  1.0000
  N   N24       1.0  0.93667  0.76994  0.43985  1.0000
  C   C485      1.0  0.86511  0.52542  0.52023  1.0000
  H   H837      1.0  0.90635  0.57609  0.51068  1.0000
  H   H838      1.0  0.83450  0.89877  0.30709  1.0000
  N   N25       1.0  0.81850  0.82643  0.32878  1.0000
  H   H839      1.0  0.72712  0.88894  0.37227  1.0000
  Fe  Fe57      1.0  0.90402  0.56746  0.37892  1.0000
  S   S111      1.0  0.66719  0.55091  0.63059  1.0000
  C   C486      1.0  0.85512  0.94344  0.47790  1.0000
  C   C487      1.0  0.71051  0.53413  0.61335  1.0000
  H   H840      1.0  0.98387  0.50333  0.48348  1.0000
  H   H841      1.0  0.89599  0.58939  0.57983  1.0000
  S   S112      1.0  0.96055  0.95272  0.56207  1.0000
  H   H842      1.0  0.77677  0.91595  0.37408  1.0000
  C   C488      1.0  0.85650  0.79456  0.43252  1.0000
  H   H843      1.0  0.51894  0.51680  0.54838  1.0000
  H   H844      1.0  0.82444  0.64887  0.63016  1.0000
  S   S113      1.0  0.87202  0.53492  0.40486  1.0000
  H   H845      1.0  0.84006  0.86972  0.61356  1.0000
  H   H846      1.0  0.87565  0.79173  0.47453  1.0000
  H   H847      1.0  0.62401  0.54477  0.58696  1.0000
  H   H848      1.0  0.67040  0.81937  0.61143  1.0000
  H   H849      1.0  0.87996  0.85888  0.63208  1.0000
  Fe  Fe58      1.0  0.89344  0.95442  0.40835  1.0000
  H   H850      1.0  0.79299  0.82696  0.42941  1.0000
  H   H851      1.0  0.55633  0.64645  0.54135  1.0000
  H   H852      1.0  0.86492  0.87214  0.33807  1.0000
  C   C489      1.0  0.77425  0.51289  0.51144  1.0000
  H   H853      1.0  0.69103  0.55172  0.51999  1.0000
  C   C490      1.0  0.95492  0.68652  0.43744  1.0000
  Fe  Fe59      1.0  0.93865  0.50797  0.41100  1.0000
  H   H854      1.0  0.85215  0.77202  0.41953  1.0000
  C   C491      1.0  0.94471  0.82593  0.32423  1.0000
  C   C492      1.0  0.56310  0.59298  0.56154  1.0000
  H   H855      1.0  0.92402  0.79240  0.50306  1.0000
  C   C493      1.0  0.86395  0.83728  0.33342  1.0000
  H   H856      1.0  0.84459  0.72671  0.37980  1.0000
  H   H857      1.0  0.85236  0.50658  0.45715  1.0000
  C   C494      1.0  0.98048  0.77680  0.43008  1.0000
  H   H858      1.0  0.66636  0.50287  0.52681  1.0000
  H   H859      1.0  0.95909  0.68471  0.45385  1.0000
  H   H860      1.0  0.79491  0.80862  0.62402  1.0000
  H   H861      1.0  0.87468  0.74599  0.32685  1.0000
  H   H862      1.0  0.98307  0.67226  0.54613  1.0000
  H   H863      1.0  0.50180  0.58199  0.61792  1.0000
  H   H864      1.0  0.86923  0.49445  0.52804  1.0000
  N   N26       1.0  0.80943  0.49146  0.49739  1.0000
  S   S114      1.0  0.59071  0.73919  0.62906  1.0000
  H   H865      1.0  0.79411  0.69471  0.32191  1.0000
  H   H866      1.0  0.97434  0.84753  0.42567  1.0000
  H   H867      1.0  0.97803  0.60094  0.52863  1.0000
  H   H868      1.0  0.50668  0.63503  0.55458  1.0000
  H   H869      1.0  0.96919  0.82331  0.31152  1.0000
  C   C495      1.0  0.77624  0.50370  0.58465  1.0000
  H   H870      1.0  0.52774  0.81824  0.61816  1.0000
  S   S115      1.0  0.96294  0.51286  0.44246  1.0000
  S   S116      1.0  0.49418  0.68114  0.60473  1.0000
  H   H871      1.0  0.96270  0.55857  0.59398  1.0000
  H   H872      1.0  0.96830  0.75072  0.46684  1.0000
  C   C496      1.0  0.89933  0.82883  0.31618  1.0000
  C   C497      1.0  0.73252  0.49331  0.61506  1.0000
  H   H873      1.0  0.86748  0.54298  0.58737  1.0000
  H   H874      1.0  0.98062  0.76870  0.41367  1.0000
  H   H875      1.0  0.79255  0.49740  0.43385  1.0000
  H   H876      1.0  0.89749  0.85571  0.30556  1.0000
  H   H877      1.0  0.93724  0.50970  0.59985  1.0000
  H   H878      1.0  0.89598  0.79851  0.30736  1.0000
  C   C498      1.0  0.98503  0.57694  0.63392  1.0000
  H   H879      1.0  0.87652  0.50163  0.48967  1.0000
  H   H880      1.0  0.56165  0.49806  0.61562  1.0000
  H   H881      1.0  0.97299  0.49493  0.62759  1.0000
  H   H882      1.0  0.98026  0.61181  0.63044  1.0000
  H   H883      1.0  0.77623  0.67356  0.61999  1.0000
  H   H884      1.0  0.84988  0.67420  0.31916  1.0000
  H   H885      1.0  0.49799  0.78375  0.60208  1.0000
  C   C499      1.0  0.49654  0.81506  0.61084  1.0000
  H   H886      1.0  0.96608  0.98370  0.48995  1.0000
  H   H887      1.0  0.94480  0.98249  0.51560  1.0000
  H   H888      1.0  0.75128  0.75060  0.63081  1.0000
  C   C500      1.0  0.52972  0.48829  0.55694  1.0000
  H   H889      1.0  0.77568  0.82226  0.30409  1.0000
  H   H890      1.0  0.68675  0.48666  0.57541  1.0000
  H   H891      1.0  0.49202  0.84178  0.60025  1.0000
  H   H892      1.0  0.49188  0.51185  0.58301  1.0000
  Fe  Fe60      1.0  0.66949  0.69503  0.82575  1.0000
  S   S117      1.0  0.65300  0.74238  0.80197  1.0000
  S   S118      1.0  0.61094  0.66509  0.83990  1.0000
  Fe  Fe61      1.0  0.76535  0.71832  0.82498  1.0000
  S   S119      1.0  0.75385  0.76841  0.80180  1.0000
  S   S120      1.0  0.83227  0.69338  0.83492  1.0000
  Fe  Fe62      1.0  0.69137  0.78782  0.81963  1.0000
  S   S121      1.0  0.66201  0.85719  0.82290  1.0000
  Fe  Fe63      1.0  0.71601  0.71857  0.78653  1.0000
  S   S122      1.0  0.73142  0.69794  0.75397  1.0000
  S   S123      1.0  0.70569  0.74169  0.84427  1.0000
  S   S124      1.0  0.72963  0.66719  0.80885  1.0000
  C   C501      1.0  0.50996  0.91394  0.95807  1.0000
  H   H893      1.0  0.82628  0.71053  0.65488  1.0000
  H   H894      1.0  0.60222  0.63484  0.69673  1.0000
  H   H895      1.0  0.62266  0.81300  0.66681  1.0000
  S   S125      1.0  0.59638  0.73195  0.68663  1.0000
  C   C502      1.0  0.69352  0.70803  0.73551  1.0000
  C   C503      1.0  0.65457  0.73244  0.73994  1.0000
  C   C504      1.0  0.62500  0.73967  0.72479  1.0000
  C   C505      1.0  0.63426  0.72253  0.70520  1.0000
  C   C506      1.0  0.67319  0.69803  0.70080  1.0000
  C   C507      1.0  0.70275  0.69086  0.71593  1.0000
  H   H896      1.0  0.64737  0.74602  0.75498  1.0000
  H   H897      1.0  0.59496  0.75874  0.72826  1.0000
  H   H898      1.0  0.68046  0.68444  0.68581  1.0000
  H   H899      1.0  0.73279  0.67180  0.71247  1.0000
  C   C508      1.0  0.88349  0.71614  0.83222  1.0000
  C   C509      1.0  0.92137  0.68992  0.83530  1.0000
  H   H900      1.0  0.93160  0.56327  0.66977  1.0000
  H   H901      1.0  0.54292  0.96620  0.92993  1.0000
  C   C510      1.0  0.92858  0.77660  0.82673  1.0000
  C   C511      1.0  0.88743  0.75959  0.82773  1.0000
  H   H902      1.0  0.91876  0.65638  0.83894  1.0000
  S   S126      1.0  0.51510  0.92644  0.88815  1.0000
  H   H903      1.0  0.93103  0.81046  0.82365  1.0000
  H   H904      1.0  0.85870  0.78035  0.82553  1.0000
  C   C512      1.0  0.61115  0.85152  0.85798  1.0000
  C   C513      1.0  0.61984  0.87469  0.84074  1.0000
  H   H905      1.0  0.84708  0.71937  0.76187  1.0000
  C   C514      1.0  0.54549  0.77695  0.82962  1.0000
  H   H906      1.0  0.62997  0.82162  0.86044  1.0000
  H   H907      1.0  0.83087  0.77620  0.76093  1.0000
  C   C515      1.0  0.59296  0.61296  0.83524  1.0000
  C   C516      1.0  0.54976  0.60598  0.84044  1.0000
  H   H908      1.0  0.52787  0.63299  0.84578  1.0000
  C   C517      1.0  0.70127  0.62451  0.87817  1.0000
  H   H909      1.0  0.71374  0.65699  0.88067  1.0000
  C   C518      1.0  0.79889  0.76023  0.70946  1.0000
  H   H910      1.0  0.69724  0.61946  0.86176  1.0000
  H   H911      1.0  0.50732  0.57251  0.90486  1.0000
  H   H912      1.0  0.50160  0.55925  0.84371  1.0000
  H   H913      1.0  0.74465  0.73007  0.65504  1.0000
  H   H914      1.0  0.55672  0.53433  0.78650  1.0000
  C   C519      1.0  0.58976  0.60798  0.77433  1.0000
  H   H915      1.0  0.60629  0.66964  0.76064  1.0000
  H   H916      1.0  0.67483  0.59526  0.77892  1.0000
  C   C520      1.0  0.74609  0.58119  0.75165  1.0000
  H   H917      1.0  0.54824  0.54456  0.93281  1.0000
  C   C521      1.0  0.62097  0.57788  0.82824  1.0000
  H   H918      1.0  0.53589  0.74311  0.83056  1.0000
  H   H919      1.0  0.80600  0.79273  0.71553  1.0000
  N   N27       1.0  0.59899  0.56914  0.89889  1.0000
  C   C522      1.0  0.56574  0.60619  0.89630  1.0000
  H   H920      1.0  0.97818  0.64159  0.77036  1.0000
  H   H921      1.0  0.64284  0.62743  0.72752  1.0000
  N   N28       1.0  0.94213  0.55752  0.63726  1.0000
  H   H922      1.0  0.62560  0.58048  0.69859  1.0000
  H   H923      1.0  0.63951  0.90509  0.90521  1.0000
  H   H924      1.0  0.80016  0.82117  0.68065  1.0000
  H   H925      1.0  0.61006  0.59951  0.92777  1.0000
  H   H926      1.0  0.84809  0.75410  0.78421  1.0000
  C   C523      1.0  0.52598  0.86557  0.95987  1.0000
  H   H927      1.0  0.57284  0.84988  0.88574  1.0000
  H   H928      1.0  0.66292  0.62852  0.90601  1.0000
  C   C524      1.0  0.66651  0.59174  0.76284  1.0000
  C   C525      1.0  0.70251  0.56099  0.75210  1.0000
  H   H929      1.0  0.52433  0.61002  0.92379  1.0000
  H   H930      1.0  0.55418  0.51789  0.89987  1.0000
  C   C526      1.0  0.56306  0.52879  0.83310  1.0000
  H   H931      1.0  0.69303  0.77494  0.67303  1.0000
  H   H932      1.0  0.49710  0.70626  0.65699  1.0000
  H   H933      1.0  0.88724  0.67904  0.67839  1.0000
  C   C527      1.0  0.60704  0.57434  0.74015  1.0000
  H   H934      1.0  0.49524  0.91772  0.94319  1.0000
  C   C528      1.0  0.90039  0.76219  0.76198  1.0000
  C   C529      1.0  0.77208  0.76428  0.69078  1.0000
  C   C530      1.0  0.91795  0.57693  0.65595  1.0000
  H   H935      1.0  0.82978  0.77302  0.67219  1.0000
  C   C531      1.0  0.85387  0.75224  0.76760  1.0000
  C   C532      1.0  0.62206  0.93334  0.91339  1.0000
  C   C533      1.0  0.76749  0.74689  0.64531  1.0000
  H   H936      1.0  0.92320  0.69729  0.76829  1.0000
  H   H937      1.0  0.89941  0.62895  0.69065  1.0000
  H   H938      1.0  0.74559  0.60858  0.74131  1.0000
  H   H939      1.0  0.56829  0.59276  0.70420  1.0000
  C   C534      1.0  0.80792  0.71512  0.64111  1.0000
  H   H940      1.0  0.94586  0.67700  0.73784  1.0000
  H   H941      1.0  0.77520  0.65566  0.64561  1.0000
  H   H942      1.0  0.57365  0.52281  0.96563  1.0000
  C   C535      1.0  0.58337  0.53787  0.93427  1.0000
  H   H943      1.0  0.90417  0.79605  0.76725  1.0000
  H   H944      1.0  0.90455  0.75986  0.74535  1.0000
  C   C536      1.0  0.93301  0.73031  0.77193  1.0000
  H   H945      1.0  0.64500  0.55316  0.92165  1.0000
  H   H946      1.0  0.83881  0.79445  0.63941  1.0000
  H   H947      1.0  0.82968  0.74056  0.70591  1.0000
  C   C537      1.0  0.63878  0.57789  0.88612  1.0000
  H   H948      1.0  0.56939  0.53274  0.87552  1.0000
  H   H949      1.0  0.75389  0.59307  0.76692  1.0000
  H   H950      1.0  0.65444  0.58288  0.82437  1.0000
  H   H951      1.0  0.57273  0.56633  0.73980  1.0000
  C   C538      1.0  0.57882  0.86767  0.87231  1.0000
  H   H952      1.0  0.62541  0.54679  0.73181  1.0000
  C   C539      1.0  0.65793  0.62239  0.88979  1.0000
  H   H953      1.0  0.63619  0.64900  0.88431  1.0000
  C   C540      1.0  0.53488  0.56415  0.83945  1.0000
  H   H954      1.0  0.57762  0.63733  0.90179  1.0000
  C   C541      1.0  0.58224  0.52770  0.89068  1.0000
  C   C542      1.0  0.55453  0.90680  0.86944  1.0000
  H   H955      1.0  0.97375  0.80407  0.76341  1.0000
  H   H956      1.0  0.55582  0.85677  0.95061  1.0000
  H   H957      1.0  0.96727  0.50317  0.65383  1.0000
  C   C543      1.0  0.65284  0.82997  0.66471  1.0000
  N   N29       1.0  0.77540  0.79107  0.65414  1.0000
  N   N30       1.0  0.62096  0.57768  0.76160  1.0000
  C   C544      1.0  0.73354  0.81939  0.65605  1.0000
  H   H958      1.0  0.58922  0.59829  0.79031  1.0000
  C   C545      1.0  0.59538  0.91372  0.83787  1.0000
  H   H959      1.0  0.56043  0.60999  0.88003  1.0000
  H   H960      1.0  0.74132  0.78282  0.69552  1.0000
  H   H961      1.0  0.58578  0.64085  0.73300  1.0000
  C   C546      1.0  0.56268  0.92958  0.85206  1.0000
  H   H962      1.0  0.60207  0.93200  0.82465  1.0000
  H   H963      1.0  0.72549  0.59968  0.88329  1.0000
  H   H964      1.0  0.62768  0.66068  0.78475  1.0000
  H   H965      1.0  0.65767  0.84920  0.67871  1.0000
  C   C547      1.0  0.59915  0.65655  0.77553  1.0000
  C   C548      1.0  0.51162  0.80872  0.84041  1.0000
  C   C549      1.0  0.95028  0.50944  0.63972  1.0000
  H   H966      1.0  0.55464  0.67394  0.80120  1.0000
  H   H967      1.0  0.66954  0.62446  0.75683  1.0000
  C   C550      1.0  0.79629  0.78821  0.67416  1.0000
  C   C551      1.0  0.61025  0.61504  0.72742  1.0000
  C   C552      1.0  0.60097  0.60493  0.70543  1.0000
  H   H968      1.0  0.88391  0.56758  0.65638  1.0000
  H   H969      1.0  0.96067  0.66512  0.79452  1.0000
  C   C553      1.0  0.61091  0.56640  0.92062  1.0000
  H   H970      1.0  0.77199  0.55674  0.74606  1.0000
  C   C554      1.0  0.69099  0.79675  0.66024  1.0000
  C   C555      1.0  0.96646  0.75034  0.82976  1.0000
  H   H971      1.0  0.57270  0.89414  0.92430  1.0000
  H   H972      1.0  0.73568  0.84571  0.66771  1.0000
  H   H973      1.0  0.51065  0.80096  0.85657  1.0000
  H   H974      1.0  0.78283  0.88085  0.64148  1.0000
  C   C556      1.0  0.60599  0.53588  0.82721  1.0000
  H   H975      1.0  0.53592  0.55903  0.65003  1.0000
  C   C557      1.0  0.91608  0.62711  0.65844  1.0000
  H   H976      1.0  0.62806  0.50860  0.82241  1.0000
  H   H977      1.0  0.90305  0.64275  0.64503  1.0000
  H   H978      1.0  0.55007  0.78513  0.81359  1.0000
  C   C558      1.0  0.62032  0.53306  0.77018  1.0000
  H   H979      1.0  0.88605  0.49557  0.65252  1.0000
  H   H980      1.0  0.69492  0.55332  0.73632  1.0000
  H   H981      1.0  0.56838  0.71867  0.78609  1.0000
  H   H982      1.0  0.63183  0.57536  0.86986  1.0000
  C   C559      1.0  0.98896  0.65920  0.78376  1.0000
  H   H983      1.0  0.78048  0.74398  0.72136  1.0000
  H   H984      1.0  0.64624  0.95508  0.91903  1.0000
  C   C560      1.0  0.56093  0.68409  0.78555  1.0000
  H   H985      1.0  0.92715  0.73478  0.78851  1.0000
  H   H986      1.0  0.52309  0.84158  0.83926  1.0000
  H   H987      1.0  0.49673  0.77872  0.64645  1.0000
  H   H988      1.0  0.85342  0.63454  0.67482  1.0000
  C   C561      1.0  0.88722  0.64322  0.67671  1.0000
  H   H989      1.0  0.76532  0.73104  0.68575  1.0000
  C   C562      1.0  0.59281  0.54465  0.95644  1.0000
  H   H990      1.0  0.61628  0.90105  0.94112  1.0000
  H   H991      1.0  0.53144  0.68113  0.77687  1.0000
  H   H992      1.0  0.57702  0.77887  0.83677  1.0000
  H   H993      1.0  0.55612  0.60536  0.76945  1.0000
  H   H994      1.0  0.68334  0.77712  0.64673  1.0000
  C   C563      1.0  0.96259  0.70674  0.83394  1.0000
  C   C564      1.0  0.50944  0.54179  0.64337  1.0000
  H   H995      1.0  0.82296  0.86682  0.65929  1.0000
  H   H996      1.0  0.59090  0.50301  0.93024  1.0000
  Fe  Fe64      1.0  0.61004  0.70066  0.65572  1.0000
  C   C565      1.0  0.57502  0.51551  0.77405  1.0000
  H   H997      1.0  0.62764  0.53698  0.95887  1.0000
  H   H998      1.0  0.66542  0.55286  0.88835  1.0000
  H   H999      1.0  0.94876  0.63844  0.66074  1.0000
  H   H1000     1.0  0.63662  0.53246  0.78479  1.0000
  H   H1001     1.0  0.70662  0.53032  0.76021  1.0000
  C   C566      1.0  0.97992  0.68405  0.73460  1.0000
  H   H1002     1.0  0.54447  0.95990  0.84973  1.0000
  C   C567      1.0  0.98708  0.68386  0.71172  1.0000
  S   S127      1.0  0.57600  0.64186  0.64651  1.0000
  H   H1003     1.0  0.63618  0.48597  0.90181  1.0000
  C   C568      1.0  0.80615  0.81168  0.63966  1.0000
  C   C569      1.0  0.52121  0.60406  0.90740  1.0000
  H   H1004     1.0  0.52125  0.67011  0.68719  1.0000
  N   N31       1.0  0.54285  0.94724  0.96104  1.0000
  H   H1005     1.0  0.50522  0.80108  0.95385  1.0000
  H   H1006     1.0  0.72795  0.83635  0.64183  1.0000
  H   H1007     1.0  0.63778  0.49177  0.87499  1.0000
  N   N32       1.0  0.98036  0.73433  0.76660  1.0000
  H   H1008     1.0  0.50007  0.82903  0.66965  1.0000
  S   S128      1.0  0.67433  0.67564  0.64182  1.0000
  H   H1009     1.0  0.58362  0.57863  0.96161  1.0000
  H   H1010     1.0  0.97455  0.75450  0.73594  1.0000
  H   H1011     1.0  0.96491  0.70875  0.70517  1.0000
  H   H1012     1.0  0.64892  0.85208  0.65200  1.0000
  C   C570      1.0  0.59414  0.91772  0.93082  1.0000
  H   H1013     1.0  0.98071  0.65161  0.70513  1.0000
  C   C571      1.0  0.56630  0.95595  0.94138  1.0000
  H   H1014     1.0  0.50632  0.74493  0.67663  1.0000
  H   H1015     1.0  0.50085  0.87887  0.69907  1.0000
  H   H1016     1.0  0.60172  0.95096  0.90255  1.0000
  H   H1017     1.0  0.63912  0.50866  0.76005  1.0000
  H   H1018     1.0  0.50156  0.67170  0.90204  1.0000
  H   H1019     1.0  0.97929  0.78759  0.78856  1.0000
  H   H1020     1.0  0.51363  0.50694  0.64683  1.0000
  C   C572      1.0  0.61605  0.48833  0.88847  1.0000
  H   H1021     1.0  0.49713  0.88674  0.81817  1.0000
  C   C573      1.0  0.81292  0.86046  0.64378  1.0000
  H   H1022     1.0  0.99122  0.68624  0.83657  1.0000
  H   H1023     1.0  0.55551  0.51704  0.76052  1.0000
  C   C574      1.0  0.99061  0.72788  0.74432  1.0000
  C   C575      1.0  0.99093  0.77980  0.77270  1.0000
  H   H1024     1.0  0.58726  0.98347  0.94358  1.0000
  C   C576      1.0  0.49187  0.83521  0.95347  1.0000
