data_image0
_chemical_formula_structural       FeS2FeS2FeSFeS3H2S2HS2FeSFeSC2SFeSFeSHSCFeCSFeS2CSH2SFeSFeSHCFeHNC3HC2H5CHC5H3CH3CH2CH2CHC6H7SHC7H4C6H4C3FeHC6H5NC6HC3H24CH3C2HCHS2C2H2C3H2CH2CHCHCH4FeHNHCH3NC3H2CFeH2C2H5CHC2H8CHCH3SHCSCH2C2H3NCHCH2C2H3C4H6CHNHCHCHCFeCH3CH6CH8C2HSCHCH8C2H3FeHC5H4CH7CHCHCHSHC4FeHC2H5CNCH6CHC3SCH4CH2CH16C2H9CH4CH2FeH2CH4CHC2H4NH3CHCH2CH2CNHCH2CHC2HCH3CH3CHSH2C3HSH8CFeCH3C2H2C2H7NH4C2HSFeSFeS2C3NH2FeHFeS2HFeSCSFeS2FeS2FeSFeS3CH3FeS2FeS2FeS2FeS2CH3CHFeCHCH3C6SCH2C6H3C6H5C2HC3H3C6H6C2SHFeCHC4H4C2H2CHC4H2SHSCHSNC2H2NC9H15CH5CH3CH2SH4SHCH6CHCHFeHCFeH3SHC4H3CH2CHCH2CH2FeHCSC2H2CHCH2CH3C2HCHSH5CH4CH5CH3NH6CHCHCH2SH2CH5SHCHC2HCHCH5CHSNHC3H2C3H2C2H9C2H5SCH9NC4HC2H3C2H11CH2C2H7CH5CHCHCH3CH5NCSHSH5NCNC12H25CH2CHCH3CH2C2H6CHFeH4CSH3FeHCH2C2HCH3CHC2HC6H2C4H3CH5CHC2HC2H2CH8C2HCHCH4CH2SHC2HC3NCH2NH7CHC5HCH8CH7C2H9CH4C4NCHCFeS2H2FeS3H3CHCFeSCH3CFeS2FeS2FeSFeS3FeS2FeS2FeS2HSH3CSH2SHSCH2NSHFeS2FeS2FeSFeS3H2C3SHCH2C4HCH2C6H4CHCH2C3HC2H2C2H3C6H4C6H3SC6H2CFeC6H4C3HC2H5C7HCH3SHC2H3SHC4H4CHCHSH2CHCHNHCH2C2HCHCHCH2SH4CH5CH5NC6HCH11NC5H14NC7HC3H3CH9CHCH6CH2S2CHNFeCHC2H2CHC2H6CH4C2H2C2H2SCH4CH7C2HC3H2NC12H18NHCH7CNC11H13CH6CH5FeC2HC2H2C2H6NH2C3H2CHCH5C2H7CH3CH3SH3SH6C2H2FeH4CH2CH3FeCH2CH2NH3C2H2C2H3C2HFeHC2H2CHC2H4CHCH2C2NH2C5HCH2CH4CH2SH12CHC2HNC3H5C3H4CHCHSH8CHSH3CHC3HCH3CH5CH4CH4CH4FeCH6CH2C2H2SHCH4SH2CH3SH5CHC2FeSCFeSHFeSFeS3Fe2HS2CHS2FeS2FeS2FeSFeS3CH2SCH2C2H2C2HCH3CFeCHCHC7H4C6H4C7HCH7CFeHCH4C5H4C7H4CHCH3C2H3FeC3HCHCH2CH2CH5NC4HC2SCHC2H2CH4CH9C5H6CH4NH3NCH4C2NHCH3CH4CH5C2HC2HCHNSH2CS2H2CH3C2H3NHC2H3C2H3SHCHCH3CH3C2HCH4CH7CH2FeCSH3C3H7CHC4HSH2SCH2CH2NHC3H2C4HCHCH6CH12CH6C3H2FeCH2CHCHCHFeH4SCHCH6CHCHC2H3C3H2CH5CH2CH6CH5C3H4SH5CH3CH5S2CHCH6CFeS2FeS2FeSFeS3FeSFeS2C2FeSHSHSCFeS2FeS2FeSFeS3FeS2FeSHFeSFeS3H2CSH2C2HC7H4C6H4C7H4C6H6CH2C6H4C6H3C2H2C6H4C6H6C2H2SHCH10CH2CSHNH2SHCH3C3SH4CSH3C2H3CFeCH3C3H2C2H5SHFeSHCH8C2HCHCHNCHC7HC2H2NH4CH7CH7CH5NC12H18CH9CHC3H11CHCH4CHC2H10CH5CHCH3CH2C2HC3H4CH4C2H2CHNH2C2H4SCH2CH3C2H2CH4CHNH2CH2C3H2CH3CH5CH2CH9CHNC8H10C2HCH3CH2CH5NCHCH2CHCHCHCH5CHC2HFeH7C3FeNHCSH3CHSH7CH3FeS2CHFe2CSCHSFeHSCHCHSHCSHFeS2FeS2FeS2FeS2HS2HSH6FeH2SC11H4C6H5NCH3C7H6CNCHCH2NH7CSH4C2H3SHC2H4CHC2H4C2HNH2CH2CH6C2H4FeHSH4CH4CH7CH3CH3NSH2CSH4CH3CHNC8HC3H16FeHCH6CH2FeCHCH2C3FeHC2HCNH4CH4CSHC3FeH7SHCFeH2CH6CH2FeH3CH3CH3C2H4CH2C2H2CH2C4HCH4C2HCSCH2SH3FeHCHSHCH3CHC2H6CH3SHCSC4H4SCSFeHNC2H5CSCH2NCFeS2FeS2FeS2FeSFeS4FeS2FeHSHCSH4FeS2FeS2HC6H4C3HC2H4C6HCSHC6H6C6H6C6H3SCH3C4H3SFeCSHCNHCH3CH4CH3FeC4H3CHC3H4FeH2CH15CH2SH3CH4CHC2HC2H5CHCH3CH2FeHC2H2SH2FeCH2NCH8CH4C2H3SH3CH2NH6CH2CHC2H5C3H3CHNHCH4C2H3C2H4CH10CSHC3H4NC12H17CH10CSH6CH6CHCH2CHCH7CH2C2H8SC2HNFe2S2HFeS2FeSFeS2FeSFeS3CHFeS2CSCHCSH2FeS2FeS2FeSFeS3CHCFeS2FeH3S2H4SCH2CHFeC2HSHC6H2CHC3H2C2HCHC4HCH3C6H7C7H3C6H4C6H4C6H4C6H4SCH11NC8H15CH5C4HCNHC3H2C3H2CH10C2H11CH4CFeHC2H8CSHC3H3C2HCH2CH2CHCSNH5CH5CHCHCH7NC12H28C2H2CSCHC2H3FeCH2CH2FeHFeC2H2C3HCHC2HCHCHC3SCH2CH5CH2SHCFeH5CHNC5HC3HC2H23CH6CH3SH2CH2NHCH2CH2CH2C2H2CHCH2CH4SH2CHSH6CHCH6CNH2C2HCH8C2H3CHFeHSCH2FeS2HCHFeSH3FeS2H3FeS2FeS2FeSFeS3FeS2FeS2FeSFeS3FeS2FeS2FeSFeCS2FeS2FeHSCH2S2CHSHFeC2HC7H4SC6H4C6H4C6H4C6H4C7H3SCH3CN2H6CH3C4H3C6H4C6H5FeH3C6H4CHFeH2C2H4CHCH3SCH5CSHCH6CH3C2H2CHFeHSH3CHCH9S2FeH3CH3CNC5HC4NCH10CH21CH2CH2SCH3CH2C3HCH4CH7C3HNHC2H3C2H2C2NH9CH3CH4CH3C2HCH6SHCH2CH6CH3C3HSHCHCSHC3HCHCHCH9CH6CH2NHCH4CHCHC2HCFeCHCHCH4CH4NC3H2C4H2CHCH5CHCH4CHCH3C2HCH2CH2N2SHCH9NC11H12CH2CH8NC6H3CH4FeCH2CHCH3CHCH2SHC2HCHCH4CH2C4HSH3CH2CH2CHCHCH2CH6SCHCH3CH4CHCHCH3SH13FeCHS2FeCSH6CH2CSH4CHSH2SFeS2FeS2FeSFeS3FeS2FeSFeSFeS3FeS2FeS2FeSFeS3CSC2FeSC6H4C6H4C6H4C6H4C6H4C6H4FeC6H5CHCH3C2NHC2H2C4HCH2C6H5C6H4C8H6CHCSHCH3CH7SHC2H3SH5NH2CNC10H25C3SHCH3CFeCHCHCHCH2SH5SH4C2HC2HC3H3C3HCH4CHCHCH5C3H9CH2NH2C4HC3H9C2HCH2C2H4CHCHCH2SH2C2HNCSC4HCHC2H3C2H8CHC2HCH2NH9C2HNH2C2H2CH3CH4CH2CHC2HNH4CHNCHFeH3CH2NH7NH4FeH2CFeC2HSC2SH2CH2CH3CH2CHCH5CH7CSHC2H7CH2SH3C3H2C2H2SH6CHCHC2HC2H2CH3FeHCHNC2H5CHCHC2H2CHC3H3C2H5CH5CH3CH2CH2C2SH2CHCH3CFeH7C3NH2C2H7CH4FeSH5CH4CFeH5CHC2HCH8CH7FeCHCHC2H9CH4FeHCH2SHFeSFeSHSH7CH2S2FeS2FeS2FeSFeS3HS2FeSFeS2FeS2Fe2S3FeS2FeS2FeSFeS3H3C6H4C6H4C6H4C6H4C6H4C6H3NHC5SH7C6H4C6H4C6H5C3H2C7H2CHCH3C2HFeH3CH6CHNC12H16CH9C2H2C2H4NC9H20CH7CH3CHSH2SH2CHCNC2HC3HCSC2NH12CH5CH9C2H5C4HC4H5C2H3CFeCH4C2H2C2H2CSH2CH2CH6SNH4C2HCH3CH2C5SCSCHC3H3SCH2CH4SH3CHCH2C2FeNSCHSCH2NCHCNC11H25NCHC5HC2H16CH2CH5C2H2CH9SC2HSH2C3H7C2HCNC2H2CH2CFeCH10CH5FeCH11CH4C3FeNHC2H2CFeH3CH3SH2C3H5NCH4NHCH4CHCHCFeH6SHSH2CHCHC3HCH2CNHNC7HCH6CH3SH2SH3C2H2C4HFeH3CH8CH2C2HCHCH2CH2C2HCH2C2H2CH2FeS2H2FeSFeS2FeS2FeS2FeSFeS3FeS2HSFeSFeS3FeS2FeS2FeSFeS3HFeS2H3SH6SCHSC2SHFeC2H3CHCHC6H5SH6SHCH2CHC6H4C6H4C6H4C6H2FeHC6H4C6H4C6H4C6H4C6H6C2NSCSHCHFeCH5C2HSHCH6CH2CH3FeHC2H2CH4C2H9CSHC2HFeH2NHC2H2CHCH3CH10CH2CHC2H4CHFeH2SCH3C3SH2C2NCH3FeH2SHCH6CH3CHCH7C2HCHCH2CH2CH2C2H3CH2CH2C2H5CHCH3CHCHNH2C2HNC2H4CH3CH5C3H2C3H6CH2CSNC12H29NC11H22NC12H28C2H2C4H13CHCHCHCHNCNH2CH3FeSH3NH4C2H5CHC3HCHC3H2CHCH2C2H7SHCHCHNH3CH6C2H2SC3H5SH2FeCHC4H3SHCHFeCSH2CHSHCFe2SHFeS2FeSFeS3HSCFeS2FeS4CHCH3FeS2FeS2FeSFeS3HFeS2H3C2S2H2C3HC3H4CH8C2HCHCH3C2H2C6H4C6H3C2H2C6H4C6H4C7H3C6H4C6H13CH2CNC8H2CH7CH7FeHCHCNH7CH2FeH2CH3C2NH2CHC2H2CSHFeHCSHC3H6FeH3CHSHNC12H26CH2CSHCH7C2H5FeH5C5HNHCHSCHNCH5NCHCHCHCH3C2H2CH3CH8CHCH3CH2C2HCSCNC12HCH19CH7SHC3H4CH2CNH2CH4CH5CSCH5SHC2HSH2CH2C5H3C2H2CHSCH4C2H3CH2FeCHFeC4H2CSCHCH2C3H10CHCHCH3CHCH4NH6FeH3NCH2CH5CHC2HSCFeSFeSFeS2FeSFeS3CSHSHFeSFeSFeHNCH4FeS2HFeS2FeS2FeSH4SC6H4C6HCHCHCH2C6H5C3HCH4C6H5C6H4C3H5C2H4SCHCHCHCFeH3CHSHCHSHC3HNH4C2H6C2NCH4CHCH12CH2C2H4NH2C2HCH3C2H8CH3CHNCH3C2H2CH4C2H2CHCH5C2HC4H2CH2CH4C2HSHCH2CHC2H4NC12H31CH2C2FeH3CH2NH5CH7C2H2CH3CHSCH6C2HCHFeHSH3CHCH3SHCH2SH3CHCH2CSHCH3SHCHFeHSCHS2H2CNH2FeS3FeSFeS2H2S2HSH2CHFeS2HFeC2NCHCHFeH2SH4C6H6C2H3FeHC2H3CHC2H2C7H4C2HC7H7CHC2H6SH2NC11H16CH9CH2CNH3SHSCH2CSCH4CH2CH2SHCH2FeHCH2CFeC2SH2SHCH2CHCHC2H4CH13CH6CH2CH3C2HFeH3CH3NHCHCHCHC2H2CHCHC2HCH4CH6CH2C2HSH2CH4CFeHCH9CH3C2H2FeH4FeCHC3HC2H3CH2C2HCH2CH3C3H2CHSC2H3SHFeHSHSFeS2FeSHFeSFeS3FeS2FeS2FeSFeS2FeSHFeS2FeSFeS3CS2HSHCHSCHC6H4C6H4C6H4C6H4C6H4C5HC6H4C6H3C2H2CH2CH2C2HSC2H2CH4CH6NH2C3H2CH6C2H7C2H4NCHCFeH5C2HSH2C4SH2CNH2C2HCH4CHCFeCNC3H3NH2CH2CH3NC12H30C2HCHCH4CHC2HC3H9CHCNC10H26CHCH3CHCSH6CNCH3C2HCH7C2H10CH4FeH2SH4CHC2FeSHC2HC2H4CH4CHCHNH3CHCSH2CHCH6CHCH2CFeH2CHCH4CHSH2C2H6CH3C2SH2FeHSHCH3CHCH2CH3C2H5CNH2CH4S2HSHFeSFeS2H2CSFeSCH3CH3CHCHSCH2SHFeS3FeS2FeS2FeSFeS3HS2FeSFeSHCH2C6H4C6H4C6H7NSCH2C2HC6H4CHSH3CH5C8H4SH4CH4CH3C3NHCH12CH7CH5CHCHCH3CHC4HC2HFeH5C3HCSHCFeHC2HCH2CHC2H7SCHCH4CNH4CH4FeSCH7NC12H21CH4SH5CNHCHC3H2CHCH3CH5NCHSHC3HCH5CNCHCH2CH2C2HFeCFeH2CHSC2HC4H4CH2FeHCFeH2SCHC2HC2H2C2HCH5CH5CSCH6NCH3C2H7CH5C3HC4HCH3SC2H7NH2C3H3CH5NCH2C2HC4H3CH9C2HFeH6C2HCHCH3FeCH2SH3C2H2FeH3C3SH4CHSHCH2CHCHCHC2H2CH4CHFeSHCH4CH3CHCHSFeS3H3SFeS2FeS2FeSFeS3H2FeS2CS2CH2CHSH2SHFeSHFeSFeSFeS3H3C2H2C4HC6H4CH2SC2HC6H5CHC3H2C3H2C6H4C5H5C6H4C3HCH3CH5C2H3FeSHC2H2C2HC7HCH7CHC2HCHC2H5NHSFeHCHFeHC4HCHCH6CSHFeSC2HCH7NSH2S3H2S2C2H2CH2FeCH2SNC11H11FeH16SNC7HC4H2SH13NH8CHNC10HCH22FeH7CHC2H4CH7CHC2HCHCSC3H4CHC4FeNC9HC2H19FeH6C2H3CH2CNC12H16CH11CNC4HCHC5H6C2HSH16CNHC2H6SH4CH4CH2C3H4C2H2CH2C2H3CH3C2H2CH4CHCH2CH3SH4CHCSCHFeH5S2CH6SHSHCFeS2FeS2FeSFeS3FeS2HSHCH4FeS2FeS2FeS2FeS2HSHCHCH5C4H2CHC3HCHC8H3C6H7CSC2S2C2HCHC6H9SCH3CH3CHC2HCNFeH4C3H3C3HNC12H29CHSHCHFeC2H5CHCHNSH2CH2C2H3SCH4CHCHNC7HC2H2CH4CH15C2HFeC2HCHC2H5CH4C2H7CH5NHNC11H17CH8CHCH2CHCH6C5H5SC2H2CSCH10C2H3C3H9C2FeSH2NC12H28NH2CH2CHC3S2HC2H3CHFeH3CH5CHCSCHC2HCH2CH5FeH2C2HCHCFeH2CHCH5SHCFeC2H2FeCHC2HCH3CHCH2C2H2CHC3HNH2CH4C2SH3C2H2S3H4C2NFeH3SH2CSHFeHCH2CSH3FeHNC2H3C3HFeHSFe2SH4S2HFeCSFeHSHSH2FeCFeS2FeS2FeSFeS3H2S2H3CFeS2HSFeSFeS2H5SHC2H2SC3H2FeNHSH2C7H5C4H3CH6C7H4C6H4C2SHC6H3CHCH4CHCH2CH3C6H4SH3CH3CHCHCH5CH3C2HC2HFeH2SH4CHCH2CSH2C4HCNH2NHCHNCH2CHCHNC6H2CHCH17CH7CHC2H2CH3CHSCHCH3C2HCH3C3HCFeHCHC3SC4HCHSCH3FeSCH3NH2CH2C2H2CHC2HC2H4C2HC3H4C2H5CH5CSHCH2CH5CH5CH13CH3C3H2C3NHFeCHCHCH2SCH3CH2C2H8C5H6SH7C2H2CH6SHCH2C2HC2HNH3CH2CH4FeHCHNC2H4C2HSH2NHC2H2CHFeH10SH5CH2CH4FeHC2H4CHCH6CHC2H4CSC
_chemical_formula_sum              "Fe400 S800 H6400 C3600 N200"
_cell_length_a       81.9593
_cell_length_b       80.9142
_cell_length_c       59.9199
_cell_angle_alpha    79.7428
_cell_angle_beta     79.686
_cell_angle_gamma    102.889

_space_group_name_H-M_alt    "P 1"
_space_group_IT_number       1

loop_
  _space_group_symop_operation_xyz
  'x, y, z'

loop_
  _atom_site_type_symbol
  _atom_site_label
  _atom_site_symmetry_multiplicity
  _atom_site_fract_x
  _atom_site_fract_y
  _atom_site_fract_z
  _atom_site_occupancy
  Fe  Fe1       1.0  0.10625  0.11386  0.38050  1.0000
  S   S1        1.0  0.12422  0.11475  0.34709  1.0000
  S   S2        1.0  0.10032  0.09416  0.41486  1.0000
  Fe  Fe2       1.0  0.09181  0.14210  0.35739  1.0000
  S   S3        1.0  0.10860  0.14511  0.32195  1.0000
  S   S4        1.0  0.07021  0.15518  0.36301  1.0000
  Fe  Fe3       1.0  0.10176  0.11584  0.33079  1.0000
  S   S5        1.0  0.09549  0.09947  0.30482  1.0000
  Fe  Fe4       1.0  0.12987  0.14409  0.34100  1.0000
  S   S6        1.0  0.15818  0.15853  0.32431  1.0000
  S   S7        1.0  0.08352  0.11308  0.36452  1.0000
  S   S8        1.0  0.11340  0.14305  0.37614  1.0000
  H   H1        1.0  0.02442  0.09025  0.08937  1.0000
  H   H2        1.0  0.08433  0.48615  0.10907  1.0000
  S   S9        1.0  0.12219  0.02375  0.41375  1.0000
  S   S10       1.0  0.01503  0.11591  0.45638  1.0000
  H   H3        1.0  0.00765  0.01894  0.99313  1.0000
  S   S11       1.0  0.10702  0.13114  0.02141  1.0000
  S   S12       1.0  0.13769  0.11447  0.99922  1.0000
  Fe  Fe5       1.0  0.10924  0.10533  0.01421  1.0000
  S   S13       1.0  0.09631  0.07938  0.03927  1.0000
  Fe  Fe6       1.0  0.13540  0.14108  0.00403  1.0000
  S   S14       1.0  0.15551  0.15459  0.02221  1.0000
  C   C1        1.0  0.99820  0.43989  0.99241  1.0000
  C   C2        1.0  0.00947  0.10274  0.33554  1.0000
  S   S15       1.0  0.02972  0.02794  0.26693  1.0000
  Fe  Fe7       1.0  0.01229  0.03450  0.29555  1.0000
  S   S16       1.0  0.01949  0.05267  0.31909  1.0000
  Fe  Fe8       1.0  0.00805  0.02683  0.24823  1.0000
  S   S17       1.0  0.01056  0.03884  0.21008  1.0000
  H   H4        1.0  0.00909  0.09079  0.01953  1.0000
  S   S18       1.0  0.01689  0.05703  0.04210  1.0000
  C   C3        1.0  0.16637  0.20140  0.24455  1.0000
  Fe  Fe9       1.0  0.05955  0.47192  0.39244  1.0000
  C   C4        1.0  0.11711  0.42585  0.97341  1.0000
  S   S19       1.0  0.06073  0.45525  0.42660  1.0000
  Fe  Fe10      1.0  0.03092  0.47547  0.36632  1.0000
  S   S20       1.0  0.00228  0.46215  0.37447  1.0000
  S   S21       1.0  0.05180  0.46157  0.36238  1.0000
  C   C5        1.0  0.00436  0.00744  0.19675  1.0000
  S   S22       1.0  0.06430  0.45360  0.02044  1.0000
  H   H5        1.0  0.09083  0.04759  0.26565  1.0000
  H   H6        1.0  0.10642  0.17534  0.99579  1.0000
  S   S23       1.0  0.03765  0.47736  0.03086  1.0000
  Fe  Fe11      1.0  0.06503  0.47846  0.03311  1.0000
  S   S24       1.0  0.07349  0.48182  0.06694  1.0000
  Fe  Fe12      1.0  0.03780  0.45414  0.01520  1.0000
  S   S25       1.0  0.01565  0.42950  0.02559  1.0000
  H   H7        1.0  0.99368  0.02698  0.13876  1.0000
  C   C6        1.0  0.00446  0.12728  0.35357  1.0000
  Fe  Fe13      1.0  0.98859  0.00069  0.10457  1.0000
  H   H8        1.0  0.04846  0.44829  0.23463  1.0000
  N   N1        1.0  0.01685  0.11649  0.34774  1.0000
  C   C7        1.0  0.99455  0.45781  0.33212  1.0000
  C   C8        1.0  0.01187  0.18787  0.43590  1.0000
  C   C9        1.0  0.99667  0.02149  0.15485  1.0000
  H   H9        1.0  0.06890  0.04405  0.00506  1.0000
  C   C10       1.0  0.17417  0.43864  0.99370  1.0000
  C   C11       1.0  0.05603  0.01083  0.02320  1.0000
  H   H10       1.0  0.11149  0.05233  0.24580  1.0000
  H   H11       1.0  0.10769  0.19694  0.02085  1.0000
  H   H12       1.0  0.99652  0.09483  0.34574  1.0000
  H   H13       1.0  0.00746  0.46565  0.32380  1.0000
  H   H14       1.0  0.14124  0.43464  0.38939  1.0000
  C   C12       1.0  0.10887  0.44143  0.44412  1.0000
  H   H15       1.0  0.07951  0.01506  0.30290  1.0000
  C   C13       1.0  0.07925  0.44232  0.45571  1.0000
  C   C14       1.0  0.07971  0.45083  0.43294  1.0000
  C   C15       1.0  0.09489  0.45483  0.41578  1.0000
  C   C16       1.0  0.10948  0.45025  0.42143  1.0000
  C   C17       1.0  0.00308  0.09394  0.29884  1.0000
  H   H16       1.0  0.09535  0.46140  0.39820  1.0000
  H   H17       1.0  0.12125  0.45351  0.40815  1.0000
  H   H18       1.0  0.06163  0.04657  0.45226  1.0000
  C   C18       1.0  0.14893  0.39095  0.42695  1.0000
  H   H19       1.0  0.12342  0.47133  0.20225  1.0000
  H   H20       1.0  0.15518  0.20865  0.10032  1.0000
  H   H21       1.0  0.98792  0.47680  0.46304  1.0000
  C   C19       1.0  0.00465  0.02505  0.19145  1.0000
  H   H22       1.0  0.16250  0.37063  0.43062  1.0000
  H   H23       1.0  0.00410  0.19044  0.40299  1.0000
  C   C20       1.0  0.06619  0.04451  0.98755  1.0000
  H   H24       1.0  0.04079  0.03337  0.46929  1.0000
  H   H25       1.0  0.16264  0.41584  0.35846  1.0000
  C   C21       1.0  0.15945  0.40036  0.40194  1.0000
  H   H26       1.0  0.07989  0.48822  0.24097  1.0000
  C   C22       1.0  0.03894  0.06275  0.04145  1.0000
  C   C23       1.0  0.04844  0.07997  0.03153  1.0000
  C   C24       1.0  0.06609  0.08508  0.03063  1.0000
  C   C25       1.0  0.07435  0.07291  0.03952  1.0000
  C   C26       1.0  0.06493  0.05555  0.04903  1.0000
  C   C27       1.0  0.04719  0.05049  0.05020  1.0000
  H   H27       1.0  0.04214  0.08942  0.02458  1.0000
  H   H28       1.0  0.07325  0.09849  0.02324  1.0000
  H   H29       1.0  0.07140  0.04604  0.05543  1.0000
  H   H30       1.0  0.03995  0.03716  0.05773  1.0000
  H   H31       1.0  0.02340  0.04817  0.12663  1.0000
  H   H32       1.0  0.07995  0.03022  0.35856  1.0000
  H   H33       1.0  0.99140  0.08384  0.30940  1.0000
  S   S26       1.0  0.10250  0.11002  0.97954  1.0000
  H   H34       1.0  0.16728  0.21463  0.17922  1.0000
  C   C28       1.0  0.11684  0.17514  0.03780  1.0000
  C   C29       1.0  0.10668  0.07473  0.41449  1.0000
  C   C30       1.0  0.11791  0.07298  0.39507  1.0000
  C   C31       1.0  0.12288  0.05742  0.39529  1.0000
  C   C32       1.0  0.11633  0.04336  0.41464  1.0000
  C   C33       1.0  0.10514  0.04509  0.43415  1.0000
  C   C34       1.0  0.10046  0.06081  0.43412  1.0000
  H   H35       1.0  0.12306  0.08372  0.38006  1.0000
  H   H36       1.0  0.13189  0.05633  0.38044  1.0000
  H   H37       1.0  0.10023  0.03442  0.44932  1.0000
  H   H38       1.0  0.09210  0.06224  0.44936  1.0000
  C   C35       1.0  0.05490  0.14478  0.38912  1.0000
  C   C36       1.0  0.05913  0.13385  0.40671  1.0000
  C   C37       1.0  0.04690  0.12555  0.42750  1.0000
  C   C38       1.0  0.03015  0.12749  0.43050  1.0000
  C   C39       1.0  0.02586  0.13845  0.41294  1.0000
  C   C40       1.0  0.03832  0.14733  0.39241  1.0000
  H   H39       1.0  0.07198  0.13205  0.40447  1.0000
  H   H40       1.0  0.05053  0.11767  0.44128  1.0000
  H   H41       1.0  0.01299  0.14007  0.41514  1.0000
  H   H42       1.0  0.03504  0.15588  0.37886  1.0000
  C   C41       1.0  0.12895  0.40923  0.38560  1.0000
  C   C42       1.0  0.17013  0.18049  0.32075  1.0000
  C   C43       1.0  0.16284  0.19287  0.32921  1.0000
  Fe  Fe14      1.0  0.01564  0.00018  0.28457  1.0000
  H   H43       1.0  0.14949  0.18912  0.33847  1.0000
  C   C44       1.0  0.07459  0.08568  0.30945  1.0000
  C   C45       1.0  0.06253  0.08250  0.33046  1.0000
  C   C46       1.0  0.04575  0.07215  0.33329  1.0000
  C   C47       1.0  0.04100  0.06455  0.31533  1.0000
  C   C48       1.0  0.05324  0.06711  0.29464  1.0000
  C   C49       1.0  0.06996  0.07771  0.29169  1.0000
  H   H44       1.0  0.06602  0.08817  0.34444  1.0000
  H   H45       1.0  0.03639  0.07010  0.34940  1.0000
  H   H46       1.0  0.04966  0.06136  0.28065  1.0000
  H   H47       1.0  0.07922  0.08007  0.27539  1.0000
  H   H48       1.0  0.02802  0.11635  0.37797  1.0000
  N   N2        1.0  0.04985  0.04926  0.12726  1.0000
  C   C50       1.0  0.04494  0.02975  0.13642  1.0000
  C   C51       1.0  0.04984  0.05839  0.14729  1.0000
  C   C52       1.0  0.03635  0.05365  0.11480  1.0000
  C   C53       1.0  0.06697  0.05568  0.10998  1.0000
  C   C54       1.0  0.08266  0.05169  0.11859  1.0000
  C   C55       1.0  0.04220  0.01841  0.11838  1.0000
  H   H49       1.0  0.13398  0.41196  0.36649  1.0000
  C   C56       1.0  0.05481  0.04940  0.16931  1.0000
  C   C57       1.0  0.05717  0.06142  0.18615  1.0000
  C   C58       1.0  0.09871  0.05762  0.09864  1.0000
  H   H50       1.0  0.15663  0.19102  0.28187  1.0000
  H   H51       1.0  0.10731  0.20225  0.05911  1.0000
  H   H52       1.0  0.03274  0.02574  0.15002  1.0000
  H   H53       1.0  0.05451  0.02561  0.14548  1.0000
  H   H54       1.0  0.05840  0.07188  0.14120  1.0000
  H   H55       1.0  0.03676  0.05992  0.15394  1.0000
  H   H56       1.0  0.11057  0.16296  0.09711  1.0000
  H   H57       1.0  0.03602  0.04754  0.09962  1.0000
  H   H58       1.0  0.06622  0.05056  0.09415  1.0000
  H   H59       1.0  0.07031  0.07007  0.10369  1.0000
  H   H60       1.0  0.08062  0.03757  0.12556  1.0000
  H   H61       1.0  0.08546  0.05893  0.13212  1.0000
  H   H62       1.0  0.03013  0.01902  0.11269  1.0000
  H   H63       1.0  0.05306  0.02267  0.10287  1.0000
  H   H64       1.0  0.04917  0.07818  0.08900  1.0000
  H   H65       1.0  0.01854  0.06834  0.08542  1.0000
  H   H66       1.0  0.04441  0.03756  0.17879  1.0000
  H   H67       1.0  0.06681  0.04538  0.16502  1.0000
  H   H68       1.0  0.99151  0.16327  0.32834  1.0000
  H   H69       1.0  0.04061  0.02718  0.99267  1.0000
  H   H70       1.0  0.07871  0.04745  0.97480  1.0000
  H   H71       1.0  0.09683  0.05063  0.08453  1.0000
  H   H72       1.0  0.10170  0.07185  0.09123  1.0000
  H   H73       1.0  0.10990  0.05483  0.10515  1.0000
  C   C59       1.0  0.99669  0.00394  0.15998  1.0000
  H   H74       1.0  0.16064  0.17491  0.26571  1.0000
  H   H75       1.0  0.08143  0.40886  0.99040  1.0000
  H   H76       1.0  0.04531  0.06568  0.19119  1.0000
  C   C60       1.0  0.13541  0.19511  0.08522  1.0000
  C   C61       1.0  0.98926  0.45360  0.35643  1.0000
  H   H77       1.0  0.06783  0.00287  0.34504  1.0000
  C   C62       1.0  0.04860  0.38798  0.44858  1.0000
  H   H78       1.0  0.98978  0.17313  0.42594  1.0000
  S   S27       1.0  0.99549  0.99850  0.26361  1.0000
  S   S28       1.0  0.04727  0.46978  0.97840  1.0000
  C   C63       1.0  0.07755  0.37122  0.44717  1.0000
  C   C64       1.0  0.05962  0.40582  0.43296  1.0000
  H   H79       1.0  0.00761  0.00197  0.21265  1.0000
  H   H80       1.0  0.04179  0.47517  0.23993  1.0000
  C   C65       1.0  0.09639  0.37097  0.44409  1.0000
  C   C66       1.0  0.05485  0.40927  0.40938  1.0000
  C   C67       1.0  0.10451  0.05518  0.26173  1.0000
  H   H81       1.0  0.09333  0.47650  0.18341  1.0000
  H   H82       1.0  0.04808  0.37789  0.43810  1.0000
  C   C68       1.0  0.05419  0.02719  0.98571  1.0000
  H   H83       1.0  0.06815  0.07305  0.17810  1.0000
  H   H84       1.0  0.11303  0.41681  0.01137  1.0000
  C   C69       1.0  0.00069  0.03202  0.17051  1.0000
  H   H85       1.0  0.00737  0.45249  0.98849  1.0000
  C   C70       1.0  0.12879  0.06175  0.32081  1.0000
  H   H86       1.0  0.07594  0.37751  0.42998  1.0000
  C   C71       1.0  0.99333  0.07410  0.99406  1.0000
  H   H87       1.0  0.05718  0.41640  0.44148  1.0000
  H   H88       1.0  0.07357  0.40678  0.42966  1.0000
  H   H89       1.0  0.14217  0.18337  0.26443  1.0000
  H   H90       1.0  0.08951  0.21162  0.08987  1.0000
  Fe  Fe15      1.0  0.98778  0.11846  0.46129  1.0000
  H   H91       1.0  0.07444  0.19541  0.11355  1.0000
  N   N3        1.0  0.07386  0.48082  0.20979  1.0000
  H   H92       1.0  0.09993  0.36441  0.42987  1.0000
  C   C72       1.0  0.11858  0.18521  0.99463  1.0000
  H   H93       1.0  0.05755  0.39941  0.39953  1.0000
  H   H94       1.0  0.04105  0.40908  0.41171  1.0000
  H   H95       1.0  0.06260  0.42237  0.39902  1.0000
  N   N4        1.0  0.05400  0.38214  0.47083  1.0000
  C   C73       1.0  0.10287  0.05360  0.30471  1.0000
  C   C74       1.0  0.11852  0.19091  0.01765  1.0000
  C   C75       1.0  0.00547  0.14371  0.33493  1.0000
  H   H96       1.0  0.04755  0.19697  0.45043  1.0000
  H   H97       1.0  0.05637  0.01027  0.30998  1.0000
  C   C76       1.0  0.18109  0.21757  0.17054  1.0000
  Fe  Fe16      1.0  0.10218  0.13646  0.98522  1.0000
  H   H98       1.0  0.11882  0.00230  0.37604  1.0000
  H   H99       1.0  0.17493  0.23249  0.26279  1.0000
  C   C77       1.0  0.11072  0.03175  0.33168  1.0000
  C   C78       1.0  0.01940  0.39488  0.97852  1.0000
  H   H100      1.0  0.18003  0.41624  0.46347  1.0000
  H   H101      1.0  0.99682  0.06539  0.00792  1.0000
  H   H102      1.0  0.06142  0.08025  0.44209  1.0000
  H   H103      1.0  0.17234  0.21917  0.00769  1.0000
  H   H104      1.0  0.14344  0.44283  0.98650  1.0000
  C   C79       1.0  0.14112  0.42098  0.39687  1.0000
  H   H105      1.0  0.99561  0.08124  0.42451  1.0000
  C   C80       1.0  0.03844  0.48115  0.46027  1.0000
  C   C81       1.0  0.01146  0.17377  0.45747  1.0000
  H   H106      1.0  0.01896  0.11345  0.97883  1.0000
  H   H107      1.0  0.17786  0.22787  0.20969  1.0000
  H   H108      1.0  0.18129  0.42771  0.40776  1.0000
  H   H109      1.0  0.09851  0.15360  0.07864  1.0000
  H   H110      1.0  0.00713  0.38769  0.99118  1.0000
  H   H111      1.0  0.12492  0.48747  0.17621  1.0000
  H   H112      1.0  0.16805  0.42029  0.97274  1.0000
  H   H113      1.0  0.11982  0.19662  0.98043  1.0000
  C   C82       1.0  0.14911  0.37181  0.43232  1.0000
  H   H114      1.0  0.01362  0.16208  0.45142  1.0000
  C   C83       1.0  0.07553  0.01037  0.98647  1.0000
  H   H115      1.0  0.16923  0.42877  0.01045  1.0000
  H   H116      1.0  0.13164  0.18360  0.09999  1.0000
  H   H117      1.0  0.00627  0.12586  0.99209  1.0000
  S   S29       1.0  0.99182  0.03611  0.27534  1.0000
  H   H118      1.0  0.10480  0.38445  0.43953  1.0000
  C   C84       1.0  0.00725  0.08646  0.41006  1.0000
  S   S30       1.0  0.12741  0.43595  0.45052  1.0000
  C   C85       1.0  0.11505  0.02547  0.35541  1.0000
  H   H119      1.0  0.03771  0.42453  0.21628  1.0000
  H   H120      1.0  0.06965  0.35752  0.45202  1.0000
  C   C86       1.0  0.05326  0.04174  0.47006  1.0000
  C   C87       1.0  0.08846  0.41408  0.00291  1.0000
  H   H121      1.0  0.12739  0.39524  0.39298  1.0000
  H   H122      1.0  0.99513  0.10339  0.02816  1.0000
  H   H123      1.0  0.14104  0.42070  0.99904  1.0000
  N   N5        1.0  0.15921  0.41908  0.39390  1.0000
  C   C88       1.0  0.04156  0.43819  0.20598  1.0000
  H   H124      1.0  0.11906  0.13623  0.11160  1.0000
  C   C89       1.0  0.13333  0.18999  0.06203  1.0000
  H   H125      1.0  0.04722  0.43830  0.18764  1.0000
  H   H126      1.0  0.05818  0.48059  0.28132  1.0000
  C   C90       1.0  0.01329  0.11583  0.99576  1.0000
  C   C91       1.0  0.05462  0.44939  0.21616  1.0000
  H   H127      1.0  0.13494  0.41861  0.41563  1.0000
  H   H128      1.0  0.99623  0.11511  0.31154  1.0000
  H   H129      1.0  0.12897  0.08356  0.29257  1.0000
  C   C92       1.0  0.99024  0.15126  0.34156  1.0000
  C   C93       1.0  0.04133  0.06602  0.42829  1.0000
  C   C94       1.0  0.11863  0.13306  0.09438  1.0000
  C   C95       1.0  0.11152  0.16134  0.07899  1.0000
  H   H130      1.0  0.10134  0.06704  0.30093  1.0000
  H   H131      1.0  0.18250  0.36661  0.99667  1.0000
  H   H132      1.0  0.02305  0.12599  0.02364  1.0000
  H   H133      1.0  0.00078  0.04561  0.16637  1.0000
  H   H134      1.0  0.09024  0.46323  0.21136  1.0000
  H   H135      1.0  0.07086  0.46574  0.24471  1.0000
  C   C96       1.0  0.03853  0.07330  0.10486  1.0000
  H   H136      1.0  0.00076  0.09868  0.28143  1.0000
  N   N6        1.0  0.11054  0.05062  0.32564  1.0000
  H   H137      1.0  0.06578  0.44374  0.21573  1.0000
  C   C97       1.0  0.09263  0.18531  0.09252  1.0000
  H   H138      1.0  0.13659  0.20247  0.04887  1.0000
  C   C98       1.0  0.12399  0.14969  0.07512  1.0000
  H   H139      1.0  0.16253  0.19565  0.08125  1.0000
  C   C99       1.0  0.16813  0.42521  0.36842  1.0000
  Fe  Fe17      1.0  0.07365  0.47094  0.98451  1.0000
  C   C100      1.0  0.02220  0.07633  0.09789  1.0000
  H   H140      1.0  0.99335  0.08922  0.38327  1.0000
  H   H141      1.0  0.13457  0.49380  0.19913  1.0000
  H   H142      1.0  0.01031  0.17069  0.41167  1.0000
  C   C101      1.0  0.00311  0.09774  0.38975  1.0000
  H   H143      1.0  0.08776  0.42770  0.00246  1.0000
  H   H144      1.0  0.04684  0.08912  0.40007  1.0000
  H   H145      1.0  0.08522  0.02145  0.98919  1.0000
  H   H146      1.0  0.01755  0.09430  0.41656  1.0000
  H   H147      1.0  0.98780  0.39986  0.02864  1.0000
  H   H148      1.0  0.01140  0.07286  0.11348  1.0000
  C   C102      1.0  0.06016  0.46862  0.20227  1.0000
  H   H149      1.0  0.10699  0.39954  0.99674  1.0000
  H   H150      1.0  0.04082  0.15802  0.44928  1.0000
  H   H151      1.0  0.13347  0.06097  0.33719  1.0000
  H   H152      1.0  0.08147  0.39450  0.46108  1.0000
  H   H153      1.0  0.00462  0.19709  0.44149  1.0000
  H   H154      1.0  0.03063  0.47113  0.45321  1.0000
  H   H155      1.0  0.05977  0.05433  0.20223  1.0000
  H   H156      1.0  0.10482  0.02569  0.37017  1.0000
  C   C103      1.0  0.06609  0.17483  0.43449  1.0000
  C   C104      1.0  0.09077  0.47663  0.20226  1.0000
  H   H157      1.0  0.03525  0.38938  0.45251  1.0000
  S   S31       1.0  0.01008  0.00643  0.07264  1.0000
  C   C105      1.0  0.04773  0.47481  0.27330  1.0000
  H   H158      1.0  0.07664  0.99841  0.41296  1.0000
  C   C106      1.0  0.15035  0.09149  0.30776  1.0000
  H   H159      1.0  0.10503  0.99788  0.35633  1.0000
  H   H160      1.0  0.00566  0.14104  0.31745  1.0000
  H   H161      1.0  0.11246  0.03631  0.28422  1.0000
  H   H162      1.0  0.15735  0.45223  0.40716  1.0000
  H   H163      1.0  0.12634  0.05808  0.27715  1.0000
  H   H164      1.0  0.01404  0.08793  0.29644  1.0000
  H   H165      1.0  0.13734  0.15652  0.07500  1.0000
  H   H166      1.0  0.04688  0.01846  0.02882  1.0000
  C   C107      1.0  0.11275  0.05029  0.28206  1.0000
  C   C108      1.0  0.10714  0.41323  0.99702  1.0000
  H   H167      1.0  0.01384  0.49249  0.44340  1.0000
  H   H168      1.0  0.02065  0.08679  0.97938  1.0000
  H   H169      1.0  0.13771  0.05675  0.30911  1.0000
  Fe  Fe18      1.0  0.06851  0.48748  0.33992  1.0000
  H   H170      1.0  0.03678  0.11522  0.00772  1.0000
  C   C109      1.0  0.09988  0.05546  0.34545  1.0000
  C   C110      1.0  0.08097  0.04436  0.35440  1.0000
  C   C111      1.0  0.13175  0.08141  0.31015  1.0000
  C   C112      1.0  0.07256  0.04893  0.37652  1.0000
  C   C113      1.0  0.09370  0.43742  0.46126  1.0000
  H   H171      1.0  0.10614  0.05516  0.36043  1.0000
  H   H172      1.0  0.09919  0.06916  0.34035  1.0000
  H   H173      1.0  0.07340  0.04703  0.34118  1.0000
  H   H174      1.0  0.12347  0.08721  0.32132  1.0000
  C   C114      1.0  0.16751  0.17541  0.02450  1.0000
  H   H175      1.0  0.07904  0.04556  0.39085  1.0000
  H   H176      1.0  0.07350  0.06308  0.37311  1.0000
  H   H177      1.0  0.05879  0.04163  0.38208  1.0000
  H   H178      1.0  0.15934  0.08651  0.29620  1.0000
  H   H179      1.0  0.15204  0.10548  0.30007  1.0000
  H   H180      1.0  0.16149  0.42530  0.42709  1.0000
  H   H181      1.0  0.02675  0.09719  0.36724  1.0000
  C   C115      1.0  0.15408  0.20447  0.08385  1.0000
  H   H182      1.0  0.08959  0.04506  0.30837  1.0000
  C   C116      1.0  0.05250  0.48170  0.24687  1.0000
  H   H183      1.0  0.16143  0.21294  0.24569  1.0000
  C   C117      1.0  0.03403  0.12818  0.33379  1.0000
  H   H184      1.0  0.01138  0.07539  0.40448  1.0000
  S   S32       1.0  0.03772  0.48432  0.39770  1.0000
  H   H185      1.0  0.12800  0.16990  0.03254  1.0000
  C   C118      1.0  0.06746  0.00443  0.30919  1.0000
  C   C119      1.0  0.04824  0.11895  0.32720  1.0000
  C   C120      1.0  0.17425  0.20716  0.01664  1.0000
  C   C121      1.0  0.98703  0.41029  0.01513  1.0000
  Fe  Fe19      1.0  0.11171  0.00241  0.44645  1.0000
  H   H186      1.0  0.99799  0.16938  0.46799  1.0000
  C   C122      1.0  0.06441  0.13186  0.31127  1.0000
  C   C123      1.0  0.05001  0.07638  0.40344  1.0000
  H   H187      1.0  0.03909  0.13793  0.34361  1.0000
  H   H188      1.0  0.03285  0.13602  0.31729  1.0000
  H   H189      1.0  0.06420  0.07882  0.40070  1.0000
  H   H190      1.0  0.09818  0.02309  0.33143  1.0000
  H   H191      1.0  0.04192  0.17595  0.42644  1.0000
  C   C124      1.0  0.16831  0.42975  0.40840  1.0000
  N   N7        1.0  0.98724  0.08836  0.00338  1.0000
  C   C125      1.0  0.00101  0.09903  0.01275  1.0000
  H   H192      1.0  0.01895  0.11863  0.29935  1.0000
  H   H193      1.0  0.02083  0.04632  0.46724  1.0000
  H   H194      1.0  0.05188  0.11292  0.34304  1.0000
  H   H195      1.0  0.04394  0.10880  0.31774  1.0000
  H   H196      1.0  0.01730  0.09314  0.33480  1.0000
  H   H197      1.0  0.14364  0.18373  0.05654  1.0000
  C   C126      1.0  0.15588  0.18676  0.26539  1.0000
  H   H198      1.0  0.16378  0.19728  0.22854  1.0000
  C   C127      1.0  0.04236  0.18314  0.46022  1.0000
  C   C128      1.0  0.00721  0.10915  0.31066  1.0000
  C   C129      1.0  0.05814  0.05966  0.98220  1.0000
  S   S33       1.0  0.99961  0.00669  0.31435  1.0000
  C   C130      1.0  0.00127  0.01405  0.97982  1.0000
  H   H199      1.0  0.06169  0.13769  0.29456  1.0000
  H   H200      1.0  0.06941  0.14240  0.31982  1.0000
  H   H201      1.0  0.07453  0.12502  0.30735  1.0000
  H   H202      1.0  0.15358  0.09043  0.32511  1.0000
  C   C131      1.0  0.04669  0.17211  0.44228  1.0000
  H   H203      1.0  0.14192  0.36552  0.45053  1.0000
  H   H204      1.0  0.04628  0.00503  0.07100  1.0000
  C   C132      1.0  0.04708  0.07648  0.44616  1.0000
  H   H205      1.0  0.05276  0.99755  0.13302  1.0000
  H   H206      1.0  0.10519  0.16487  0.03788  1.0000
  H   H207      1.0  0.17641  0.24474  0.23374  1.0000
  H   H208      1.0  0.07146  0.17015  0.44943  1.0000
  H   H209      1.0  0.12959  0.17962  0.99008  1.0000
  H   H210      1.0  0.04838  0.47339  0.20288  1.0000
  H   H211      1.0  0.12760  0.20431  0.08886  1.0000
  H   H212      1.0  0.10236  0.40364  0.38242  1.0000
  H   H213      1.0  0.01254  0.07603  0.45503  1.0000
  H   H214      1.0  0.04905  0.48986  0.44591  1.0000
  H   H215      1.0  0.15498  0.39247  0.38970  1.0000
  H   H216      1.0  0.02985  0.44304  0.20661  1.0000
  H   H217      1.0  0.06757  0.43945  0.46907  1.0000
  H   H218      1.0  0.18538  0.22609  0.36340  1.0000
  H   H219      1.0  0.12030  0.02903  0.31810  1.0000
  H   H220      1.0  0.00669  0.13247  0.36914  1.0000
  C   C133      1.0  0.16552  0.19114  0.01268  1.0000
  C   C134      1.0  0.07247  0.38121  0.46603  1.0000
  H   H221      1.0  0.17624  0.26321  0.26215  1.0000
  H   H222      1.0  0.04138  0.08129  0.11761  1.0000
  H   H223      1.0  0.17519  0.45524  0.38310  1.0000
  H   H224      1.0  0.18053  0.16405  0.04897  1.0000
  H   H225      1.0  0.02522  0.19544  0.42711  1.0000
  H   H226      1.0  0.14292  0.36481  0.42041  1.0000
  H   H227      1.0  0.12804  0.00626  0.34534  1.0000
  H   H228      1.0  0.12766  0.12493  0.09089  1.0000
  H   H229      1.0  0.08404  0.17188  0.09885  1.0000
  C   C135      1.0  0.11679  0.00682  0.35836  1.0000
  H   H230      1.0  0.01740  0.15395  0.33367  1.0000
  H   H231      1.0  0.10157  0.18711  0.10421  1.0000
  H   H232      1.0  0.06457  0.46844  0.18364  1.0000
  H   H233      1.0  0.10519  0.06930  0.25820  1.0000
  C   C136      1.0  0.02802  0.12381  0.00621  1.0000
  H   H234      1.0  0.15715  0.19098  0.00067  1.0000
  H   H235      1.0  0.15440  0.39702  0.44009  1.0000
  Fe  Fe20      1.0  0.00116  0.03019  0.06164  1.0000
  H   H236      1.0  0.07183  0.19628  0.08415  1.0000
  H   H237      1.0  0.04449  0.05335  0.43051  1.0000
  C   C137      1.0  0.10676  0.48867  0.20698  1.0000
  H   H238      1.0  0.09861  0.36372  0.46035  1.0000
  H   H239      1.0  0.12736  0.03377  0.35687  1.0000
  H   H240      1.0  0.03586  0.47819  0.28091  1.0000
  H   H241      1.0  0.08201  0.40604  0.02067  1.0000
  C   C138      1.0  0.14562  0.43054  0.98220  1.0000
  H   H242      1.0  0.09157  0.18357  0.05782  1.0000
  C   C139      1.0  0.99922  0.42652  0.01000  1.0000
  C   C140      1.0  0.01965  0.10711  0.37037  1.0000
  H   H243      1.0  0.16704  0.21959  0.33235  1.0000
  H   H244      1.0  0.02728  0.06337  0.42987  1.0000
  H   H245      1.0  0.17285  0.39948  0.40165  1.0000
  H   H246      1.0  0.04332  0.35500  0.47144  1.0000
  N   N8        1.0  0.05760  0.01063  0.99763  1.0000
  H   H247      1.0  0.12387  0.14554  0.05849  1.0000
  H   H248      1.0  0.13069  0.20104  0.01520  1.0000
  H   H249      1.0  0.10615  0.48642  0.22596  1.0000
  C   C141      1.0  0.06996  0.47873  0.23588  1.0000
  H   H250      1.0  0.02800  0.40211  0.98797  1.0000
  C   C142      1.0  0.17007  0.44960  0.40199  1.0000
  H   H251      1.0  0.15867  0.21622  0.06927  1.0000
  H   H252      1.0  0.04532  0.46042  0.27776  1.0000
  C   C143      1.0  0.10207  0.18799  0.06670  1.0000
  H   H253      1.0  0.99095  0.11897  0.35855  1.0000
  H   H254      1.0  0.04339  0.08885  0.44173  1.0000
  C   C144      1.0  0.08143  0.19796  0.09508  1.0000
  N   N9        1.0  0.11601  0.17872  0.06186  1.0000
  H   H255      1.0  0.10547  0.12540  0.09483  1.0000
  C   C145      1.0  0.18221  0.45926  0.41483  1.0000
  H   H256      1.0  0.04557  0.06899  0.39075  1.0000
  H   H257      1.0  0.06696  0.99605  0.29637  1.0000
  C   C146      1.0  0.16527  0.43278  0.97501  1.0000
  H   H258      1.0  0.06879  0.16735  0.42103  1.0000
  C   C147      1.0  0.17284  0.21015  0.32569  1.0000
  C   C148      1.0  0.04408  0.99559  0.99462  1.0000
  H   H259      1.0  0.16563  0.43770  0.36064  1.0000
  C   C149      1.0  0.11109  0.41252  0.38993  1.0000
  H   H260      1.0  0.18553  0.33935  0.97816  1.0000
  H   H261      1.0  0.06858  0.01774  0.02610  1.0000
  H   H262      1.0  0.06553  0.09918  0.46621  1.0000
  C   C150      1.0  0.00938  0.07995  0.97369  1.0000
  H   H263      1.0  0.17814  0.45353  0.43388  1.0000
  H   H264      1.0  0.03560  0.13654  0.99466  1.0000
  H   H265      1.0  0.10555  0.41020  0.40890  1.0000
  C   C151      1.0  0.18591  0.20514  0.24390  1.0000
  H   H266      1.0  0.07261  0.18881  0.42676  1.0000
  S   S34       1.0  0.08836  0.48919  0.30711  1.0000
  H   H267      1.0  0.13534  0.39129  0.42931  1.0000
  H   H268      1.0  0.11181  0.42617  0.38159  1.0000
  C   C152      1.0  0.00350  0.17995  0.41808  1.0000
  C   C153      1.0  0.12337  0.48501  0.19542  1.0000
  C   C154      1.0  0.18401  0.39140  0.45965  1.0000
  H   H269      1.0  0.18562  0.23137  0.16065  1.0000
  S   S35       1.0  0.08073  0.14777  0.97534  1.0000
  H   H270      1.0  0.05875  0.00421  0.40306  1.0000
  H   H271      1.0  0.99267  0.04708  0.45790  1.0000
  H   H272      1.0  0.17215  0.45134  0.99632  1.0000
  H   H273      1.0  0.15789  0.46393  0.45925  1.0000
  H   H274      1.0  0.01725  0.05584  0.98020  1.0000
  H   H275      1.0  0.06738  0.07208  0.98199  1.0000
  H   H276      1.0  0.03102  0.99681  0.00197  1.0000
  H   H277      1.0  0.02435  0.20692  0.46245  1.0000
  C   C155      1.0  0.00038  0.99694  0.18109  1.0000
  Fe  Fe21      1.0  0.04909  0.49301  0.99423  1.0000
  C   C156      1.0  0.02728  0.49160  0.47161  1.0000
  H   H278      1.0  0.06624  0.99892  0.06476  1.0000
  H   H279      1.0  0.18209  0.47318  0.41174  1.0000
  H   H280      1.0  0.13347  0.39820  0.98051  1.0000
  C   C157      1.0  0.18352  0.24247  0.24756  1.0000
  C   C158      1.0  0.18550  0.20782  0.03193  1.0000
  H   H281      1.0  0.04635  0.05788  0.99579  1.0000
  H   H282      1.0  0.99717  0.10735  0.39684  1.0000
  C   C159      1.0  0.17880  0.17607  0.03972  1.0000
  C   C160      1.0  0.04044  0.99929  0.12906  1.0000
  H   H283      1.0  0.00451  0.00172  0.97780  1.0000
  H   H284      1.0  0.06929  0.11083  0.97581  1.0000
  H   H285      1.0  0.10847  0.00510  0.98183  1.0000
  H   H286      1.0  0.98696  0.45568  0.29977  1.0000
  H   H287      1.0  0.18250  0.20913  0.15797  1.0000
  H   H288      1.0  0.98985  0.15464  0.35880  1.0000
  H   H289      1.0  0.11681  0.43915  0.97564  1.0000
  N   N10       1.0  0.03999  0.06805  0.47176  1.0000
  H   H290      1.0  0.11679  0.05404  0.97333  1.0000
  H   H291      1.0  0.18616  0.23787  0.38618  1.0000
  H   H292      1.0  0.04553  0.35358  0.61957  1.0000
  H   H293      1.0  0.13591  0.47409  0.48301  1.0000
  C   C161      1.0  0.05361  0.10914  0.95061  1.0000
  C   C162      1.0  0.06669  0.13604  0.96079  1.0000
  H   H294      1.0  0.17067  0.38792  0.79527  1.0000
  S   S36       1.0  0.15010  0.41909  0.49638  1.0000
  Fe  Fe22      1.0  0.08801  0.01679  0.87322  1.0000
  S   S37       1.0  0.07473  0.03157  0.84990  1.0000
  Fe  Fe23      1.0  0.10767  0.02054  0.91104  1.0000
  S   S38       1.0  0.11488  0.03362  0.93942  1.0000
  S   S39       1.0  0.11594  0.02835  0.87198  1.0000
  C   C163      1.0  0.99030  0.26761  0.64694  1.0000
  C   C164      1.0  0.10673  0.01857  0.61608  1.0000
  C   C165      1.0  0.99034  0.07001  0.81187  1.0000
  N   N11       1.0  0.09445  0.99683  0.79323  1.0000
  H   H295      1.0  0.16427  0.99876  0.92947  1.0000
  H   H296      1.0  0.04259  0.00466  0.95811  1.0000
  Fe  Fe24      1.0  0.14544  0.39056  0.49749  1.0000
  H   H297      1.0  0.03632  0.23082  0.47991  1.0000
  Fe  Fe25      1.0  0.10664  0.38234  0.51950  1.0000
  S   S40       1.0  0.10873  0.41072  0.51912  1.0000
  S   S41       1.0  0.08030  0.36336  0.53787  1.0000
  H   H298      1.0  0.11044  0.39680  0.95637  1.0000
  Fe  Fe26      1.0  0.13292  0.41100  0.53228  1.0000
  S   S42       1.0  0.13546  0.42304  0.56364  1.0000
  C   C166      1.0  0.14254  0.43709  0.94112  1.0000
  S   S43       1.0  0.12994  0.38233  0.53468  1.0000
  Fe  Fe27      1.0  0.14277  0.39261  0.87454  1.0000
  S   S44       1.0  0.13496  0.41760  0.87334  1.0000
  S   S45       1.0  0.16327  0.38523  0.89307  1.0000
  Fe  Fe28      1.0  0.11435  0.37738  0.84914  1.0000
  S   S46       1.0  0.10471  0.40140  0.84692  1.0000
  S   S47       1.0  0.10334  0.35273  0.83636  1.0000
  Fe  Fe29      1.0  0.13271  0.41634  0.83660  1.0000
  S   S48       1.0  0.14052  0.44107  0.80784  1.0000
  Fe  Fe30      1.0  0.10791  0.40062  0.88360  1.0000
  S   S49       1.0  0.08706  0.40223  0.91295  1.0000
  S   S50       1.0  0.14243  0.39242  0.83682  1.0000
  S   S51       1.0  0.11563  0.37551  0.88681  1.0000
  C   C167      1.0  0.04611  0.11814  0.93482  1.0000
  H   H299      1.0  0.13265  0.45981  0.94555  1.0000
  H   H300      1.0  0.12087  0.47415  0.56642  1.0000
  H   H301      1.0  0.01394  0.34088  0.78919  1.0000
  Fe  Fe31      1.0  0.00330  0.28135  0.53677  1.0000
  S   S52       1.0  0.02777  0.30123  0.51372  1.0000
  S   S53       1.0  0.00492  0.25715  0.56055  1.0000
  Fe  Fe32      1.0  0.01459  0.25931  0.77814  1.0000
  S   S54       1.0  0.01235  0.27455  0.80593  1.0000
  S   S55       1.0  0.01844  0.23205  0.78153  1.0000
  Fe  Fe33      1.0  0.00775  0.28632  0.74126  1.0000
  S   S56       1.0  0.00482  0.30369  0.76641  1.0000
  S   S57       1.0  0.00485  0.29612  0.70402  1.0000
  Fe  Fe34      1.0  0.02810  0.29816  0.77812  1.0000
  S   S58       1.0  0.04425  0.32340  0.78483  1.0000
  S   S59       1.0  0.03230  0.28248  0.75072  1.0000
  C   C168      1.0  0.01135  0.21999  0.82959  1.0000
  H   H302      1.0  0.07740  0.01267  0.96719  1.0000
  H   H303      1.0  0.12921  0.48534  0.71500  1.0000
  H   H304      1.0  0.05031  0.18156  0.47332  1.0000
  C   C169      1.0  0.05580  0.39045  0.51031  1.0000
  H   H305      1.0  0.00092  0.30822  0.65775  1.0000
  Fe  Fe35      1.0  0.12574  0.41639  0.48343  1.0000
  C   C170      1.0  0.02914  0.22185  0.49682  1.0000
  H   H306      1.0  0.00765  0.33997  0.84228  1.0000
  C   C171      1.0  0.00717  0.03979  0.61061  1.0000
  H   H307      1.0  0.06692  0.40937  0.95236  1.0000
  H   H308      1.0  0.04526  0.28385  0.84376  1.0000
  H   H309      1.0  0.11614  0.00925  0.52914  1.0000
  C   C172      1.0  0.08921  0.42109  0.92424  1.0000
  C   C173      1.0  0.07713  0.42105  0.94407  1.0000
  C   C174      1.0  0.07838  0.43588  0.95354  1.0000
  C   C175      1.0  0.09191  0.45076  0.94336  1.0000
  C   C176      1.0  0.10383  0.45090  0.92330  1.0000
  C   C177      1.0  0.10252  0.43611  0.91377  1.0000
  S   S60       1.0  0.99688  0.12965  0.91627  1.0000
  C   C178      1.0  0.03005  0.46435  0.91774  1.0000
  H   H310      1.0  0.11416  0.46249  0.91515  1.0000
  H   H311      1.0  0.11177  0.43637  0.89830  1.0000
  C   C179      1.0  0.15316  0.44234  0.78007  1.0000
  C   C180      1.0  0.15373  0.45576  0.76126  1.0000
  C   C181      1.0  0.16346  0.45699  0.73882  1.0000
  C   C182      1.0  0.17244  0.44456  0.73500  1.0000
  C   C183      1.0  0.17190  0.43118  0.75385  1.0000
  C   C184      1.0  0.16250  0.43021  0.77634  1.0000
  H   H312      1.0  0.17115  0.43924  0.53718  1.0000
  H   H313      1.0  0.09670  0.45653  0.56600  1.0000
  H   H314      1.0  0.16254  0.42015  0.79084  1.0000
  C   C185      1.0  0.08614  0.34463  0.82315  1.0000
  C   C186      1.0  0.08311  0.32737  0.82023  1.0000
  C   C187      1.0  0.07020  0.32051  0.80902  1.0000
  C   C188      1.0  0.06031  0.33096  0.80005  1.0000
  C   C189      1.0  0.06327  0.34818  0.80307  1.0000
  C   C190      1.0  0.07589  0.35490  0.81478  1.0000
  H   H315      1.0  0.09090  0.31924  0.82660  1.0000
  H   H316      1.0  0.06819  0.30727  0.80686  1.0000
  H   H317      1.0  0.05570  0.35641  0.79632  1.0000
  H   H318      1.0  0.07780  0.36810  0.81710  1.0000
  H   H319      1.0  0.09363  0.40672  0.79969  1.0000
  C   C191      1.0  0.15391  0.43571  0.57030  1.0000
  C   C192      1.0  0.16971  0.44233  0.55414  1.0000
  H   H320      1.0  0.06204  0.41730  0.51407  1.0000
  C   C193      1.0  0.01929  0.16607  0.49500  1.0000
  C   C194      1.0  0.16630  0.45058  0.59806  1.0000
  C   C195      1.0  0.15231  0.43994  0.59223  1.0000
  H   H321      1.0  0.15366  0.46147  0.95129  1.0000
  H   H322      1.0  0.16485  0.45366  0.61503  1.0000
  H   H323      1.0  0.14014  0.43493  0.60485  1.0000
  C   C196      1.0  0.06642  0.34551  0.53119  1.0000
  C   C197      1.0  0.07053  0.33973  0.51075  1.0000
  C   C198      1.0  0.05864  0.32608  0.50579  1.0000
  C   C199      1.0  0.04266  0.31777  0.52140  1.0000
  C   C200      1.0  0.03871  0.32334  0.54203  1.0000
  C   C201      1.0  0.05047  0.33717  0.54680  1.0000
  H   H324      1.0  0.08281  0.34581  0.49875  1.0000
  H   H325      1.0  0.06186  0.32186  0.48980  1.0000
  H   H326      1.0  0.02643  0.31721  0.55409  1.0000
  H   H327      1.0  0.04711  0.34154  0.56264  1.0000
  H   H328      1.0  0.99085  0.03824  0.65766  1.0000
  H   H329      1.0  0.03719  0.28687  0.56388  1.0000
  C   C202      1.0  0.17581  0.39734  0.90918  1.0000
  C   C203      1.0  0.02178  0.05677  0.47699  1.0000
  S   S61       1.0  0.01874  0.13170  0.86369  1.0000
  H   H330      1.0  0.99926  0.99740  0.85570  1.0000
  Fe  Fe36      1.0  0.13062  0.12148  0.96492  1.0000
  C   C204      1.0  0.12148  0.05631  0.93621  1.0000
  H   H331      1.0  0.02927  0.02972  0.61384  1.0000
  C   C205      1.0  0.16620  0.37480  0.79181  1.0000
  C   C206      1.0  0.13360  0.09227  0.93288  1.0000
  C   C207      1.0  0.13395  0.08572  0.91267  1.0000
  C   C208      1.0  0.12751  0.06778  0.91432  1.0000
  H   H332      1.0  0.00582  0.16459  0.50444  1.0000
  H   H333      1.0  0.01341  0.01632  0.60279  1.0000
  H   H334      1.0  0.13885  0.09459  0.89576  1.0000
  H   H335      1.0  0.12739  0.06283  0.89876  1.0000
  C   C209      1.0  0.04814  0.13601  0.93296  1.0000
  C   C210      1.0  0.05837  0.14491  0.94596  1.0000
  H   H336      1.0  0.04230  0.14308  0.92096  1.0000
  H   H337      1.0  0.06027  0.15881  0.94396  1.0000
  C   C211      1.0  0.15528  0.01271  0.56802  1.0000
  H   H338      1.0  0.00726  0.08852  0.95847  1.0000
  C   C212      1.0  0.05277  0.04234  0.91570  1.0000
  C   C213      1.0  0.04149  0.01727  0.81003  1.0000
  C   C214      1.0  0.05309  0.02718  0.82034  1.0000
  C   C215      1.0  0.05909  0.01904  0.83870  1.0000
  H   H339      1.0  0.03741  0.02353  0.79527  1.0000
  H   H340      1.0  0.05779  0.04111  0.81362  1.0000
  S   S62       1.0  0.14048  0.11482  0.93083  1.0000
  H   H341      1.0  0.02139  0.37155  0.50395  1.0000
  S   S63       1.0  0.13030  0.14868  0.96824  1.0000
  C   C216      1.0  0.08249  0.43778  0.55082  1.0000
  H   H342      1.0  0.12525  0.15075  0.90661  1.0000
  S   S64       1.0  0.11952  0.00352  0.48030  1.0000
  N   N12       1.0  0.03156  0.43229  0.92217  1.0000
  C   C217      1.0  0.14865  0.48368  0.55562  1.0000
  C   C218      1.0  0.09885  0.14543  0.90056  1.0000
  H   H343      1.0  0.99600  0.25896  0.70288  1.0000
  H   H344      1.0  0.10399  0.38979  0.76386  1.0000
  N   N13       1.0  0.09930  0.12940  0.89111  1.0000
  C   C219      1.0  0.09630  0.11434  0.91158  1.0000
  C   C220      1.0  0.08486  0.12531  0.87858  1.0000
  C   C221      1.0  0.11650  0.13108  0.87554  1.0000
  C   C222      1.0  0.12328  0.14717  0.85492  1.0000
  C   C223      1.0  0.09470  0.09616  0.90575  1.0000
  C   C224      1.0  0.07893  0.14079  0.86641  1.0000
  C   C225      1.0  0.14129  0.14790  0.84167  1.0000
  C   C226      1.0  0.11745  0.01827  0.80674  1.0000
  C   C227      1.0  0.06621  0.13479  0.85182  1.0000
  H   H345      1.0  0.08452  0.11364  0.92451  1.0000
  H   H346      1.0  0.10689  0.11629  0.92095  1.0000
  H   H347      1.0  0.07293  0.11674  0.89106  1.0000
  H   H348      1.0  0.08816  0.11772  0.86542  1.0000
  H   H349      1.0  0.12650  0.13089  0.88591  1.0000
  H   H350      1.0  0.11603  0.11951  0.86781  1.0000
  H   H351      1.0  0.12418  0.15947  0.86092  1.0000
  H   H352      1.0  0.08563  0.09346  0.89436  1.0000
  H   H353      1.0  0.10739  0.09524  0.89676  1.0000
  H   H354      1.0  0.08981  0.15122  0.85484  1.0000
  H   H355      1.0  0.07221  0.14648  0.87972  1.0000
  H   H356      1.0  0.14118  0.13604  0.83471  1.0000
  H   H357      1.0  0.14585  0.15945  0.82682  1.0000
  H   H358      1.0  0.15046  0.14902  0.85328  1.0000
  H   H359      1.0  0.11161  0.03986  0.82099  1.0000
  C   C228      1.0  0.05339  0.40441  0.52377  1.0000
  H   H360      1.0  0.16767  0.48066  0.47262  1.0000
  H   H361      1.0  0.06151  0.14590  0.84427  1.0000
  H   H362      1.0  0.07251  0.12986  0.83734  1.0000
  H   H363      1.0  0.05496  0.12435  0.86284  1.0000
  H   H364      1.0  0.06835  0.11875  0.49333  1.0000
  C   C229      1.0  0.16053  0.05034  0.95580  1.0000
  H   H365      1.0  0.11508  0.35533  0.78219  1.0000
  H   H366      1.0  0.12588  0.04635  0.79234  1.0000
  H   H367      1.0  0.00506  0.01688  0.88286  1.0000
  C   C230      1.0  0.11263  0.16882  0.91951  1.0000
  H   H368      1.0  0.15501  0.43508  0.93291  1.0000
  H   H369      1.0  0.14687  0.03549  0.53713  1.0000
  S   S65       1.0  0.07815  0.00385  0.52458  1.0000
  H   H370      1.0  0.02486  0.46265  0.90218  1.0000
  H   H371      1.0  0.11648  0.44307  0.53993  1.0000
  H   H372      1.0  0.02765  0.17027  0.50676  1.0000
  H   H373      1.0  0.06380  0.04063  0.90337  1.0000
  S   S66       1.0  0.03552  0.10677  0.91660  1.0000
  H   H374      1.0  0.15585  0.02887  0.83455  1.0000
  C   C231      1.0  0.99827  0.29419  0.66085  1.0000
  H   H375      1.0  0.07656  0.42568  0.86493  1.0000
  H   H376      1.0  0.10672  0.37019  0.73565  1.0000
  H   H377      1.0  0.04704  0.37786  0.52076  1.0000
  H   H378      1.0  0.05459  0.06048  0.96512  1.0000
  H   H379      1.0  0.02132  0.27810  0.59098  1.0000
  H   H380      1.0  0.99183  0.33105  0.78964  1.0000
  C   C232      1.0  0.12139  0.06285  0.95634  1.0000
  H   H381      1.0  0.11055  0.34050  0.73497  1.0000
  C   C233      1.0  0.01233  0.02094  0.86451  1.0000
  H   H382      1.0  0.00307  0.05651  0.96028  1.0000
  Fe  Fe37      1.0  0.99866  0.14396  0.87950  1.0000
  H   H383      1.0  0.01245  0.29416  0.84084  1.0000
  C   C234      1.0  0.15335  0.46748  0.91517  1.0000
  Fe  Fe38      1.0  0.98943  0.27967  0.79308  1.0000
  H   H384      1.0  0.01614  0.12184  0.51481  1.0000
  H   H385      1.0  0.06927  0.38967  0.50897  1.0000
  H   H386      1.0  0.15430  0.01497  0.89582  1.0000
  S   S67       1.0  0.12192  0.38818  0.48251  1.0000
  H   H387      1.0  0.18632  0.04482  0.81640  1.0000
  C   C235      1.0  0.09572  0.45505  0.54823  1.0000
  C   C236      1.0  0.12241  0.03704  0.80954  1.0000
  C   C237      1.0  0.99975  0.32176  0.82114  1.0000
  C   C238      1.0  0.99400  0.30564  0.87175  1.0000
  H   H388      1.0  0.00329  0.03553  0.91539  1.0000
  H   H389      1.0  0.09610  0.08416  0.94077  1.0000
  H   H390      1.0  0.05388  0.02432  0.50194  1.0000
  C   C239      1.0  0.15593  0.37562  0.77290  1.0000
  H   H391      1.0  0.12734  0.40562  0.93042  1.0000
  H   H392      1.0  0.04641  0.35674  0.64841  1.0000
  C   C240      1.0  0.14513  0.45684  0.94001  1.0000
  H   H393      1.0  0.11481  0.14644  0.84244  1.0000
  C   C241      1.0  0.00767  0.20676  0.84999  1.0000
  H   H394      1.0  0.16135  0.48622  0.80466  1.0000
  H   H395      1.0  0.16147  0.49514  0.58010  1.0000
  C   C242      1.0  0.02047  0.19619  0.47838  1.0000
  H   H396      1.0  0.99456  0.29670  0.88782  1.0000
  H   H397      1.0  0.99500  0.06619  0.52484  1.0000
  Fe  Fe39      1.0  0.11819  0.00096  0.87393  1.0000
  H   H398      1.0  0.13435  0.45139  0.49341  1.0000
  C   C243      1.0  0.12416  0.39810  0.94873  1.0000
  S   S68       1.0  0.16670  0.37888  0.48296  1.0000
  C   C244      1.0  0.02332  0.36291  0.49184  1.0000
  C   C245      1.0  0.05229  0.39513  0.48570  1.0000
  H   H399      1.0  0.00658  0.46965  0.93489  1.0000
  H   H400      1.0  0.06862  0.99968  0.79512  1.0000
  C   C246      1.0  0.04421  0.99759  0.54670  1.0000
  H   H401      1.0  0.00948  0.01661  0.63344  1.0000
  C   C247      1.0  0.99098  0.25809  0.66873  1.0000
  H   H402      1.0  0.00626  0.21011  0.86678  1.0000
  H   H403      1.0  0.01562  0.22273  0.50031  1.0000
  C   C248      1.0  0.03596  0.99916  0.81795  1.0000
  H   H404      1.0  0.06991  0.43792  0.56128  1.0000
  H   H405      1.0  0.08079  0.43569  0.53347  1.0000
  H   H406      1.0  0.04796  0.10626  0.51221  1.0000
  C   C249      1.0  0.05758  0.09446  0.48428  1.0000
  C   C250      1.0  0.10352  0.41548  0.78455  1.0000
  H   H407      1.0  0.00122  0.13388  0.52425  1.0000
  C   C251      1.0  0.14379  0.46777  0.51638  1.0000
  H   H408      1.0  0.17938  0.01669  0.57923  1.0000
  S   S69       1.0  0.07961  0.01142  0.91210  1.0000
  H   H409      1.0  0.15329  0.02662  0.92814  1.0000
  H   H410      1.0  0.00649  0.19445  0.48513  1.0000
  H   H411      1.0  0.00632  0.02385  0.96302  1.0000
  H   H412      1.0  0.10612  0.38065  0.79221  1.0000
  H   H413      1.0  0.11720  0.17874  0.90279  1.0000
  C   C252      1.0  0.00597  0.18924  0.84884  1.0000
  H   H414      1.0  0.12251  0.37149  0.96615  1.0000
  H   H415      1.0  0.01694  0.06786  0.89377  1.0000
  H   H416      1.0  0.06470  0.08753  0.49518  1.0000
  H   H417      1.0  0.98813  0.24404  0.67195  1.0000
  C   C253      1.0  0.05549  0.11036  0.49388  1.0000
  H   H418      1.0  0.01772  0.34077  0.52123  1.0000
  H   H419      1.0  0.01419  0.28230  0.88231  1.0000
  H   H420      1.0  0.15181  0.03190  0.49549  1.0000
  H   H421      1.0  0.08668  0.42676  0.55986  1.0000
  H   H422      1.0  0.99492  0.49223  0.49567  1.0000
  C   C254      1.0  0.12820  0.01133  0.53568  1.0000
  H   H423      1.0  0.00541  0.07402  0.48541  1.0000
  H   H424      1.0  0.05187  0.09528  0.95252  1.0000
  H   H425      1.0  0.09263  0.36179  0.76403  1.0000
  N   N14       1.0  0.12816  0.47076  0.53110  1.0000
  H   H426      1.0  0.02776  0.34210  0.64412  1.0000
  H   H427      1.0  0.09545  0.02215  0.61069  1.0000
  H   H428      1.0  0.13684  0.00542  0.52503  1.0000
  H   H429      1.0  0.99629  0.00010  0.67458  1.0000
  H   H430      1.0  0.99003  0.03411  0.89420  1.0000
  H   H431      1.0  0.08589  0.14361  0.91174  1.0000
  C   C255      1.0  0.99398  0.28577  0.64313  1.0000
  H   H432      1.0  0.14727  0.45627  0.52562  1.0000
  C   C256      1.0  0.06196  0.03012  0.48410  1.0000
  H   H433      1.0  0.16750  0.06787  0.84552  1.0000
  C   C257      1.0  0.08207  0.01006  0.75918  1.0000
  H   H434      1.0  0.11741  0.03052  0.61287  1.0000
  H   H435      1.0  0.14643  0.46509  0.76411  1.0000
  S   S70       1.0  0.99033  0.26268  0.76730  1.0000
  H   H436      1.0  0.06868  0.01649  0.73198  1.0000
  H   H437      1.0  0.13158  0.45786  0.56415  1.0000
  C   C258      1.0  0.03249  0.41716  0.94030  1.0000
  H   H438      1.0  0.13116  0.03626  0.49428  1.0000
  H   H439      1.0  0.99945  0.34348  0.50972  1.0000
  H   H440      1.0  0.01395  0.19508  0.78975  1.0000
  H   H441      1.0  0.07552  0.37477  0.48222  1.0000
  H   H442      1.0  0.00699  0.17173  0.82581  1.0000
  S   S71       1.0  0.00051  0.17305  0.87519  1.0000
  H   H443      1.0  0.09063  0.46551  0.53972  1.0000
  C   C259      1.0  0.01213  0.19839  0.80657  1.0000
  H   H444      1.0  0.13395  0.43380  0.92924  1.0000
  C   C260      1.0  0.17622  0.00385  0.50829  1.0000
  C   C261      1.0  0.99472  0.49449  0.86098  1.0000
  H   H445      1.0  0.09776  0.41734  0.76917  1.0000
  C   C262      1.0  0.16548  0.02178  0.83226  1.0000
  H   H446      1.0  0.05904  0.44399  0.91507  1.0000
  C   C263      1.0  0.02980  0.20314  0.49654  1.0000
  H   H447      1.0  0.14729  0.04156  0.96169  1.0000
  H   H448      1.0  0.14507  0.06429  0.85864  1.0000
  H   H449      1.0  0.13946  0.38032  0.93995  1.0000
  H   H450      1.0  0.03504  0.22613  0.51083  1.0000
  H   H451      1.0  0.04424  0.47446  0.47337  1.0000
  C   C264      1.0  0.06632  0.00675  0.74858  1.0000
  H   H452      1.0  0.15282  0.37667  0.72901  1.0000
  S   S72       1.0  0.18376  0.44467  0.70690  1.0000
  N   N15       1.0  0.01190  0.31541  0.85793  1.0000
  H   H453      1.0  0.02272  0.13913  0.52926  1.0000
  C   C265      1.0  0.02075  0.30242  0.84956  1.0000
  C   C266      1.0  0.02140  0.32481  0.87331  1.0000
  C   C267      1.0  0.01147  0.32862  0.83696  1.0000
  H   H454      1.0  0.01529  0.33488  0.49404  1.0000
  H   H455      1.0  0.99340  0.29329  0.62658  1.0000
  C   C268      1.0  0.04052  0.33460  0.86216  1.0000
  C   C269      1.0  0.02563  0.28987  0.86847  1.0000
  C   C270      1.0  0.03372  0.27690  0.85793  1.0000
  H   H456      1.0  0.99101  0.05952  0.92655  1.0000
  H   H457      1.0  0.16658  0.45809  0.48427  1.0000
  C   C271      1.0  0.04954  0.34183  0.87994  1.0000
  C   C272      1.0  0.15642  0.39853  0.70087  1.0000
  H   H458      1.0  0.13486  0.37635  0.71594  1.0000
  H   H459      1.0  0.04746  0.35869  0.49821  1.0000
  H   H460      1.0  0.03262  0.30911  0.83585  1.0000
  H   H461      1.0  0.02066  0.31570  0.88996  1.0000
  H   H462      1.0  0.01510  0.33480  0.87853  1.0000
  H   H463      1.0  0.10634  0.02425  0.77794  1.0000
  H   H464      1.0  0.02461  0.33420  0.82556  1.0000
  H   H465      1.0  0.18617  0.37610  0.92153  1.0000
  H   H466      1.0  0.15823  0.36567  0.80823  1.0000
  C   C273      1.0  0.18368  0.45312  0.55991  1.0000
  C   C274      1.0  0.16773  0.00596  0.58115  1.0000
  H   H467      1.0  0.04136  0.34580  0.84789  1.0000
  H   H468      1.0  0.04785  0.32605  0.85493  1.0000
  H   H469      1.0  0.03517  0.29712  0.87664  1.0000
  H   H470      1.0  0.17766  0.37012  0.78602  1.0000
  H   H471      1.0  0.02434  0.26837  0.85084  1.0000
  S   S73       1.0  0.99449  0.09429  0.89652  1.0000
  C   C275      1.0  0.12724  0.08077  0.95470  1.0000
  H   H472      1.0  0.01021  0.04842  0.62259  1.0000
  H   H473      1.0  0.98689  0.26503  0.85705  1.0000
  H   H474      1.0  0.04653  0.01157  0.54386  1.0000
  H   H475      1.0  0.09968  0.16940  0.92823  1.0000
  H   H476      1.0  0.14902  0.40702  0.69300  1.0000
  H   H477      1.0  0.16463  0.38478  0.75703  1.0000
  H   H478      1.0  0.04310  0.35104  0.88724  1.0000
  H   H479      1.0  0.04961  0.33109  0.89431  1.0000
  H   H480      1.0  0.06311  0.34893  0.87132  1.0000
  N   N16       1.0  0.02516  0.05226  0.87032  1.0000
  C   C276      1.0  0.03497  0.04302  0.88516  1.0000
  C   C277      1.0  0.01760  0.04100  0.85500  1.0000
  C   C278      1.0  0.03791  0.06839  0.85457  1.0000
  C   C279      1.0  0.01125  0.05778  0.88487  1.0000
  H   H481      1.0  0.17215  0.02615  0.93844  1.0000
  C   C280      1.0  0.04284  0.05288  0.90237  1.0000
  C   C281      1.0  0.03067  0.07962  0.83706  1.0000
  H   H482      1.0  0.03775  0.26853  0.87157  1.0000
  H   H483      1.0  0.16264  0.01903  0.54991  1.0000
  H   H484      1.0  0.02336  0.19510  0.51432  1.0000
  C   C282      1.0  0.13593  0.03140  0.52918  1.0000
  C   C283      1.0  0.04506  0.09383  0.81960  1.0000
  H   H485      1.0  0.04552  0.03979  0.87372  1.0000
  H   H486      1.0  0.02680  0.03032  0.89600  1.0000
  H   H487      1.0  0.00624  0.04490  0.85015  1.0000
  H   H488      1.0  0.02690  0.04319  0.83804  1.0000
  H   H489      1.0  0.04892  0.06474  0.84457  1.0000
  H   H490      1.0  0.04348  0.07744  0.86482  1.0000
  H   H491      1.0  0.03985  0.40523  0.52667  1.0000
  H   H492      1.0  0.00411  0.06431  0.87351  1.0000
  H   H493      1.0  0.16000  0.06341  0.95874  1.0000
  H   H494      1.0  0.99890  0.44115  0.91669  1.0000
  H   H495      1.0  0.05207  0.06554  0.89330  1.0000
  C   C284      1.0  0.07165  0.43544  0.87312  1.0000
  H   H496      1.0  0.02223  0.08624  0.84663  1.0000
  H   H497      1.0  0.02324  0.07176  0.82705  1.0000
  C   C285      1.0  0.11972  0.36347  0.76404  1.0000
  C   C286      1.0  0.01495  0.13493  0.51688  1.0000
  H   H498      1.0  0.05790  0.04938  0.92830  1.0000
  H   H499      1.0  0.16159  0.00091  0.59997  1.0000
  H   H500      1.0  0.16176  0.39204  0.68754  1.0000
  H   H501      1.0  0.08809  0.34021  0.74065  1.0000
  H   H502      1.0  0.09721  0.33226  0.76423  1.0000
  H   H503      1.0  0.03942  0.39778  0.48741  1.0000
  H   H504      1.0  0.04433  0.02937  0.92539  1.0000
  C   C287      1.0  0.10183  0.01519  0.79538  1.0000
  H   H505      1.0  0.14944  0.40704  0.95451  1.0000
  H   H506      1.0  0.01345  0.04728  0.59250  1.0000
  H   H507      1.0  0.03935  0.10194  0.80784  1.0000
  H   H508      1.0  0.05263  0.10239  0.82878  1.0000
  H   H509      1.0  0.01387  0.14247  0.48123  1.0000
  C   C288      1.0  0.14854  0.48732  0.57981  1.0000
  H   H510      1.0  0.07469  0.08116  0.93567  1.0000
  C   C289      1.0  0.15971  0.46703  0.47611  1.0000
  H   H511      1.0  0.16638  0.46573  0.90933  1.0000
  C   C290      1.0  0.99957  0.42745  0.91849  1.0000
  H   H512      1.0  0.05866  0.41597  0.90400  1.0000
  H   H513      1.0  0.17328  0.48193  0.77910  1.0000
  H   H514      1.0  0.15669  0.00137  0.48818  1.0000
  C   C291      1.0  0.02132  0.14778  0.49316  1.0000
  H   H515      1.0  0.98875  0.05736  0.57749  1.0000
  H   H516      1.0  0.10780  0.42834  0.78882  1.0000
  H   H517      1.0  0.07480  0.03761  0.48525  1.0000
  H   H518      1.0  0.12940  0.35757  0.75553  1.0000
  H   H519      1.0  0.03333  0.07652  0.50381  1.0000
  N   N17       1.0  0.13536  0.42512  0.96495  1.0000
  C   C292      1.0  0.16820  0.01615  0.89498  1.0000
  S   S74       1.0  0.17787  0.47753  0.65142  1.0000
  H   H520      1.0  0.03620  0.40687  0.93213  1.0000
  S   S75       1.0  0.99664  0.09907  0.82980  1.0000
  H   H521      1.0  0.12636  0.02626  0.57330  1.0000
  H   H522      1.0  0.05370  0.08799  0.80885  1.0000
  H   H523      1.0  0.10955  0.42355  0.96010  1.0000
  H   H524      1.0  0.00377  0.31106  0.81433  1.0000
  H   H525      1.0  0.01550  0.44252  0.94607  1.0000
  N   N18       1.0  0.12764  0.38213  0.76443  1.0000
  C   C293      1.0  0.13616  0.40696  0.96297  1.0000
  N   N19       1.0  0.05120  0.30223  0.63244  1.0000
  C   C294      1.0  0.04209  0.28965  0.61999  1.0000
  C   C295      1.0  0.04685  0.29439  0.65842  1.0000
  C   C296      1.0  0.04463  0.31832  0.62858  1.0000
  C   C297      1.0  0.07038  0.30779  0.62279  1.0000
  C   C298      1.0  0.07965  0.29310  0.62304  1.0000
  C   C299      1.0  0.04461  0.29619  0.59336  1.0000
  C   C300      1.0  0.05041  0.33205  0.64271  1.0000
  C   C301      1.0  0.04341  0.27432  0.66642  1.0000
  C   C302      1.0  0.04141  0.26874  0.69273  1.0000
  C   C303      1.0  0.09856  0.30035  0.61033  1.0000
  C   C304      1.0  0.03533  0.28197  0.58294  1.0000
  C   C305      1.0  0.04198  0.34701  0.63836  1.0000
  H   H526      1.0  0.02802  0.28583  0.62774  1.0000
  H   H527      1.0  0.04594  0.27728  0.62257  1.0000
  H   H528      1.0  0.05702  0.30066  0.66664  1.0000
  H   H529      1.0  0.03486  0.29716  0.66702  1.0000
  H   H530      1.0  0.03031  0.31454  0.63261  1.0000
  H   H531      1.0  0.04884  0.32541  0.60996  1.0000
  H   H532      1.0  0.07355  0.31575  0.60462  1.0000
  H   H533      1.0  0.07676  0.31659  0.63277  1.0000
  H   H534      1.0  0.07382  0.28307  0.61432  1.0000
  H   H535      1.0  0.07935  0.28694  0.64124  1.0000
  H   H536      1.0  0.03908  0.30740  0.58947  1.0000
  H   H537      1.0  0.05840  0.30006  0.58436  1.0000
  H   H538      1.0  0.06453  0.33773  0.63746  1.0000
  H   H539      1.0  0.04682  0.32636  0.66174  1.0000
  H   H540      1.0  0.03122  0.26771  0.66239  1.0000
  H   H541      1.0  0.05383  0.26943  0.65772  1.0000
  H   H542      1.0  0.03856  0.25434  0.69806  1.0000
  H   H543      1.0  0.05340  0.27454  0.69784  1.0000
  H   H544      1.0  0.03059  0.27283  0.70219  1.0000
  H   H545      1.0  0.09971  0.30633  0.59172  1.0000
  H   H546      1.0  0.10525  0.31029  0.61859  1.0000
  H   H547      1.0  0.10503  0.28965  0.61110  1.0000
  H   H548      1.0  0.11739  0.37376  0.93794  1.0000
  H   H549      1.0  0.14650  0.40486  0.74204  1.0000
  H   H550      1.0  0.04044  0.27035  0.58578  1.0000
  C   C306      1.0  0.99747  0.04298  0.90309  1.0000
  H   H551      1.0  0.10302  0.01263  0.63507  1.0000
  H   H552      1.0  0.11715  0.48494  0.50619  1.0000
  C   C307      1.0  0.12605  0.37980  0.94824  1.0000
  H   H553      1.0  0.12831  0.41703  0.76394  1.0000
  C   C308      1.0  0.11894  0.40796  0.77930  1.0000
  H   H554      1.0  0.12159  0.17208  0.93088  1.0000
  H   H555      1.0  0.04644  0.05234  0.50025  1.0000
  H   H556      1.0  0.05660  0.40106  0.54098  1.0000
  C   C309      1.0  0.09982  0.34224  0.74776  1.0000
  H   H557      1.0  0.11475  0.00961  0.82425  1.0000
  H   H558      1.0  0.03261  0.05521  0.91535  1.0000
  C   C310      1.0  0.14489  0.38484  0.72210  1.0000
  C   C311      1.0  0.05124  0.05732  0.48102  1.0000
  H   H559      1.0  0.16832  0.42098  0.89973  1.0000
  H   H560      1.0  0.13296  0.37451  0.79824  1.0000
  H   H561      1.0  0.15236  0.36239  0.76960  1.0000
  H   H562      1.0  0.03746  0.44904  0.94562  1.0000
  H   H563      1.0  0.12592  0.03791  0.53527  1.0000
  H   H564      1.0  0.15364  0.03738  0.86861  1.0000
  C   C312      1.0  0.13646  0.39355  0.74052  1.0000
  H   H565      1.0  0.17402  0.01604  0.87672  1.0000
  Fe  Fe40      1.0  0.99609  0.11066  0.86163  1.0000
  H   H566      1.0  0.12485  0.40760  0.79460  1.0000
  H   H567      1.0  0.06889  0.44492  0.85944  1.0000
  H   H568      1.0  0.01277  0.23340  0.83071  1.0000
  H   H569      1.0  0.10836  0.14136  0.93256  1.0000
  C   C313      1.0  0.05293  0.00104  0.84734  1.0000
  S   S76       1.0  0.09486  0.46903  0.95589  1.0000
  H   H570      1.0  0.14532  0.46343  0.90298  1.0000
  H   H571      1.0  0.09158  0.01987  0.80535  1.0000
  H   H572      1.0  0.08186  0.44236  0.88065  1.0000
  Fe  Fe41      1.0  0.01537  0.11620  0.90013  1.0000
  H   H573      1.0  0.01765  0.04979  0.49574  1.0000
  C   C314      1.0  0.02834  0.44656  0.93411  1.0000
  H   H574      1.0  0.99906  0.07825  0.79607  1.0000
  H   H575      1.0  0.04268  0.42167  0.94955  1.0000
  C   C315      1.0  0.03981  0.08225  0.48511  1.0000
  C   C316      1.0  0.11208  0.15062  0.91529  1.0000
  H   H576      1.0  0.99486  0.42096  0.93712  1.0000
  C   C317      1.0  0.01525  0.02463  0.61551  1.0000
  H   H577      1.0  0.11564  0.00209  0.76342  1.0000
  H   H578      1.0  0.08871  0.06899  0.92372  1.0000
  H   H579      1.0  0.01717  0.48232  0.48594  1.0000
  C   C318      1.0  0.98847  0.09278  0.57169  1.0000
  H   H580      1.0  0.18248  0.99784  0.90811  1.0000
  C   C319      1.0  0.04905  0.43918  0.90559  1.0000
  C   C320      1.0  0.01820  0.42663  0.90867  1.0000
  H   H581      1.0  0.16732  0.40676  0.70591  1.0000
  C   C321      1.0  0.11339  0.38935  0.77510  1.0000
  C   C322      1.0  0.05539  0.42622  0.89212  1.0000
  C   C323      1.0  0.11234  0.00556  0.60279  1.0000
  C   C324      1.0  0.13148  0.47108  0.55505  1.0000
  C   C325      1.0  0.17133  0.49235  0.78829  1.0000
  C   C326      1.0  0.01359  0.21586  0.80775  1.0000
  H   H582      1.0  0.04886  0.11817  0.48322  1.0000
  H   H583      1.0  0.16368  0.46724  0.72438  1.0000
  C   C327      1.0  0.13995  0.38223  0.78040  1.0000
  C   C328      1.0  0.14216  0.03836  0.50285  1.0000
  C   C329      1.0  0.08817  0.08172  0.92789  1.0000
  C   C330      1.0  0.11725  0.01331  0.57613  1.0000
  H   H584      1.0  0.10557  0.01611  0.57084  1.0000
  H   H585      1.0  0.02199  0.43474  0.89053  1.0000
  H   H586      1.0  0.01761  0.41308  0.90675  1.0000
  C   C331      1.0  0.11322  0.45536  0.53307  1.0000
  H   H587      1.0  0.12881  0.01633  0.79542  1.0000
  H   H588      1.0  0.10058  0.15695  0.88636  1.0000
  H   H589      1.0  0.04921  0.45059  0.89203  1.0000
  H   H590      1.0  0.04550  0.41985  0.88370  1.0000
  H   H591      1.0  0.00640  0.39983  0.95103  1.0000
  C   C332      1.0  0.99908  0.28466  0.68254  1.0000
  H   H592      1.0  0.99084  0.42511  0.88654  1.0000
  C   C333      1.0  0.00822  0.18512  0.82699  1.0000
  C   C334      1.0  0.02066  0.47564  0.93024  1.0000
  H   H593      1.0  0.12726  0.39950  0.73245  1.0000
  C   C335      1.0  0.17598  0.04778  0.88199  1.0000
  C   C336      1.0  0.14006  0.99758  0.56762  1.0000
  H   H594      1.0  0.15943  0.47772  0.55110  1.0000
  H   H595      1.0  0.14522  0.39561  0.78229  1.0000
  C   C337      1.0  0.10421  0.36052  0.75234  1.0000
  H   H596      1.0  0.02513  0.47734  0.94632  1.0000
  H   H597      1.0  0.99946  0.06882  0.59564  1.0000
  H   H598      1.0  0.15516  0.47903  0.51366  1.0000
  H   H599      1.0  0.04386  0.47160  0.91168  1.0000
  H   H600      1.0  0.18093  0.01781  0.50183  1.0000
  H   H601      1.0  0.15454  0.48150  0.91458  1.0000
  H   H602      1.0  0.15115  0.02260  0.57658  1.0000
  H   H603      1.0  0.18147  0.06058  0.88557  1.0000
  C   C338      1.0  0.06377  0.11801  0.96360  1.0000
  C   C339      1.0  0.16759  0.05176  0.92994  1.0000
  H   H604      1.0  0.99879  0.48334  0.86985  1.0000
  C   C340      1.0  0.99540  0.26652  0.68637  1.0000
  H   H605      1.0  0.10458  0.48950  0.54776  1.0000
  C   C341      1.0  0.16068  0.00362  0.83927  1.0000
  H   H606      1.0  0.11069  0.45445  0.51563  1.0000
  H   H607      1.0  0.13368  0.03903  0.81758  1.0000
  H   H608      1.0  0.02404  0.01611  0.86350  1.0000
  H   H609      1.0  0.15061  0.48976  0.69727  1.0000
  C   C342      1.0  0.14215  0.46484  0.49186  1.0000
  H   H610      1.0  0.02544  0.38533  0.97147  1.0000
  H   H611      1.0  0.16114  0.07579  0.87137  1.0000
  S   S77       1.0  0.99424  0.01582  0.77828  1.0000
  H   H612      1.0  0.02327  0.48869  0.91868  1.0000
  C   C343      1.0  0.04268  0.36422  0.48310  1.0000
  C   C344      1.0  0.01340  0.34437  0.50495  1.0000
  H   H613      1.0  0.14817  0.04510  0.89424  1.0000
  C   C345      1.0  0.99105  0.05395  0.47229  1.0000
  C   C346      1.0  0.00067  0.33619  0.80030  1.0000
  C   C347      1.0  0.01582  0.40754  0.95897  1.0000
  N   N20       1.0  0.17659  0.03300  0.90085  1.0000
  C   C348      1.0  0.98698  0.41876  0.90539  1.0000
  H   H614      1.0  0.99927  0.09897  0.57885  1.0000
  H   H615      1.0  0.08429  0.02357  0.76175  1.0000
  N   N21       1.0  0.12441  0.00227  0.56113  1.0000
  H   H616      1.0  0.99130  0.32620  0.71649  1.0000
  H   H617      1.0  0.15948  0.05810  0.92022  1.0000
  H   H618      1.0  0.15076  0.49224  0.73791  1.0000
  H   H619      1.0  0.05558  0.02802  0.96675  1.0000
  H   H620      1.0  0.99675  0.34726  0.80622  1.0000
  H   H621      1.0  0.14537  0.47494  0.59316  1.0000
  H   H622      1.0  0.12339  0.00220  0.60904  1.0000
  C   C349      1.0  0.18207  0.45731  0.58190  1.0000
  H   H623      1.0  0.17892  0.42159  0.75105  1.0000
  C   C350      1.0  0.16910  0.99911  0.91082  1.0000
  C   C351      1.0  0.15797  0.06502  0.86236  1.0000
  C   C352      1.0  0.00112  0.01168  0.85029  1.0000
  C   C353      1.0  0.15788  0.04774  0.87770  1.0000
  C   C354      1.0  0.16721  0.03352  0.92479  1.0000
  H   H624      1.0  0.03213  0.09091  0.47837  1.0000
  C   C355      1.0  0.12499  0.48751  0.51920  1.0000
  H   H625      1.0  0.05485  0.00792  0.76065  1.0000
  H   H626      1.0  0.00994  0.41662  0.96715  1.0000
  H   H627      1.0  0.04349  0.20290  0.49279  1.0000
  H   H628      1.0  0.02530  0.06887  0.95084  1.0000
  H   H629      1.0  0.12698  0.08567  0.97039  1.0000
  H   H630      1.0  0.17124  0.44269  0.95853  1.0000
  H   H631      1.0  0.18407  0.32380  0.91766  1.0000
  H   H632      1.0  0.99372  0.08945  0.55515  1.0000
  C   C356      1.0  0.17597  0.41462  0.90952  1.0000
  H   H633      1.0  0.06916  0.43563  0.96907  1.0000
  H   H634      1.0  0.03507  0.14833  0.48702  1.0000
  H   H635      1.0  0.00722  0.01595  0.83139  1.0000
  H   H636      1.0  0.09318  0.43079  0.47882  1.0000
  H   H637      1.0  0.14825  0.05258  0.49892  1.0000
  H   H638      1.0  0.06156  0.40788  0.47700  1.0000
  H   H639      1.0  0.01741  0.36640  0.47702  1.0000
  C   C357      1.0  0.01397  0.06426  0.96580  1.0000
  C   C358      1.0  0.18275  0.03076  0.82170  1.0000
  H   H640      1.0  0.99283  0.24909  0.87712  1.0000
  H   H641      1.0  0.98834  0.01447  0.85323  1.0000
  H   H642      1.0  0.18422  0.04766  0.86506  1.0000
  H   H643      1.0  0.06461  0.06547  0.47825  1.0000
  H   H644      1.0  0.09329  0.00912  0.74649  1.0000
  H   H645      1.0  0.16892  0.04529  0.96640  1.0000
  H   H646      1.0  0.98882  0.06501  0.63424  1.0000
  H   H647      1.0  0.18064  0.06070  0.92488  1.0000
  H   H648      1.0  0.98733  0.29699  0.86175  1.0000
  C   C359      1.0  0.07898  0.99692  0.78275  1.0000
  H   H649      1.0  0.99250  0.10641  0.96974  1.0000
  H   H650      1.0  0.06371  0.01935  0.47555  1.0000
  H   H651      1.0  0.98687  0.32358  0.89306  1.0000
  H   H652      1.0  0.13900  0.49470  0.58437  1.0000
  C   C360      1.0  0.98694  0.07688  0.83161  1.0000
  C   C361      1.0  0.98747  0.03336  0.61306  1.0000
  C   C362      1.0  0.18611  0.38941  0.92176  1.0000
  C   C363      1.0  0.18632  0.42382  0.92215  1.0000
  N   N22       1.0  0.02366  0.17960  0.47241  1.0000
  C   C364      1.0  0.00806  0.06655  0.47201  1.0000
  H   H653      1.0  0.06206  0.94808  0.37935  1.0000
  C   C365      1.0  0.06486  0.94683  0.34321  1.0000
  Fe  Fe42      1.0  0.02515  0.88706  0.38620  1.0000
  S   S78       1.0  0.02039  0.87924  0.35310  1.0000
  S   S79       1.0  0.05197  0.90138  0.38782  1.0000
  H   H654      1.0  0.00248  0.86537  0.02023  1.0000
  H   H655      1.0  0.05387  0.93505  0.34742  1.0000
  Fe  Fe43      1.0  0.00451  0.85341  0.37627  1.0000
  S   S80       1.0  0.00610  0.82615  0.37223  1.0000
  S   S81       1.0  0.99624  0.97848  0.02809  1.0000
  S   S82       1.0  0.01110  0.86067  0.40891  1.0000
  H   H656      1.0  0.14108  0.82954  0.41762  1.0000
  H   H657      1.0  0.03887  0.86864  0.31110  1.0000
  H   H658      1.0  0.12754  0.58210  0.41800  1.0000
  C   C366      1.0  0.04303  0.70565  0.98027  1.0000
  H   H659      1.0  0.09101  0.63159  0.38992  1.0000
  C   C367      1.0  0.03605  0.88022  0.01659  1.0000
  Fe  Fe44      1.0  0.98769  0.87094  0.41217  1.0000
  S   S83       1.0  0.03047  0.98031  0.29180  1.0000
  C   C368      1.0  0.15636  0.84255  0.45029  1.0000
  H   H660      1.0  0.04427  0.82826  0.29271  1.0000
  H   H661      1.0  0.03638  0.85652  0.28892  1.0000
  H   H662      1.0  0.03978  0.98569  0.34455  1.0000
  C   C369      1.0  0.06253  0.54715  0.01228  1.0000
  Fe  Fe45      1.0  0.13748  0.76730  0.38113  1.0000
  S   S84       1.0  0.14119  0.74022  0.38761  1.0000
  S   S85       1.0  0.15638  0.79155  0.38641  1.0000
  Fe  Fe46      1.0  0.10503  0.75505  0.36122  1.0000
  S   S86       1.0  0.10718  0.72759  0.36633  1.0000
  S   S87       1.0  0.08134  0.76233  0.35123  1.0000
  Fe  Fe47      1.0  0.11247  0.73086  0.40089  1.0000
  S   S88       1.0  0.09680  0.71157  0.43420  1.0000
  Fe  Fe48      1.0  0.13555  0.73931  0.35217  1.0000
  S   S89       1.0  0.15099  0.72588  0.32915  1.0000
  S   S90       1.0  0.10895  0.75793  0.39678  1.0000
  S   S91       1.0  0.13334  0.76691  0.34463  1.0000
  Fe  Fe49      1.0  0.10325  0.72820  0.00202  1.0000
  S   S92       1.0  0.10118  0.70129  0.02186  1.0000
  S   S93       1.0  0.08222  0.74237  0.00627  1.0000
  Fe  Fe50      1.0  0.12857  0.71219  0.02411  1.0000
  S   S94       1.0  0.13446  0.70107  0.05879  1.0000
  S   S95       1.0  0.13006  0.73973  0.00616  1.0000
  Fe  Fe51      1.0  0.00030  0.72591  0.29980  1.0000
  S   S96       1.0  0.02512  0.71940  0.30660  1.0000
  S   S97       1.0  0.00045  0.75038  0.27495  1.0000
  H   H663      1.0  0.14325  0.86994  0.45527  1.0000
  S   S98       1.0  0.00535  0.70359  0.06116  1.0000
  H   H664      1.0  0.17912  0.55697  0.22601  1.0000
  H   H665      1.0  0.05004  0.89716  0.05159  1.0000
  H   H666      1.0  0.06160  0.50165  0.20277  1.0000
  C   C370      1.0  0.17303  0.65335  0.15800  1.0000
  S   S99       1.0  0.16286  0.73615  0.21896  1.0000
  H   H667      1.0  0.06660  0.53355  0.04558  1.0000
  H   H668      1.0  0.09399  0.53616  0.00497  1.0000
  S   S100      1.0  0.17175  0.70676  0.17499  1.0000
  H   H669      1.0  0.16476  0.78517  0.46743  1.0000
  S   S101      1.0  0.09352  0.63148  0.44502  1.0000
  C   C371      1.0  0.99798  0.50754  0.33867  1.0000
  H   H670      1.0  0.12315  0.59866  0.17826  1.0000
  H   H671      1.0  0.15109  0.58350  0.07919  1.0000
  N   N23       1.0  0.02130  0.87889  0.03660  1.0000
  S   S102      1.0  0.05639  0.53453  0.38086  1.0000
  H   H672      1.0  0.99184  0.95623  0.43142  1.0000
  Fe  Fe52      1.0  0.13100  0.54899  0.12651  1.0000
  S   S103      1.0  0.12892  0.52858  0.15845  1.0000
  S   S104      1.0  0.12112  0.54648  0.09336  1.0000
  Fe  Fe53      1.0  0.15004  0.57853  0.14665  1.0000
  S   S105      1.0  0.14950  0.56019  0.17988  1.0000
  S   S106      1.0  0.15832  0.60830  0.13680  1.0000
  Fe  Fe54      1.0  0.15648  0.54239  0.15687  1.0000
  S   S107      1.0  0.17287  0.52407  0.16653  1.0000
  Fe  Fe55      1.0  0.12230  0.54763  0.17933  1.0000
  S   S108      1.0  0.09977  0.54252  0.21031  1.0000
  S   S109      1.0  0.15910  0.56166  0.12338  1.0000
  S   S110      1.0  0.12225  0.56713  0.14753  1.0000
  H   H673      1.0  0.09274  0.51689  0.03996  1.0000
  H   H674      1.0  0.00654  0.49643  0.30948  1.0000
  C   C372      1.0  0.10819  0.52813  0.08632  1.0000
  C   C373      1.0  0.09475  0.51564  0.05742  1.0000
  C   C374      1.0  0.10519  0.52967  0.06370  1.0000
  S   S111      1.0  0.99248  0.99040  0.14045  1.0000
  H   H675      1.0  0.11117  0.54173  0.05089  1.0000
  C   C375      1.0  0.06341  0.95727  0.36253  1.0000
  H   H676      1.0  0.07547  0.66545  0.01690  1.0000
  H   H677      1.0  0.08166  0.80643  0.33569  1.0000
  C   C376      1.0  0.10933  0.51890  0.24155  1.0000
  C   C377      1.0  0.09715  0.52797  0.23725  1.0000
  C   C378      1.0  0.08242  0.52556  0.25485  1.0000
  C   C379      1.0  0.05955  0.60468  0.39730  1.0000
  H   H678      1.0  0.13518  0.61689  0.18740  1.0000
  C   C380      1.0  0.03230  0.95217  0.36923  1.0000
  H   H679      1.0  0.07296  0.53256  0.25166  1.0000
  H   H680      1.0  0.02808  0.72033  0.19745  1.0000
  C   C381      1.0  0.06996  0.54258  0.44983  1.0000
  C   C382      1.0  0.06080  0.55278  0.43871  1.0000
  C   C383      1.0  0.05705  0.55044  0.41737  1.0000
  C   C384      1.0  0.06153  0.53715  0.40758  1.0000
  C   C385      1.0  0.06988  0.52624  0.41927  1.0000
  C   C386      1.0  0.07427  0.52909  0.44022  1.0000
  H   H681      1.0  0.00043  0.53286  0.39627  1.0000
  H   H682      1.0  0.05040  0.55877  0.40858  1.0000
  H   H683      1.0  0.07329  0.51584  0.41195  1.0000
  H   H684      1.0  0.03224  0.93392  0.44422  1.0000
  C   C387      1.0  0.12756  0.84671  0.44716  1.0000
  H   H685      1.0  0.99415  0.77200  0.34447  1.0000
  C   C388      1.0  0.16618  0.62325  0.15328  1.0000
  H   H686      1.0  0.16521  0.57657  0.24507  1.0000
  H   H687      1.0  0.12938  0.61828  0.06515  1.0000
  C   C389      1.0  0.02152  0.67914  0.00518  1.0000
  C   C390      1.0  0.08935  0.54338  0.99088  1.0000
  C   C391      1.0  0.11830  0.65156  0.35478  1.0000
  H   H688      1.0  0.00583  0.79113  0.36927  1.0000
  C   C392      1.0  0.15016  0.71110  0.07259  1.0000
  C   C393      1.0  0.16092  0.72786  0.06296  1.0000
  H   H689      1.0  0.08909  0.53250  0.16913  1.0000
  H   H690      1.0  0.02422  0.52914  0.41492  1.0000
  C   C394      1.0  0.16388  0.70940  0.10578  1.0000
  C   C395      1.0  0.15165  0.70197  0.09410  1.0000
  H   H691      1.0  0.15990  0.73504  0.04644  1.0000
  H   H692      1.0  0.05886  0.66496  0.04151  1.0000
  H   H693      1.0  0.14326  0.68908  0.10182  1.0000
  C   C396      1.0  0.02661  0.71515  0.04638  1.0000
  C   C397      1.0  0.03086  0.73232  0.03349  1.0000
  C   C398      1.0  0.04803  0.74066  0.02157  1.0000
  C   C399      1.0  0.06101  0.73191  0.02249  1.0000
  C   C400      1.0  0.05676  0.71488  0.03577  1.0000
  C   C401      1.0  0.03962  0.70650  0.04742  1.0000
  H   H694      1.0  0.02094  0.73911  0.03251  1.0000
  H   H695      1.0  0.05124  0.75388  0.01137  1.0000
  H   H696      1.0  0.06666  0.70811  0.03684  1.0000
  H   H697      1.0  0.03641  0.69318  0.05727  1.0000
  C   C402      1.0  0.09572  0.68931  0.43679  1.0000
  C   C403      1.0  0.10519  0.68351  0.41943  1.0000
  C   C404      1.0  0.10431  0.66570  0.42220  1.0000
  C   C405      1.0  0.09391  0.65360  0.44225  1.0000
  C   C406      1.0  0.00633  0.89329  0.46741  1.0000
  C   C407      1.0  0.08507  0.67716  0.45665  1.0000
  H   H698      1.0  0.11342  0.69279  0.40406  1.0000
  H   H699      1.0  0.11192  0.66133  0.40890  1.0000
  H   H700      1.0  0.03839  0.64457  0.43778  1.0000
  S   S112      1.0  0.06139  0.94988  0.45965  1.0000
  C   C408      1.0  0.15341  0.72847  0.29865  1.0000
  C   C409      1.0  0.14701  0.74057  0.28551  1.0000
  C   C410      1.0  0.14992  0.74272  0.26113  1.0000
  C   C411      1.0  0.15931  0.73287  0.24967  1.0000
  C   C412      1.0  0.16566  0.72074  0.26281  1.0000
  C   C413      1.0  0.16265  0.71851  0.28718  1.0000
  H   H701      1.0  0.13995  0.74836  0.29413  1.0000
  H   H702      1.0  0.14496  0.75213  0.25110  1.0000
  C   C414      1.0  0.18511  0.67301  0.08156  1.0000
  Fe  Fe56      1.0  0.98983  0.99271  0.05648  1.0000
  C   C415      1.0  0.06569  0.74935  0.33987  1.0000
  C   C416      1.0  0.06958  0.73740  0.32687  1.0000
  C   C417      1.0  0.05702  0.72828  0.31690  1.0000
  C   C418      1.0  0.04053  0.73119  0.31947  1.0000
  C   C419      1.0  0.03657  0.74288  0.33283  1.0000
  C   C420      1.0  0.04901  0.75170  0.34316  1.0000
  H   H703      1.0  0.08237  0.73547  0.32406  1.0000
  H   H704      1.0  0.06021  0.71918  0.30674  1.0000
  H   H705      1.0  0.02387  0.74503  0.33537  1.0000
  H   H706      1.0  0.04563  0.76034  0.35386  1.0000
  C   C421      1.0  0.16650  0.79725  0.40922  1.0000
  C   C422      1.0  0.10661  0.59151  0.35922  1.0000
  C   C423      1.0  0.13678  0.65348  0.06182  1.0000
  H   H707      1.0  0.99903  0.87994  0.46749  1.0000
  C   C424      1.0  0.01418  0.53433  0.42398  1.0000
  C   C425      1.0  0.16157  0.78711  0.43207  1.0000
  H   H708      1.0  0.13066  0.85242  0.42808  1.0000
  H   H709      1.0  0.18114  0.74843  0.06733  1.0000
  H   H710      1.0  0.02897  0.76232  0.09002  1.0000
  H   H711      1.0  0.15174  0.77492  0.43620  1.0000
  H   H712      1.0  0.07150  0.98178  0.99456  1.0000
  C   C426      1.0  0.98662  0.95606  0.03220  1.0000
  C   C427      1.0  0.05467  0.91497  0.40764  1.0000
  C   C428      1.0  0.04066  0.91937  0.41977  1.0000
  C   C429      1.0  0.04312  0.93052  0.43505  1.0000
  C   C430      1.0  0.05954  0.93720  0.43864  1.0000
  C   C431      1.0  0.07367  0.93316  0.42613  1.0000
  C   C432      1.0  0.07122  0.92205  0.41067  1.0000
  H   H713      1.0  0.02794  0.91418  0.41732  1.0000
  C   C433      1.0  0.05035  0.64710  0.42415  1.0000
  H   H714      1.0  0.08639  0.93827  0.42873  1.0000
  H   H715      1.0  0.08214  0.91879  0.40121  1.0000
  H   H716      1.0  0.99112  0.80102  0.99654  1.0000
  S   S113      1.0  0.98842  0.88247  0.98821  1.0000
  H   H717      1.0  0.06714  0.52475  0.16666  1.0000
  C   C434      1.0  0.13645  0.82183  0.43593  1.0000
  C   C435      1.0  0.02645  0.87525  0.05970  1.0000
  H   H718      1.0  0.10422  0.65573  0.03142  1.0000
  H   H719      1.0  0.08284  0.57917  0.38481  1.0000
  H   H720      1.0  0.05486  0.54323  0.99958  1.0000
  S   S114      1.0  0.11386  0.97503  0.44699  1.0000
  H   H721      1.0  0.05264  0.65491  0.99593  1.0000
  C   C436      1.0  0.01742  0.95908  0.30408  1.0000
  C   C437      1.0  0.02506  0.94570  0.31084  1.0000
  C   C438      1.0  0.01485  0.92877  0.32148  1.0000
  C   C439      1.0  0.04795  0.88103  0.08503  1.0000
  H   H722      1.0  0.09658  0.56457  0.35712  1.0000
  H   H723      1.0  0.03890  0.94843  0.30786  1.0000
  H   H724      1.0  0.02081  0.91853  0.32686  1.0000
  H   H725      1.0  0.05659  0.56248  0.44657  1.0000
  C   C440      1.0  0.01502  0.71123  0.20345  1.0000
  H   H726      1.0  0.11814  0.60572  0.22766  1.0000
  C   C441      1.0  0.11484  0.58447  0.02600  1.0000
  H   H727      1.0  0.17028  0.63014  0.24341  1.0000
  S   S115      1.0  0.10397  0.67029  0.97779  1.0000
  H   H728      1.0  0.09786  0.57298  0.41184  1.0000
  H   H729      1.0  0.16179  0.94747  0.46644  1.0000
  C   C442      1.0  0.05240  0.68141  0.99950  1.0000
  H   H730      1.0  0.16266  0.64505  0.13003  1.0000
  C   C443      1.0  0.99350  0.68058  0.12699  1.0000
  H   H731      1.0  0.03369  0.51859  0.03016  1.0000
  N   N24       1.0  0.00685  0.51106  0.46283  1.0000
  H   H732      1.0  0.06521  0.68562  0.98715  1.0000
  C   C444      1.0  0.10657  0.50722  0.26316  1.0000
  H   H733      1.0  0.09014  0.55380  0.03140  1.0000
  H   H734      1.0  0.03648  0.65537  0.02034  1.0000
  C   C445      1.0  0.17175  0.61809  0.17353  1.0000
  C   C446      1.0  0.00817  0.50935  0.31395  1.0000
  H   H735      1.0  0.15431  0.59761  0.05099  1.0000
  C   C447      1.0  0.05027  0.97904  0.34239  1.0000
  H   H736      1.0  0.11470  0.57704  0.33392  1.0000
  C   C448      1.0  0.99698  0.92505  0.32461  1.0000
  H   H737      1.0  0.02117  0.57945  0.46659  1.0000
  C   C449      1.0  0.99021  0.67916  0.01848  1.0000
  H   H738      1.0  0.18355  0.93874  0.44190  1.0000
  H   H739      1.0  0.02205  0.51496  0.31270  1.0000
  S   S116      1.0  0.07641  0.49577  0.99736  1.0000
  H   H740      1.0  0.01151  0.70191  0.00792  1.0000
  H   H741      1.0  0.06498  0.52047  0.02440  1.0000
  H   H742      1.0  0.01365  0.71695  0.36880  1.0000
  H   H743      1.0  0.99405  0.95640  0.99571  1.0000
  C   C450      1.0  0.07455  0.49927  0.19853  1.0000
  H   H744      1.0  0.00004  0.93413  0.39692  1.0000
  H   H745      1.0  0.11273  0.56786  0.44373  1.0000
  H   H746      1.0  0.03147  0.94168  0.38455  1.0000
  H   H747      1.0  0.08162  0.93265  0.32762  1.0000
  H   H748      1.0  0.13848  0.69083  0.15398  1.0000
  C   C451      1.0  0.16902  0.79298  0.44979  1.0000
  H   H749      1.0  0.01792  0.97881  0.97598  1.0000
  H   H750      1.0  0.10776  0.50259  0.20025  1.0000
  H   H751      1.0  0.02719  0.89535  0.98879  1.0000
  H   H752      1.0  0.99355  0.96565  0.30228  1.0000
  H   H753      1.0  0.08212  0.57218  0.02544  1.0000
  N   N25       1.0  0.12944  0.57746  0.24503  1.0000
  C   C452      1.0  0.12954  0.58442  0.21987  1.0000
  C   C453      1.0  0.13863  0.56318  0.24616  1.0000
  C   C454      1.0  0.11090  0.56931  0.25790  1.0000
  C   C455      1.0  0.10790  0.55879  0.28331  1.0000
  C   C456      1.0  0.02822  0.91263  0.03005  1.0000
  C   C457      1.0  0.08934  0.55554  0.29673  1.0000
  H   H754      1.0  0.12537  0.57348  0.21146  1.0000
  C   C458      1.0  0.14841  0.60941  0.08052  1.0000
  H   H755      1.0  0.13222  0.55278  0.23821  1.0000
  H   H756      1.0  0.10423  0.56044  0.24824  1.0000
  H   H757      1.0  0.10379  0.57950  0.25863  1.0000
  H   H758      1.0  0.10414  0.58865  0.21918  1.0000
  H   H759      1.0  0.11650  0.56568  0.29299  1.0000
  H   H760      1.0  0.11035  0.54582  0.28322  1.0000
  H   H761      1.0  0.16097  0.57626  0.21660  1.0000
  H   H762      1.0  0.11278  0.61450  0.18773  1.0000
  H   H763      1.0  0.08639  0.56802  0.29870  1.0000
  H   H764      1.0  0.08023  0.54874  0.28757  1.0000
  H   H765      1.0  0.08741  0.54721  0.31438  1.0000
  N   N26       1.0  0.05057  0.81310  0.32215  1.0000
  C   C459      1.0  0.04287  0.79582  0.31699  1.0000
  C   C460      1.0  0.04741  0.81172  0.34821  1.0000
  C   C461      1.0  0.04682  0.79405  0.36396  1.0000
  C   C462      1.0  0.04615  0.79549  0.38918  1.0000
  C   C463      1.0  0.03849  0.77708  0.28764  1.0000
  H   H766      1.0  0.02905  0.79097  0.32617  1.0000
  H   H767      1.0  0.04891  0.78573  0.32402  1.0000
  H   H768      1.0  0.05705  0.82214  0.35232  1.0000
  H   H769      1.0  0.03476  0.81407  0.35484  1.0000
  H   H770      1.0  0.02725  0.82042  0.31810  1.0000
  H   H771      1.0  0.04374  0.84345  0.33662  1.0000
  H   H772      1.0  0.03503  0.78411  0.36397  1.0000
  H   H773      1.0  0.05806  0.78921  0.35807  1.0000
  H   H774      1.0  0.03470  0.79984  0.39610  1.0000
  H   H775      1.0  0.04527  0.78256  0.40010  1.0000
  H   H776      1.0  0.05797  0.80485  0.39036  1.0000
  H   H777      1.0  0.02565  0.77000  0.29899  1.0000
  H   H778      1.0  0.03784  0.77733  0.26923  1.0000
  H   H779      1.0  0.02111  0.84958  0.31686  1.0000
  N   N27       1.0  0.01057  0.70658  0.14075  1.0000
  C   C464      1.0  0.00741  0.71982  0.12195  1.0000
  C   C465      1.0  0.99597  0.69024  0.14670  1.0000
  C   C466      1.0  0.01009  0.71394  0.16230  1.0000
  C   C467      1.0  0.02775  0.70260  0.13413  1.0000
  C   C468      1.0  0.03499  0.70384  0.10789  1.0000
  C   C469      1.0  0.01953  0.73845  0.11697  1.0000
  C   C470      1.0  0.01071  0.70140  0.18482  1.0000
  H   H780      1.0  0.02332  0.87245  0.98915  1.0000
  C   C471      1.0  0.11817  0.81030  0.43765  1.0000
  C   C472      1.0  0.05099  0.69697  0.10447  1.0000
  C   C473      1.0  0.01991  0.74926  0.09313  1.0000
  H   H781      1.0  0.16209  0.61373  0.08124  1.0000
  H   H782      1.0  0.00821  0.71550  0.10532  1.0000
  H   H783      1.0  0.99760  0.68040  0.16103  1.0000
  C   C474      1.0  0.16194  0.64836  0.07590  1.0000
  H   H784      1.0  0.99827  0.71849  0.16634  1.0000
  H   H785      1.0  0.02102  0.72569  0.15923  1.0000
  H   H786      1.0  0.03793  0.71157  0.13960  1.0000
  H   H787      1.0  0.02721  0.68935  0.14390  1.0000
  H   H788      1.0  0.03880  0.71756  0.09786  1.0000
  H   H789      1.0  0.02550  0.69643  0.09991  1.0000
  H   H790      1.0  0.01496  0.74533  0.13036  1.0000
  H   H791      1.0  0.03289  0.73811  0.11764  1.0000
  H   H792      1.0  0.02048  0.69409  0.18129  1.0000
  C   C475      1.0  0.06595  0.98230  0.39108  1.0000
  H   H793      1.0  0.11231  0.80218  0.45546  1.0000
  C   C476      1.0  0.98783  0.81874  0.33860  1.0000
  H   H794      1.0  0.99907  0.93542  0.36684  1.0000
  H   H795      1.0  0.00454  0.67510  0.12218  1.0000
  H   H796      1.0  0.06048  0.64510  0.03262  1.0000
  H   H797      1.0  0.05639  0.69866  0.08560  1.0000
  H   H798      1.0  0.06104  0.70428  0.11190  1.0000
  H   H799      1.0  0.04769  0.68289  0.11287  1.0000
  C   C477      1.0  0.99953  0.95540  0.30750  1.0000
  H   H800      1.0  0.04754  0.89057  0.01635  1.0000
  H   H801      1.0  0.01624  0.55318  0.39234  1.0000
  S   S117      1.0  0.18587  0.66323  0.19496  1.0000
  S   S118      1.0  0.04696  0.50066  0.34175  1.0000
  C   C478      1.0  0.17449  0.72626  0.09631  1.0000
  H   H802      1.0  0.16308  0.67647  0.06871  1.0000
  N   N28       1.0  0.08089  0.55655  0.99968  1.0000
  Fe  Fe57      1.0  0.11233  0.69649  0.98726  1.0000
  C   C479      1.0  0.17797  0.63055  0.18587  1.0000
  H   H803      1.0  0.07698  0.59125  0.99732  1.0000
  C   C480      1.0  0.08409  0.65932  0.45935  1.0000
  C   C481      1.0  0.02043  0.92791  0.02440  1.0000
  H   H804      1.0  0.00934  0.53631  0.47146  1.0000
  H   H805      1.0  0.01806  0.87940  0.07323  1.0000
  C   C482      1.0  0.06190  0.65921  0.02626  1.0000
  H   H806      1.0  0.03285  0.91361  0.04616  1.0000
  C   C483      1.0  0.17938  0.81306  0.40440  1.0000
  C   C484      1.0  0.99904  0.79590  0.35670  1.0000
  H   H807      1.0  0.02331  0.67898  0.02325  1.0000
  H   H808      1.0  0.05371  0.68855  0.01356  1.0000
  H   H809      1.0  0.00378  0.90255  0.45324  1.0000
  H   H810      1.0  0.11784  0.60454  0.39428  1.0000
  H   H811      1.0  0.05602  0.98328  0.03606  1.0000
  H   H812      1.0  0.07125  0.97153  0.39834  1.0000
  C   C485      1.0  0.01470  0.89499  0.03397  1.0000
  H   H813      1.0  0.03963  0.51053  0.05669  1.0000
  H   H814      1.0  0.07123  0.71405  0.97424  1.0000
  H   H815      1.0  0.12650  0.64043  0.03625  1.0000
  H   H816      1.0  0.00774  0.69544  0.36318  1.0000
  C   C486      1.0  0.99179  0.94496  0.44510  1.0000
  C   C487      1.0  0.99969  0.94290  0.38063  1.0000
  H   H817      1.0  0.18325  0.87335  0.43946  1.0000
  H   H818      1.0  0.10961  0.81851  0.43276  1.0000
  C   C488      1.0  0.08092  0.99370  0.99543  1.0000
  C   C489      1.0  0.17375  0.95755  0.45695  1.0000
  H   H819      1.0  0.02912  0.53088  0.46425  1.0000
  H   H820      1.0  0.12854  0.59186  0.01927  1.0000
  S   S119      1.0  0.00229  0.89791  0.39227  1.0000
  C   C490      1.0  0.98935  0.93834  0.31745  1.0000
  H   H821      1.0  0.03687  0.99120  0.11667  1.0000
  H   H822      1.0  0.04023  0.86794  0.01891  1.0000
  H   H823      1.0  0.10721  0.59374  0.03014  1.0000
  H   H824      1.0  0.01514  0.96588  0.38701  1.0000
  C   C491      1.0  0.04284  0.59981  0.41602  1.0000
  H   H825      1.0  0.04428  0.60732  0.42970  1.0000
  H   H826      1.0  0.03228  0.60275  0.40807  1.0000
  H   H827      1.0  0.03919  0.58566  0.42427  1.0000
  H   H828      1.0  0.14043  0.60469  0.09856  1.0000
  H   H829      1.0  0.08229  0.99298  0.01363  1.0000
  H   H830      1.0  0.16214  0.60276  0.23068  1.0000
  H   H831      1.0  0.03262  0.96532  0.97910  1.0000
  C   C492      1.0  0.04977  0.66177  0.01007  1.0000
  C   C493      1.0  0.08038  0.52325  0.16206  1.0000
  H   H832      1.0  0.02033  0.54480  0.43181  1.0000
  C   C494      1.0  0.18180  0.80887  0.44501  1.0000
  C   C495      1.0  0.12251  0.60728  0.19074  1.0000
  C   C496      1.0  0.99714  0.56470  0.46167  1.0000
  H   H833      1.0  0.01566  0.66533  0.00514  1.0000
  H   H834      1.0  0.00043  0.98338  0.18518  1.0000
  N   N29       1.0  0.05129  0.69368  0.39058  1.0000
  C   C497      1.0  0.05343  0.70396  0.40906  1.0000
  C   C498      1.0  0.04504  0.67456  0.40223  1.0000
  C   C499      1.0  0.06842  0.69775  0.37367  1.0000
  C   C500      1.0  0.03839  0.69853  0.37732  1.0000
  C   C501      1.0  0.02036  0.69702  0.39228  1.0000
  C   C502      1.0  0.05773  0.72405  0.40059  1.0000
  C   C503      1.0  0.06949  0.68684  0.35488  1.0000
  C   C504      1.0  0.05782  0.66665  0.41404  1.0000
  C   C505      1.0  0.08032  0.57028  0.97935  1.0000
  C   C506      1.0  0.00866  0.70286  0.37705  1.0000
  C   C507      1.0  0.05899  0.73304  0.42081  1.0000
  C   C508      1.0  0.08773  0.69166  0.33975  1.0000
  H   H835      1.0  0.06404  0.70132  0.41723  1.0000
  H   H836      1.0  0.04179  0.69965  0.42362  1.0000
  H   H837      1.0  0.03323  0.67209  0.41616  1.0000
  H   H838      1.0  0.04104  0.66676  0.38965  1.0000
  H   H839      1.0  0.07875  0.69655  0.38319  1.0000
  H   H840      1.0  0.07209  0.71156  0.36393  1.0000
  H   H841      1.0  0.04348  0.71197  0.36630  1.0000
  H   H842      1.0  0.03623  0.69013  0.36474  1.0000
  H   H843      1.0  0.02118  0.70525  0.40520  1.0000
  H   H844      1.0  0.01402  0.68333  0.40169  1.0000
  H   H845      1.0  0.07030  0.72907  0.38790  1.0000
  H   H846      1.0  0.04779  0.72814  0.39228  1.0000
  H   H847      1.0  0.06081  0.68932  0.34317  1.0000
  H   H848      1.0  0.06601  0.67270  0.36282  1.0000
  H   H849      1.0  0.07018  0.66840  0.40161  1.0000
  H   H850      1.0  0.06054  0.67279  0.42856  1.0000
  H   H851      1.0  0.04399  0.86706  0.09414  1.0000
  H   H852      1.0  0.14730  0.66160  0.04677  1.0000
  N   N30       1.0  0.03868  0.68603  0.98768  1.0000
  H   H853      1.0  0.04029  0.88824  0.09488  1.0000
  C   C509      1.0  0.16589  0.85481  0.42628  1.0000
  H   H854      1.0  0.04653  0.72900  0.43383  1.0000
  H   H855      1.0  0.06920  0.72986  0.42941  1.0000
  H   H856      1.0  0.06238  0.74737  0.41408  1.0000
  H   H857      1.0  0.09701  0.68913  0.35053  1.0000
  H   H858      1.0  0.08825  0.68376  0.32639  1.0000
  H   H859      1.0  0.09169  0.70564  0.33063  1.0000
  H   H860      1.0  0.09376  0.58069  0.33405  1.0000
  C   C510      1.0  0.12975  0.86188  0.45994  1.0000
  N   N31       1.0  0.13554  0.74280  0.14973  1.0000
  C   C511      1.0  0.12504  0.74367  0.13150  1.0000
  C   C512      1.0  0.12560  0.74584  0.17171  1.0000
  C   C513      1.0  0.15249  0.75641  0.14036  1.0000
  C   C514      1.0  0.13908  0.72519  0.15551  1.0000
  C   C515      1.0  0.12331  0.70917  0.16070  1.0000
  C   C516      1.0  0.13282  0.73949  0.10824  1.0000
  C   C517      1.0  0.16396  0.75931  0.15802  1.0000
  C   C518      1.0  0.12249  0.76420  0.17009  1.0000
  C   C519      1.0  0.11373  0.76611  0.19392  1.0000
  C   C520      1.0  0.12823  0.69218  0.16787  1.0000
  C   C521      1.0  0.12033  0.73882  0.09209  1.0000
  H   H861      1.0  0.17282  0.71301  0.25421  1.0000
  H   H862      1.0  0.12325  0.75696  0.12673  1.0000
  H   H863      1.0  0.11182  0.73495  0.13857  1.0000
  H   H864      1.0  0.11268  0.73644  0.17743  1.0000
  H   H865      1.0  0.13197  0.74312  0.18642  1.0000
  H   H866      1.0  0.15051  0.76916  0.13259  1.0000
  H   H867      1.0  0.16041  0.75288  0.12570  1.0000
  H   H868      1.0  0.14909  0.72369  0.14136  1.0000
  H   H869      1.0  0.14472  0.72409  0.17112  1.0000
  H   H870      1.0  0.11791  0.70838  0.14510  1.0000
  H   H871      1.0  0.11303  0.70976  0.17509  1.0000
  H   H872      1.0  0.14480  0.74965  0.09889  1.0000
  H   H873      1.0  0.13591  0.72677  0.11117  1.0000
  C   C522      1.0  0.16518  0.55272  0.23443  1.0000
  H   H874      1.0  0.15740  0.76333  0.17318  1.0000
  H   H875      1.0  0.13467  0.77465  0.16393  1.0000
  H   H876      1.0  0.11399  0.76643  0.15801  1.0000
  H   H877      1.0  0.11146  0.77925  0.19236  1.0000
  H   H878      1.0  0.10115  0.75623  0.20074  1.0000
  H   H879      1.0  0.12201  0.76454  0.20654  1.0000
  C   C523      1.0  0.11614  0.58099  0.43193  1.0000
  H   H880      1.0  0.10473  0.86666  0.45840  1.0000
  H   H881      1.0  0.11685  0.68095  0.17083  1.0000
  H   H882      1.0  0.12638  0.73613  0.07545  1.0000
  H   H883      1.0  0.10840  0.72822  0.10016  1.0000
  H   H884      1.0  0.11704  0.75144  0.08807  1.0000
  Fe  Fe58      1.0  0.99633  0.88819  0.36115  1.0000
  C   C524      1.0  0.17857  0.64821  0.17826  1.0000
  C   C525      1.0  0.04546  0.88315  0.06009  1.0000
  H   H885      1.0  0.10610  0.61114  0.41704  1.0000
  C   C526      1.0  0.15191  0.60707  0.24087  1.0000
  C   C527      1.0  0.08122  0.94057  0.34096  1.0000
  H   H886      1.0  0.07608  0.96671  0.35963  1.0000
  H   H887      1.0  0.17684  0.96734  0.46738  1.0000
  C   C528      1.0  0.09949  0.81536  0.30276  1.0000
  C   C529      1.0  0.07983  0.51415  0.27660  1.0000
  H   H888      1.0  0.05721  0.57826  0.99316  1.0000
  H   H889      1.0  0.07033  0.58718  0.41742  1.0000
  H   H890      1.0  0.08179  0.59641  0.36295  1.0000
  H   H891      1.0  0.09418  0.50378  0.16604  1.0000
  H   H892      1.0  0.99793  0.69193  0.19230  1.0000
  H   H893      1.0  0.09281  0.95180  0.33556  1.0000
  N   N32       1.0  0.14326  0.64027  0.07665  1.0000
  H   H894      1.0  0.16747  0.74719  0.16454  1.0000
  H   H895      1.0  0.00779  0.89575  0.01963  1.0000
  C   C530      1.0  0.00693  0.86348  0.03662  1.0000
  C   C531      1.0  0.13349  0.63585  0.10173  1.0000
  C   C532      1.0  0.11438  0.62556  0.10717  1.0000
  H   H896      1.0  0.11590  0.49999  0.26624  1.0000
  H   H897      1.0  0.06840  0.51232  0.28996  1.0000
  C   C533      1.0  0.05228  0.99504  0.06519  1.0000
  H   H898      1.0  0.18121  0.97771  0.42478  1.0000
  C   C534      1.0  0.10737  0.61857  0.13341  1.0000
  H   H899      1.0  0.04636  0.98243  0.07802  1.0000
  H   H900      1.0  0.99398  0.72098  0.12664  1.0000
  H   H901      1.0  0.03080  0.51093  0.44082  1.0000
  H   H902      1.0  0.00384  0.51811  0.30114  1.0000
  H   H903      1.0  0.04187  0.98531  0.38274  1.0000
  C   C535      1.0  0.09180  0.50476  0.28076  1.0000
  C   C536      1.0  0.01954  0.50159  0.45355  1.0000
  H   H904      1.0  0.00335  0.49926  0.35066  1.0000
  H   H905      1.0  0.14011  0.62853  0.11301  1.0000
  H   H906      1.0  0.13357  0.64788  0.10828  1.0000
  H   H907      1.0  0.11243  0.61421  0.09906  1.0000
  H   H908      1.0  0.10663  0.63430  0.10104  1.0000
  H   H909      1.0  0.15052  0.62806  0.04852  1.0000
  H   H910      1.0  0.03545  0.98779  0.04282  1.0000
  C   C537      1.0  0.98774  0.94846  0.01286  1.0000
  H   H911      1.0  0.15896  0.97268  0.43971  1.0000
  H   H912      1.0  0.13284  0.58820  0.06929  1.0000
  H   H913      1.0  0.11107  0.63643  0.06322  1.0000
  C   C538      1.0  0.00060  0.51946  0.44255  1.0000
  H   H914      1.0  0.10890  0.62938  0.14265  1.0000
  H   H915      1.0  0.09349  0.61176  0.13704  1.0000
  H   H916      1.0  0.11426  0.60912  0.14026  1.0000
  S   S120      1.0  0.05867  0.58861  0.46980  1.0000
  H   H917      1.0  0.06172  0.88636  0.08475  1.0000
  H   H918      1.0  0.16621  0.95777  0.42375  1.0000
  H   H919      1.0  0.11287  0.60406  0.34654  1.0000
  S   S121      1.0  0.08357  0.99442  0.46247  1.0000
  H   H920      1.0  0.08482  0.52666  0.14278  1.0000
  H   H921      1.0  0.02427  0.74286  0.07907  1.0000
  H   H922      1.0  0.99610  0.54847  0.41328  1.0000
  H   H923      1.0  0.12319  0.62631  0.35995  1.0000
  H   H924      1.0  0.00968  0.92733  0.03900  1.0000
  H   H925      1.0  0.11357  0.84009  0.45160  1.0000
  C   C539      1.0  0.18055  0.77359  0.14661  1.0000
  C   C540      1.0  0.99057  0.85916  0.05652  1.0000
  H   H926      1.0  0.17345  0.66689  0.15189  1.0000
  H   H927      1.0  0.02424  0.86096  0.06640  1.0000
  Fe  Fe59      1.0  0.08578  0.96702  0.46526  1.0000
  H   H928      1.0  0.12458  0.80530  0.40290  1.0000
  H   H929      1.0  0.00553  0.71873  0.20763  1.0000
  H   H930      1.0  0.15858  0.54417  0.22436  1.0000
  H   H931      1.0  0.13279  0.69176  0.18430  1.0000
  C   C541      1.0  0.11855  0.87391  0.45339  1.0000
  H   H932      1.0  0.04211  0.71126  0.99598  1.0000
  H   H933      1.0  0.13221  0.65846  0.34954  1.0000
  C   C542      1.0  0.08972  0.56428  0.01692  1.0000
  H   H934      1.0  0.08143  0.93229  0.35776  1.0000
  H   H935      1.0  0.99149  0.94899  0.46190  1.0000
  H   H936      1.0  0.11382  0.57478  0.04223  1.0000
  Fe  Fe60      1.0  0.18122  0.72432  0.19780  1.0000
  C   C543      1.0  0.16025  0.61887  0.25525  1.0000
  H   H937      1.0  0.14227  0.58560  0.27138  1.0000
  H   H938      1.0  0.12472  0.67119  0.02684  1.0000
  C   C544      1.0  0.00615  0.54269  0.40536  1.0000
  H   H939      1.0  0.10890  0.66704  0.05383  1.0000
  H   H940      1.0  0.08116  0.52094  0.44884  1.0000
  N   N33       1.0  0.13768  0.83367  0.45271  1.0000
  H   H941      1.0  0.07644  0.79472  0.31374  1.0000
  H   H942      1.0  0.10538  0.79042  0.42191  1.0000
  H   H943      1.0  0.04810  0.97218  0.32825  1.0000
  C   C545      1.0  0.04145  0.82593  0.31204  1.0000
  C   C546      1.0  0.03488  0.85537  0.30797  1.0000
  H   H944      1.0  0.01463  0.70187  0.21965  1.0000
  H   H945      1.0  0.05721  0.59684  0.38423  1.0000
  C   C547      1.0  0.04375  0.79566  0.29093  1.0000
  C   C548      1.0  0.07107  0.58424  0.98523  1.0000
  H   H946      1.0  0.01455  0.96662  0.35690  1.0000
  H   H947      1.0  0.03474  0.80262  0.28426  1.0000
  H   H948      1.0  0.04810  0.76997  0.29181  1.0000
  C   C549      1.0  0.06001  0.53054  0.03161  1.0000
  C   C550      1.0  0.11765  0.59662  0.21582  1.0000
  H   H949      1.0  0.13299  0.66285  0.07199  1.0000
  Fe  Fe61      1.0  0.05555  0.50805  0.37314  1.0000
  H   H950      1.0  0.18340  0.82104  0.38685  1.0000
  C   C551      1.0  0.10262  0.57761  0.34524  1.0000
  C   C552      1.0  0.13729  0.59145  0.25661  1.0000
  H   H951      1.0  0.14271  0.59126  0.20949  1.0000
  H   H952      1.0  0.12733  0.59734  0.26469  1.0000
  C   C553      1.0  0.04595  0.84423  0.31760  1.0000
  H   H953      1.0  0.06222  0.61866  0.38881  1.0000
  C   C554      1.0  0.03248  0.88390  0.99181  1.0000
  C   C555      1.0  0.01559  0.95837  0.37324  1.0000
  H   H954      1.0  0.06528  0.95487  0.32599  1.0000
  H   H955      1.0  0.05690  0.80180  0.28007  1.0000
  H   H956      1.0  0.16503  0.70217  0.12218  1.0000
  H   H957      1.0  0.11811  0.53080  0.97891  1.0000
  C   C556      1.0  0.15810  0.56867  0.23478  1.0000
  H   H958      1.0  0.14682  0.61520  0.22832  1.0000
  C   C557      1.0  0.06952  0.81991  0.31097  1.0000
  H   H959      1.0  0.05959  0.85119  0.30948  1.0000
  H   H960      1.0  0.10302  0.51080  0.11991  1.0000
  C   C558      1.0  0.16607  0.66663  0.08168  1.0000
  C   C559      1.0  0.99690  0.81286  0.35465  1.0000
  N   N34       1.0  0.04899  0.96612  0.36458  1.0000
  H   H961      1.0  0.98974  0.52480  0.44907  1.0000
  H   H962      1.0  0.05388  0.87629  0.05080  1.0000
  C   C560      1.0  0.12176  0.64640  0.05061  1.0000
  C   C561      1.0  0.06390  0.99310  0.40937  1.0000
  C   C562      1.0  0.08104  0.80778  0.31715  1.0000
  C   C563      1.0  0.11865  0.79795  0.42115  1.0000
  C   C564      1.0  0.16987  0.96697  0.43485  1.0000
  H   H963      1.0  0.03925  0.91439  0.01535  1.0000
  C   C565      1.0  0.14255  0.62428  0.06670  1.0000
  H   H964      1.0  0.05978  0.64168  0.43225  1.0000
  H   H965      1.0  0.08274  0.50871  0.20597  1.0000
  C   C566      1.0  0.16690  0.64093  0.14561  1.0000
  H   H966      1.0  0.12610  0.78858  0.42630  1.0000
  H   H967      1.0  0.05620  0.55593  0.02085  1.0000
  H   H968      1.0  0.11006  0.58555  0.99184  1.0000
  H   H969      1.0  0.07495  0.83222  0.31596  1.0000
  C   C567      1.0  0.07462  0.60102  0.40811  1.0000
  H   H970      1.0  0.07577  0.60863  0.42176  1.0000
  H   H971      1.0  0.00697  0.75103  0.09235  1.0000
  S   S122      1.0  0.13954  0.70533  0.99089  1.0000
  H   H972      1.0  0.98792  0.94758  0.38357  1.0000
  H   H973      1.0  0.11938  0.59088  0.44227  1.0000
  H   H974      1.0  0.07860  0.98870  0.33137  1.0000
  H   H975      1.0  0.07557  0.99070  0.37562  1.0000
  H   H976      1.0  0.12140  0.63536  0.38526  1.0000
  H   H977      1.0  0.04752  0.64027  0.41022  1.0000
  H   H978      1.0  0.01565  0.92778  0.00820  1.0000
  H   H979      1.0  0.11572  0.58785  0.36955  1.0000
  H   H980      1.0  0.07163  0.82357  0.29169  1.0000
  H   H981      1.0  0.09036  0.62505  0.36325  1.0000
  H   H982      1.0  0.12079  0.52075  0.22819  1.0000
  H   H983      1.0  0.03176  0.94571  0.35442  1.0000
  C   C568      1.0  0.11577  0.63347  0.37003  1.0000
  H   H984      1.0  0.03034  0.94039  0.02167  1.0000
  C   C569      1.0  0.09641  0.62368  0.37848  1.0000
  C   C570      1.0  0.10853  0.57536  0.00765  1.0000
  H   H985      1.0  0.03542  0.53167  0.05164  1.0000
  N   N35       1.0  0.09182  0.60476  0.39137  1.0000
  C   C571      1.0  0.08992  0.59266  0.37494  1.0000
  C   C572      1.0  0.10068  0.51229  0.10257  1.0000
  C   C573      1.0  0.04099  0.52241  0.04317  1.0000
  H   H986      1.0  0.99555  0.70067  0.38790  1.0000
  H   H987      1.0  0.09988  0.81657  0.28390  1.0000
  H   H988      1.0  0.08989  0.58141  0.43635  1.0000
  H   H989      1.0  0.11348  0.65054  0.33876  1.0000
  H   H990      1.0  0.11147  0.65944  0.36453  1.0000
  C   C574      1.0  0.10481  0.60176  0.40557  1.0000
  C   C575      1.0  0.14653  0.59380  0.06918  1.0000
  C   C576      1.0  0.10089  0.58333  0.42149  1.0000
  H   H991      1.0  0.04074  0.96521  0.40147  1.0000
  H   H992      1.0  0.00210  0.56576  0.44336  1.0000
  H   H993      1.0  0.10510  0.82834  0.30589  1.0000
  H   H994      1.0  0.10747  0.80653  0.30790  1.0000
  C   C577      1.0  0.04851  0.97472  0.38512  1.0000
  H   H995      1.0  0.17158  0.60461  0.17941  1.0000
  C   C578      1.0  0.08704  0.49988  0.07376  1.0000
  H   H996      1.0  0.16646  0.61169  0.26732  1.0000
  S   S123      1.0  0.07809  0.49655  0.36992  1.0000
  H   H997      1.0  0.12218  0.87970  0.43435  1.0000
  H   H998      1.0  0.13775  0.55677  0.26449  1.0000
  H   H999      1.0  0.00388  0.94111  0.44007  1.0000
  H   H1000     1.0  0.99201  0.68925  0.11143  1.0000
  H   H1001     1.0  0.00043  0.52070  0.34240  1.0000
  H   H1002     1.0  0.15868  0.66637  0.09916  1.0000
  H   H1003     1.0  0.16681  0.63980  0.08835  1.0000
  H   H1004     1.0  0.14525  0.81330  0.43778  1.0000
  C   C579      1.0  0.18392  0.86468  0.42707  1.0000
  H   H1005     1.0  0.16372  0.83274  0.45324  1.0000
  S   S124      1.0  0.03745  0.51459  0.98131  1.0000
  H   H1006     1.0  0.04471  0.98294  0.00467  1.0000
  H   H1007     1.0  0.11701  0.56679  0.00385  1.0000
  H   H1008     1.0  0.07748  0.68157  0.46989  1.0000
  C   C580      1.0  0.11448  0.66101  0.04008  1.0000
  H   H1009     1.0  0.00476  0.89426  0.04970  1.0000
  C   C581      1.0  0.09827  0.99376  0.98095  1.0000
  C   C582      1.0  0.00770  0.68934  0.00270  1.0000
  C   C583      1.0  0.17297  0.73541  0.07483  1.0000
  H   H1010     1.0  0.16764  0.70912  0.29722  1.0000
  C   C584      1.0  0.99242  0.78501  0.34268  1.0000
  H   H1011     1.0  0.99547  0.50967  0.43292  1.0000
  H   H1012     1.0  0.10179  0.98166  0.98772  1.0000
  H   H1013     1.0  0.05518  0.98486  0.42592  1.0000
  C   C585      1.0  0.08078  0.50455  0.17159  1.0000
  H   H1014     1.0  0.17423  0.76428  0.31113  1.0000
  H   H1015     1.0  0.17766  0.78603  0.13975  1.0000
  H   H1016     1.0  0.15055  0.62398  0.26538  1.0000
  H   H1017     1.0  0.15797  0.84987  0.46417  1.0000
  H   H1018     1.0  0.16732  0.84715  0.41275  1.0000
  C   C586      1.0  0.04948  0.99306  0.04116  1.0000
  H   H1019     1.0  0.16349  0.54510  0.25243  1.0000
  H   H1020     1.0  0.18264  0.62657  0.20118  1.0000
  H   H1021     1.0  0.99119  0.67590  0.03692  1.0000
  H   H1022     1.0  0.15903  0.86461  0.42075  1.0000
  C   C587      1.0  0.06708  0.99380  0.33319  1.0000
  H   H1023     1.0  0.07972  0.53339  0.98603  1.0000
  H   H1024     1.0  0.03540  0.66316  0.97324  1.0000
  H   H1025     1.0  0.02024  0.89380  0.46381  1.0000
  H   H1026     1.0  0.01168  0.85154  0.03726  1.0000
  C   C588      1.0  0.09011  0.49831  0.09634  1.0000
  H   H1027     1.0  0.17007  0.64965  0.05831  1.0000
  H   H1028     1.0  0.00601  0.69229  0.98465  1.0000
  H   H1029     1.0  0.99362  0.85660  0.07391  1.0000
  H   H1030     1.0  0.18619  0.75866  0.27353  1.0000
  Fe  Fe62      1.0  0.13910  0.73203  0.97249  1.0000
  C   C589      1.0  0.04894  0.88772  0.97295  1.0000
  H   H1031     1.0  0.05836  0.89964  0.97393  1.0000
  H   H1032     1.0  0.05339  0.49588  0.24321  1.0000
  H   H1033     1.0  0.07248  0.49597  0.16324  1.0000
  H   H1034     1.0  0.12034  0.88466  0.46271  1.0000
  H   H1035     1.0  0.05477  0.87655  0.97479  1.0000
  H   H1036     1.0  0.03018  0.99457  0.14533  1.0000
  C   C590      1.0  0.18347  0.70300  0.74519  1.0000
  H   H1037     1.0  0.13886  0.50857  0.73510  1.0000
  H   H1038     1.0  0.11848  0.70813  0.91896  1.0000
  C   C591      1.0  0.07678  0.96659  0.81887  1.0000
  C   C592      1.0  0.16545  0.50618  0.77318  1.0000
  H   H1039     1.0  0.00654  0.56126  0.82687  1.0000
  H   H1040     1.0  0.13296  0.83216  0.48982  1.0000
  S   S125      1.0  0.99788  0.91478  0.92630  1.0000
  H   H1041     1.0  0.02193  0.50498  0.88101  1.0000
  C   C593      1.0  0.04293  0.54529  0.95017  1.0000
  H   H1042     1.0  0.10286  0.94744  0.54410  1.0000
  H   H1043     1.0  0.11017  0.71962  0.88202  1.0000
  H   H1044     1.0  0.03753  0.97707  0.84277  1.0000
  H   H1045     1.0  0.16394  0.52642  0.70050  1.0000
  S   S126      1.0  0.00415  0.95473  0.57508  1.0000
  H   H1046     1.0  0.08251  0.96055  0.80527  1.0000
  H   H1047     1.0  0.03636  0.61780  0.58272  1.0000
  C   C594      1.0  0.11290  0.53578  0.96394  1.0000
  H   H1048     1.0  0.16740  0.56090  0.71602  1.0000
  H   H1049     1.0  0.13861  0.50597  0.69437  1.0000
  H   H1050     1.0  0.16336  0.69396  0.94737  1.0000
  S   S127      1.0  0.06709  0.96213  0.93948  1.0000
  H   H1051     1.0  0.00542  0.92152  0.56242  1.0000
  H   H1052     1.0  0.11225  0.68792  0.90008  1.0000
  H   H1053     1.0  0.12927  0.67707  0.89687  1.0000
  H   H1054     1.0  0.06486  0.63189  0.58702  1.0000
  H   H1055     1.0  0.13219  0.72864  0.91745  1.0000
  C   C595      1.0  0.99162  0.57792  0.86530  1.0000
  H   H1056     1.0  0.99669  0.88996  0.58148  1.0000
  C   C596      1.0  0.99509  0.52818  0.93723  1.0000
  C   C597      1.0  0.15836  0.98306  0.90510  1.0000
  Fe  Fe63      1.0  0.17287  0.61679  0.66164  1.0000
  S   S128      1.0  0.14541  0.60469  0.66225  1.0000
  C   C598      1.0  0.16939  0.92834  0.50762  1.0000
  Fe  Fe64      1.0  0.16622  0.65221  0.66642  1.0000
  S   S129      1.0  0.13804  0.64240  0.66676  1.0000
  H   H1057     1.0  0.13143  0.80733  0.52244  1.0000
  Fe  Fe65      1.0  0.13907  0.61821  0.69122  1.0000
  S   S130      1.0  0.12201  0.60223  0.72607  1.0000
  Fe  Fe66      1.0  0.14684  0.62971  0.63770  1.0000
  S   S131      1.0  0.14140  0.63158  0.60125  1.0000
  S   S132      1.0  0.16661  0.62857  0.69224  1.0000
  S   S133      1.0  0.17493  0.64138  0.63569  1.0000
  Fe  Fe67      1.0  0.04366  0.58727  0.50536  1.0000
  Fe  Fe68      1.0  0.07552  0.59100  0.52649  1.0000
  H   H1058     1.0  0.13024  0.68481  0.92969  1.0000
  S   S134      1.0  0.08116  0.58932  0.56282  1.0000
  S   S135      1.0  0.07661  0.54683  0.47520  1.0000
  C   C599      1.0  0.11578  0.67789  0.86950  1.0000
  H   H1059     1.0  0.02745  0.65921  0.93560  1.0000
  S   S136      1.0  0.06239  0.61046  0.51084  1.0000
  S   S137      1.0  0.05555  0.56790  0.52333  1.0000
  Fe  Fe69      1.0  0.05963  0.63066  0.88430  1.0000
  S   S138      1.0  0.08208  0.62353  0.86466  1.0000
  S   S139      1.0  0.06313  0.65501  0.89933  1.0000
  Fe  Fe70      1.0  0.03322  0.60064  0.87370  1.0000
  S   S140      1.0  0.05405  0.59164  0.85331  1.0000
  S   S141      1.0  0.00532  0.58401  0.88393  1.0000
  Fe  Fe71      1.0  0.06748  0.59584  0.88217  1.0000
  S   S142      1.0  0.08094  0.57611  0.89623  1.0000
  Fe  Fe72      1.0  0.06666  0.62000  0.83755  1.0000
  S   S143      1.0  0.07765  0.63265  0.79907  1.0000
  S   S144      1.0  0.04607  0.60317  0.90378  1.0000
  S   S145      1.0  0.04482  0.62890  0.85602  1.0000
  C   C600      1.0  0.13671  0.70388  0.87622  1.0000
  H   H1060     1.0  0.12526  0.50377  0.54501  1.0000
  H   H1061     1.0  0.03290  0.93647  0.51041  1.0000
  S   S146      1.0  0.13916  0.96418  0.49883  1.0000
  C   C601      1.0  0.01540  0.52529  0.47358  1.0000
  H   H1062     1.0  0.11466  0.79343  0.51295  1.0000
  H   H1063     1.0  0.00315  0.60048  0.83718  1.0000
  C   C602      1.0  0.06872  0.55890  0.91968  1.0000
  C   C603      1.0  0.05235  0.55896  0.93124  1.0000
  H   H1064     1.0  0.01457  0.90182  0.59087  1.0000
  H   H1065     1.0  0.08032  0.99116  0.82884  1.0000
  C   C604      1.0  0.06596  0.53110  0.94573  1.0000
  C   C605      1.0  0.07553  0.54497  0.92701  1.0000
  H   H1066     1.0  0.04697  0.56958  0.92576  1.0000
  C   C606      1.0  0.17447  0.76628  0.93160  1.0000
  H   H1067     1.0  0.08820  0.54484  0.91809  1.0000
  H   H1068     1.0  0.16834  0.67182  0.77246  1.0000
  H   H1069     1.0  0.04339  0.62330  0.55145  1.0000
  C   C607      1.0  0.17115  0.57020  0.66273  1.0000
  Fe  Fe73      1.0  0.11963  0.97561  0.48257  1.0000
  C   C608      1.0  0.15437  0.73224  0.87754  1.0000
  H   H1070     1.0  0.10649  0.66510  0.87826  1.0000
  C   C609      1.0  0.10007  0.95596  0.55613  1.0000
  H   H1071     1.0  0.16100  0.57606  0.66841  1.0000
  C   C610      1.0  0.01967  0.93838  0.51277  1.0000
  C   C611      1.0  0.10945  0.61069  0.74610  1.0000
  C   C612      1.0  0.10424  0.62571  0.73897  1.0000
  C   C613      1.0  0.09403  0.63191  0.75535  1.0000
  C   C614      1.0  0.08920  0.62338  0.77903  1.0000
  C   C615      1.0  0.09427  0.60826  0.78616  1.0000
  C   C616      1.0  0.10427  0.60189  0.76970  1.0000
  H   H1072     1.0  0.10787  0.63241  0.72080  1.0000
  H   H1073     1.0  0.08988  0.64343  0.74968  1.0000
  H   H1074     1.0  0.09058  0.60154  0.80433  1.0000
  H   H1075     1.0  0.10810  0.59017  0.77532  1.0000
  C   C617      1.0  0.12484  0.61898  0.59114  1.0000
  C   C618      1.0  0.10991  0.60781  0.60627  1.0000
  C   C619      1.0  0.09678  0.59870  0.59727  1.0000
  C   C620      1.0  0.09837  0.60068  0.57309  1.0000
  C   C621      1.0  0.11344  0.61159  0.55798  1.0000
  C   C622      1.0  0.12658  0.62069  0.56698  1.0000
  H   H1076     1.0  0.10835  0.60643  0.62489  1.0000
  H   H1077     1.0  0.08519  0.59022  0.60912  1.0000
  H   H1078     1.0  0.11494  0.61305  0.53937  1.0000
  H   H1079     1.0  0.13813  0.62924  0.55514  1.0000
  C   C623      1.0  0.00038  0.94777  0.84668  1.0000
  C   C624      1.0  0.07515  0.65918  0.92051  1.0000
  C   C625      1.0  0.08145  0.64641  0.93249  1.0000
  C   C626      1.0  0.09031  0.65004  0.94991  1.0000
  C   C627      1.0  0.09307  0.66648  0.95542  1.0000
  C   C628      1.0  0.08699  0.67933  0.94324  1.0000
  C   C629      1.0  0.07812  0.67569  0.92583  1.0000
  H   H1080     1.0  0.07933  0.63370  0.92846  1.0000
  C   C630      1.0  0.02767  0.98680  0.55763  1.0000
  H   H1081     1.0  0.08904  0.69199  0.94736  1.0000
  H   H1082     1.0  0.07350  0.68572  0.91643  1.0000
  H   H1083     1.0  0.02513  0.91602  0.48776  1.0000
  H   H1084     1.0  0.10081  0.98158  0.76815  1.0000
  H   H1085     1.0  0.09451  0.67881  0.50591  1.0000
  H   H1086     1.0  0.18397  0.97035  0.54410  1.0000
  H   H1087     1.0  0.16844  0.54347  0.75470  1.0000
  C   C631      1.0  0.10513  0.64717  0.50880  1.0000
  Fe  Fe74      1.0  0.07860  0.60997  0.47652  1.0000
  H   H1088     1.0  0.12370  0.74093  0.88048  1.0000
  C   C632      1.0  0.13411  0.97956  0.77093  1.0000
  H   H1089     1.0  0.17478  0.51028  0.70684  1.0000
  H   H1090     1.0  0.08251  0.62645  0.55213  1.0000
  H   H1091     1.0  0.02600  0.55993  0.86917  1.0000
  H   H1092     1.0  0.14787  0.70043  0.86654  1.0000
  C   C633      1.0  0.00162  0.57160  0.49837  1.0000
  C   C634      1.0  0.11609  0.72838  0.89236  1.0000
  C   C635      1.0  0.05457  0.97223  0.54319  1.0000
  C   C636      1.0  0.03829  0.96147  0.55500  1.0000
  C   C637      1.0  0.02470  0.96868  0.56183  1.0000
  H   H1093     1.0  0.13179  0.71118  0.86249  1.0000
  H   H1094     1.0  0.14990  0.56483  0.75211  1.0000
  H   H1095     1.0  0.06483  0.96648  0.53771  1.0000
  H   H1096     1.0  0.03621  0.94753  0.55869  1.0000
  C   C638      1.0  0.03216  0.97070  0.49472  1.0000
  C   C639      1.0  0.01682  0.92828  0.93029  1.0000
  C   C640      1.0  0.02149  0.92594  0.95174  1.0000
  C   C641      1.0  0.03696  0.93638  0.95422  1.0000
  C   C642      1.0  0.04774  0.94947  0.93543  1.0000
  C   C643      1.0  0.04288  0.95215  0.91411  1.0000
  C   C644      1.0  0.02750  0.94152  0.91154  1.0000
  H   H1097     1.0  0.13632  0.98815  0.58481  1.0000
  H   H1098     1.0  0.01832  0.90103  0.52767  1.0000
  H   H1099     1.0  0.05108  0.96223  0.89956  1.0000
  H   H1100     1.0  0.02397  0.94343  0.89490  1.0000
  C   C645      1.0  0.11501  0.66329  0.57374  1.0000
  H   H1101     1.0  0.06363  0.70920  0.94901  1.0000
  C   C646      1.0  0.02011  0.95381  0.49294  1.0000
  H   H1102     1.0  0.00432  0.53413  0.94688  1.0000
  H   H1103     1.0  0.01729  0.99250  0.56295  1.0000
  H   H1104     1.0  0.14009  0.56784  0.72764  1.0000
  C   C647      1.0  0.07225  0.59773  0.96318  1.0000
  C   C648      1.0  0.02074  0.56598  0.82390  1.0000
  H   H1105     1.0  0.10674  0.74139  0.91896  1.0000
  H   H1106     1.0  0.14464  0.98319  0.90773  1.0000
  H   H1107     1.0  0.16947  0.60027  0.62068  1.0000
  Fe  Fe75      1.0  0.09133  0.99289  0.49653  1.0000
  C   C649      1.0  0.12164  0.65138  0.48994  1.0000
  C   C650      1.0  0.02114  0.54792  0.86309  1.0000
  C   C651      1.0  0.07253  0.52890  0.87815  1.0000
  H   H1108     1.0  0.12613  0.67568  0.85657  1.0000
  C   C652      1.0  0.00063  0.89748  0.49098  1.0000
  H   H1109     1.0  0.10876  0.68619  0.86038  1.0000
  C   C653      1.0  0.02648  0.53504  0.50738  1.0000
  H   H1110     1.0  0.09304  0.72009  0.92053  1.0000
  H   H1111     1.0  0.14448  0.67626  0.96086  1.0000
  C   C654      1.0  0.04966  0.53131  0.95739  1.0000
  H   H1112     1.0  0.07611  0.52674  0.86034  1.0000
  H   H1113     1.0  0.06379  0.96729  0.81646  1.0000
  C   C655      1.0  0.17506  0.77743  0.94696  1.0000
  H   H1114     1.0  0.09361  0.73842  0.89813  1.0000
  H   H1115     1.0  0.05725  0.99469  0.86177  1.0000
  H   H1116     1.0  0.03576  0.50097  0.47881  1.0000
  H   H1117     1.0  0.04177  0.67981  0.91899  1.0000
  H   H1118     1.0  0.16120  0.71708  0.91357  1.0000
  N   N36       1.0  0.15001  0.65758  0.75629  1.0000
  C   C656      1.0  0.14427  0.65990  0.73363  1.0000
  C   C657      1.0  0.16046  0.64437  0.75668  1.0000
  C   C658      1.0  0.13402  0.64996  0.77570  1.0000
  C   C659      1.0  0.15997  0.67452  0.76028  1.0000
  H   H1119     1.0  0.17184  0.99539  0.57403  1.0000
  C   C660      1.0  0.13116  0.67103  0.73186  1.0000
  C   C661      1.0  0.13690  0.64509  0.80070  1.0000
  S   S147      1.0  0.02467  0.98620  0.80216  1.0000
  C   C662      1.0  0.16777  0.55824  0.58225  1.0000
  H   H1120     1.0  0.99243  0.50602  0.89030  1.0000
  C   C663      1.0  0.12967  0.67669  0.70676  1.0000
  C   C664      1.0  0.12012  0.64101  0.81903  1.0000
  H   H1121     1.0  0.13830  0.64699  0.73046  1.0000
  H   H1122     1.0  0.15537  0.66565  0.71867  1.0000
  C   C665      1.0  0.07701  0.69262  0.51911  1.0000
  H   H1123     1.0  0.15266  0.63186  0.75429  1.0000
  H   H1124     1.0  0.12601  0.63799  0.77233  1.0000
  H   H1125     1.0  0.12582  0.65920  0.77632  1.0000
  H   H1126     1.0  0.15107  0.68112  0.76927  1.0000
  C   C666      1.0  0.04162  0.99109  0.83674  1.0000
  H   H1127     1.0  0.02323  0.54761  0.50255  1.0000
  H   H1128     1.0  0.17884  0.71598  0.61308  1.0000
  H   H1129     1.0  0.11822  0.66332  0.74210  1.0000
  H   H1130     1.0  0.13460  0.68279  0.73887  1.0000
  H   H1131     1.0  0.14629  0.65583  0.80443  1.0000
  H   H1132     1.0  0.14162  0.63319  0.80300  1.0000
  H   H1133     1.0  0.18448  0.54154  0.57462  1.0000
  H   H1134     1.0  0.05007  0.52515  0.90513  1.0000
  H   H1135     1.0  0.10156  0.50740  0.51096  1.0000
  C   C667      1.0  0.02880  0.67343  0.93039  1.0000
  C   C668      1.0  0.01303  0.91301  0.55589  1.0000
  C   C669      1.0  0.16239  0.99457  0.50062  1.0000
  C   C670      1.0  0.12877  0.79836  0.51070  1.0000
  C   C671      1.0  0.18639  0.63453  0.73999  1.0000
  H   H1136     1.0  0.12634  0.66519  0.69913  1.0000
  H   H1137     1.0  0.11941  0.68360  0.70636  1.0000
  H   H1138     1.0  0.14196  0.68568  0.69601  1.0000
  H   H1139     1.0  0.11056  0.62978  0.81652  1.0000
  H   H1140     1.0  0.12251  0.63755  0.83672  1.0000
  H   H1141     1.0  0.11461  0.65241  0.81800  1.0000
  C   C672      1.0  0.10855  0.65415  0.53055  1.0000
  H   H1142     1.0  0.07792  0.52057  0.89007  1.0000
  H   H1143     1.0  0.98798  0.58254  0.93402  1.0000
  H   H1144     1.0  0.14846  0.73803  0.86382  1.0000
  H   H1145     1.0  0.13731  0.49684  0.50883  1.0000
  N   N37       1.0  0.09302  0.65391  0.54877  1.0000
  H   H1146     1.0  0.02408  0.57812  0.83024  1.0000
  H   H1147     1.0  0.01264  0.67506  0.96171  1.0000
  H   H1148     1.0  0.00718  0.95604  0.49369  1.0000
  N   N38       1.0  0.02578  0.53280  0.87686  1.0000
  C   C673      1.0  0.11606  0.66280  0.59907  1.0000
  H   H1149     1.0  0.00131  0.51896  0.51011  1.0000
  H   H1150     1.0  0.12583  0.65859  0.56553  1.0000
  H   H1151     1.0  0.03153  0.97601  0.95056  1.0000
  H   H1152     1.0  0.16006  0.69972  0.89891  1.0000
  C   C674      1.0  0.05761  0.99032  0.53903  1.0000
  C   C675      1.0  0.05298  0.52430  0.88661  1.0000
  N   N39       1.0  0.14232  0.71529  0.89234  1.0000
  H   H1153     1.0  0.09907  0.68191  0.54411  1.0000
  C   C676      1.0  0.18255  0.74884  0.84882  1.0000
  H   H1154     1.0  0.00227  0.88709  0.50453  1.0000
  H   H1155     1.0  0.15677  0.74201  0.88843  1.0000
  H   H1156     1.0  0.09758  0.99427  0.96252  1.0000
  C   C677      1.0  0.16228  0.59377  0.58884  1.0000
  H   H1157     1.0  0.15131  0.81169  0.48409  1.0000
  H   H1158     1.0  0.14214  0.97240  0.77978  1.0000
  H   H1159     1.0  0.14568  0.99055  0.55518  1.0000
  H   H1160     1.0  0.09950  0.55453  0.95331  1.0000
  C   C678      1.0  0.08812  0.98509  0.81729  1.0000
  H   H1161     1.0  0.07385  0.63972  0.53336  1.0000
  H   H1162     1.0  0.12682  0.66570  0.48338  1.0000
  H   H1163     1.0  0.06772  0.95992  0.85667  1.0000
  H   H1164     1.0  0.07343  0.98384  0.77980  1.0000
  H   H1165     1.0  0.17610  0.70940  0.75679  1.0000
  C   C679      1.0  0.12736  0.71976  0.90643  1.0000
  C   C680      1.0  0.01460  0.52058  0.50012  1.0000
  H   H1166     1.0  0.14241  0.99256  0.76109  1.0000
  C   C681      1.0  0.02608  0.68123  0.95178  1.0000
  C   C682      1.0  0.06109  0.71492  0.96434  1.0000
  H   H1167     1.0  0.12920  0.66982  0.59972  1.0000
  C   C683      1.0  0.01122  0.91577  0.49193  1.0000
  H   H1168     1.0  0.16377  0.64132  0.77384  1.0000
  N   N40       1.0  0.00676  0.92136  0.51452  1.0000
  S   S148      1.0  0.13914  0.99173  0.85297  1.0000
  H   H1169     1.0  0.09572  0.65263  0.50100  1.0000
  H   H1170     1.0  0.11712  0.67706  0.56486  1.0000
  C   C684      1.0  0.11627  0.49784  0.53503  1.0000
  S   S149      1.0  0.17420  0.67950  0.67336  1.0000
  S   S150      1.0  0.17438  0.52238  0.65456  1.0000
  H   H1171     1.0  0.13634  0.70224  0.94358  1.0000
  H   H1172     1.0  0.15388  0.54505  0.66632  1.0000
  C   C685      1.0  0.18181  0.92528  0.48692  1.0000
  H   H1173     1.0  0.07387  0.69630  0.50193  1.0000
  H   H1174     1.0  0.15135  0.49627  0.54290  1.0000
  H   H1175     1.0  0.10537  0.52007  0.53224  1.0000
  C   C686      1.0  0.17805  0.97716  0.53197  1.0000
  C   C687      1.0  0.08819  0.67094  0.54403  1.0000
  H   H1176     1.0  0.03321  0.98128  0.47951  1.0000
  H   H1177     1.0  0.04219  0.55713  0.83153  1.0000
  H   H1178     1.0  0.14965  0.54385  0.71405  1.0000
  N   N41       1.0  0.17380  0.52684  0.73145  1.0000
  H   H1179     1.0  0.09815  0.98841  0.56265  1.0000
  C   C688      1.0  0.17879  0.51454  0.74966  1.0000
  C   C689      1.0  0.09752  0.65160  0.57235  1.0000
  H   H1180     1.0  0.01749  0.94290  0.52918  1.0000
  H   H1181     1.0  0.01329  0.91599  0.96635  1.0000
  H   H1182     1.0  0.04007  0.53655  0.49885  1.0000
  C   C690      1.0  0.14136  0.69451  0.93175  1.0000
  C   C691      1.0  0.07425  0.95464  0.84274  1.0000
  H   H1183     1.0  0.14723  0.90758  0.50766  1.0000
  H   H1184     1.0  0.00706  0.54611  0.86640  1.0000
  H   H1185     1.0  0.07386  0.56388  0.96705  1.0000
  S   S151      1.0  0.15987  0.74518  0.93905  1.0000
  H   H1186     1.0  0.01829  0.88851  0.57031  1.0000
  C   C692      1.0  0.00815  0.90734  0.53403  1.0000
  H   H1187     1.0  0.17781  0.62285  0.73692  1.0000
  C   C693      1.0  0.15522  0.91176  0.51982  1.0000
  H   H1188     1.0  0.02576  0.51640  0.85193  1.0000
  H   H1189     1.0  0.02508  0.53178  0.52654  1.0000
  H   H1190     1.0  0.15009  0.52730  0.75413  1.0000
  C   C694      1.0  0.17663  0.54417  0.59005  1.0000
  H   H1191     1.0  0.16700  0.53184  0.59983  1.0000
  H   H1192     1.0  0.13147  0.64584  0.49683  1.0000
  H   H1193     1.0  0.08587  0.60469  0.95476  1.0000
  C   C695      1.0  0.03868  0.67757  0.96721  1.0000
  C   C696      1.0  0.98860  0.92317  0.51756  1.0000
  H   H1194     1.0  0.09779  0.63787  0.57873  1.0000
  C   C697      1.0  0.15203  0.70689  0.90831  1.0000
  H   H1195     1.0  0.12683  0.55984  0.54608  1.0000
  H   H1196     1.0  0.02629  0.56909  0.80486  1.0000
  H   H1197     1.0  0.16088  0.90112  0.52645  1.0000
  H   H1198     1.0  0.16320  0.69458  0.72839  1.0000
  C   C698      1.0  0.13728  0.80761  0.48537  1.0000
  H   H1199     1.0  0.11332  0.64916  0.60909  1.0000
  H   H1200     1.0  0.18236  0.50375  0.74233  1.0000
  H   H1201     1.0  0.16964  0.98046  0.83995  1.0000
  H   H1202     1.0  0.10140  0.99373  0.60745  1.0000
  H   H1203     1.0  0.17800  0.57010  0.57268  1.0000
  H   H1204     1.0  0.06535  0.60748  0.96767  1.0000
  H   H1205     1.0  0.13408  0.78711  0.51577  1.0000
  C   C699      1.0  0.11428  0.97300  0.54908  1.0000
  H   H1206     1.0  0.12901  0.97215  0.75863  1.0000
  H   H1207     1.0  0.12366  0.54101  0.94828  1.0000
  Fe  Fe76      1.0  0.08432  0.98526  0.91169  1.0000
  C   C700      1.0  0.11119  0.51264  0.52059  1.0000
  S   S152      1.0  0.09295  0.59195  0.49239  1.0000
  H   H1208     1.0  0.12263  0.52174  0.50794  1.0000
  H   H1209     1.0  0.18276  0.58852  0.60632  1.0000
  H   H1210     1.0  0.04797  0.51060  0.88578  1.0000
  C   C701      1.0  0.10149  0.73227  0.90856  1.0000
  C   C702      1.0  0.04760  0.62025  0.56798  1.0000
  C   C703      1.0  0.00800  0.57247  0.47479  1.0000
  H   H1211     1.0  0.10352  0.52484  0.96050  1.0000
  H   H1212     1.0  0.16316  0.93861  0.50198  1.0000
  H   H1213     1.0  0.03041  0.54559  0.95933  1.0000
  H   H1214     1.0  0.17922  0.68301  0.72618  1.0000
  H   H1215     1.0  0.07577  0.65001  0.47460  1.0000
  H   H1216     1.0  0.02711  0.97469  0.51082  1.0000
  H   H1217     1.0  0.08680  0.95320  0.84619  1.0000
  C   C704      1.0  0.16586  0.51715  0.71512  1.0000
  H   H1218     1.0  0.15988  0.55349  0.57030  1.0000
  C   C705      1.0  0.99938  0.51018  0.87174  1.0000
  C   C706      1.0  0.15631  0.54999  0.72624  1.0000
  C   C707      1.0  0.00207  0.53513  0.91098  1.0000
  C   C708      1.0  0.16206  0.53647  0.74285  1.0000
  H   H1219     1.0  0.06607  0.94154  0.84334  1.0000
  S   S153      1.0  0.09062  0.98981  0.87273  1.0000
  H   H1220     1.0  0.05685  0.64702  0.56875  1.0000
  H   H1221     1.0  0.16641  0.77327  0.96400  1.0000
  S   S154      1.0  0.09159  0.96494  0.50081  1.0000
  C   C709      1.0  0.14866  0.50318  0.72582  1.0000
  H   H1222     1.0  0.12646  0.96951  0.55024  1.0000
  H   H1223     1.0  0.07264  0.66570  0.51817  1.0000
  C   C710      1.0  0.15614  0.97653  0.50877  1.0000
  H   H1224     1.0  0.98721  0.93879  0.89345  1.0000
  H   H1225     1.0  0.09943  0.94897  0.57411  1.0000
  N   N42       1.0  0.14854  0.57684  0.59894  1.0000
  H   H1226     1.0  0.12517  0.98831  0.80138  1.0000
  C   C711      1.0  0.13601  0.57420  0.58332  1.0000
  C   C712      1.0  0.13874  0.57821  0.62215  1.0000
  C   C713      1.0  0.15611  0.56152  0.60339  1.0000
  H   H1227     1.0  0.09998  0.63277  0.51374  1.0000
  H   H1228     1.0  0.02491  0.95137  0.47565  1.0000
  C   C714      1.0  0.12193  0.56361  0.63385  1.0000
  C   C715      1.0  0.14327  0.58083  0.55663  1.0000
  C   C716      1.0  0.12992  0.57425  0.54317  1.0000
  C   C717      1.0  0.17568  0.59862  0.60353  1.0000
  H   H1229     1.0  0.99460  0.52062  0.86258  1.0000
  C   C718      1.0  0.11366  0.56636  0.65741  1.0000
  H   H1230     1.0  0.15613  0.60470  0.58593  1.0000
  C   C719      1.0  0.11054  0.98552  0.56500  1.0000
  H   H1231     1.0  0.12895  0.56019  0.58696  1.0000
  H   H1232     1.0  0.12597  0.58124  0.58726  1.0000
  H   H1233     1.0  0.13529  0.59089  0.62039  1.0000
  H   H1234     1.0  0.14694  0.57812  0.63502  1.0000
  H   H1235     1.0  0.16353  0.56265  0.61711  1.0000
  H   H1236     1.0  0.14577  0.54923  0.61063  1.0000
  C   C720      1.0  0.11941  0.98145  0.78912  1.0000
  H   H1237     1.0  0.06527  0.69055  0.53296  1.0000
  H   H1238     1.0  0.02432  0.54037  0.82916  1.0000
  H   H1239     1.0  0.02683  0.92020  0.55151  1.0000
  H   H1240     1.0  0.12449  0.55062  0.63703  1.0000
  H   H1241     1.0  0.11230  0.56346  0.62296  1.0000
  H   H1242     1.0  0.15734  0.67626  0.93312  1.0000
  H   H1243     1.0  0.07836  0.54274  0.87790  1.0000
  H   H1244     1.0  0.15495  0.57674  0.55044  1.0000
  H   H1245     1.0  0.11790  0.57811  0.54873  1.0000
  H   H1246     1.0  0.13505  0.57995  0.52424  1.0000
  H   H1247     1.0  0.16317  0.98256  0.88674  1.0000
  H   H1248     1.0  0.13194  0.54796  0.74985  1.0000
  C   C721      1.0  0.99128  0.49893  0.48026  1.0000
  H   H1249     1.0  0.14665  0.59530  0.55200  1.0000
  H   H1250     1.0  0.08743  0.95850  0.55518  1.0000
  H   H1251     1.0  0.10157  0.55595  0.66532  1.0000
  H   H1252     1.0  0.12245  0.56587  0.66951  1.0000
  H   H1253     1.0  0.11050  0.57913  0.65526  1.0000
  H   H1254     1.0  0.02888  0.54029  0.90914  1.0000
  C   C722      1.0  0.17230  0.73126  0.86480  1.0000
  C   C723      1.0  0.01952  0.53109  0.90272  1.0000
  C   C724      1.0  0.04520  0.53682  0.87154  1.0000
  H   H1255     1.0  0.05993  0.74057  0.97008  1.0000
  H   H1256     1.0  0.08738  0.65399  0.58551  1.0000
  Fe  Fe77      1.0  0.07177  0.57057  0.48788  1.0000
  C   C725      1.0  0.99306  0.58846  0.84347  1.0000
  H   H1257     1.0  0.07619  0.74086  0.94543  1.0000
  H   H1258     1.0  0.00933  0.92506  0.47723  1.0000
  C   C726      1.0  0.08315  0.67603  0.52057  1.0000
  H   H1259     1.0  0.09892  0.98363  0.82560  1.0000
  C   C727      1.0  0.01047  0.89729  0.57579  1.0000
  H   H1260     1.0  0.00263  0.94444  0.82938  1.0000
  C   C728      1.0  0.06195  0.63539  0.56967  1.0000
  H   H1261     1.0  0.01902  0.51788  0.91256  1.0000
  Fe  Fe78      1.0  0.99996  0.99114  0.79437  1.0000
  H   H1262     1.0  0.05082  0.55024  0.87356  1.0000
  H   H1263     1.0  0.05038  0.53674  0.85309  1.0000
  H   H1264     1.0  0.11739  0.66752  0.52460  1.0000
  H   H1265     1.0  0.16971  0.59397  0.57139  1.0000
  S   S155      1.0  0.01463  0.58206  0.51509  1.0000
  C   C729      1.0  0.15240  0.68467  0.94393  1.0000
  H   H1266     1.0  0.14678  0.91430  0.53481  1.0000
  C   C730      1.0  0.16392  0.96794  0.52473  1.0000
  H   H1267     1.0  0.09342  0.57745  0.96900  1.0000
  H   H1268     1.0  0.00270  0.96211  0.84388  1.0000
  H   H1269     1.0  0.15894  0.95408  0.53170  1.0000
  H   H1270     1.0  0.05202  0.60816  0.56883  1.0000
  H   H1271     1.0  0.11886  0.64564  0.47507  1.0000
  H   H1272     1.0  0.05392  0.73609  0.94369  1.0000
  C   C731      1.0  0.02798  0.55206  0.83625  1.0000
  H   H1273     1.0  0.17114  0.72157  0.85385  1.0000
  C   C732      1.0  0.18025  0.54462  0.65511  1.0000
  H   H1274     1.0  0.01910  0.67546  0.92013  1.0000
  C   C733      1.0  0.17325  0.99453  0.83488  1.0000
  C   C734      1.0  0.16717  0.55259  0.66173  1.0000
  H   H1275     1.0  0.10671  0.66914  0.60748  1.0000
  H   H1276     1.0  0.17393  0.91823  0.47649  1.0000
  H   H1277     1.0  0.18244  0.62653  0.58855  1.0000
  C   C735      1.0  0.01899  0.51597  0.86995  1.0000
  C   C736      1.0  0.07817  0.63862  0.54992  1.0000
  C   C737      1.0  0.12318  0.68633  0.88768  1.0000
  H   H1278     1.0  0.04587  0.88995  0.95551  1.0000
  H   H1279     1.0  0.16394  0.51628  0.78318  1.0000
  C   C738      1.0  0.17132  0.68847  0.73837  1.0000
  H   H1280     1.0  0.08723  0.70359  0.52089  1.0000
  H   H1281     1.0  0.07763  0.67124  0.55832  1.0000
  H   H1282     1.0  0.11623  0.64590  0.53817  1.0000
  H   H1283     1.0  0.99208  0.52967  0.90220  1.0000
  H   H1284     1.0  0.01827  0.50838  0.50549  1.0000
  C   C739      1.0  0.14380  0.55808  0.73990  1.0000
  H   H1285     1.0  0.17999  0.72770  0.87749  1.0000
  H   H1286     1.0  0.02782  0.69536  0.94537  1.0000
  C   C740      1.0  0.06281  0.73427  0.95535  1.0000
  H   H1287     1.0  0.18425  0.75913  0.85888  1.0000
  H   H1288     1.0  0.00966  0.94355  0.85634  1.0000
  H   H1289     1.0  0.11208  0.96816  0.79919  1.0000
  H   H1290     1.0  0.07122  0.52030  0.95115  1.0000
  H   H1291     1.0  0.17653  0.65356  0.72076  1.0000
  H   H1292     1.0  0.09501  0.64003  0.95920  1.0000
  C   C741      1.0  0.10438  0.55014  0.96885  1.0000
  H   H1293     1.0  0.17590  0.75263  0.83488  1.0000
  H   H1294     1.0  0.11441  0.56126  0.97036  1.0000
  H   H1295     1.0  0.99093  0.94511  0.53517  1.0000
  H   H1296     1.0  0.18482  0.71158  0.68726  1.0000
  H   H1297     1.0  0.00395  0.54944  0.90720  1.0000
  C   C742      1.0  0.18430  0.99522  0.52376  1.0000
  C   C743      1.0  0.03081  0.97737  0.96881  1.0000
  C   C744      1.0  0.17794  0.64962  0.73884  1.0000
  H   H1298     1.0  0.04524  0.96904  0.49492  1.0000
  H   H1299     1.0  0.04061  0.93431  0.97076  1.0000
  H   H1300     1.0  0.06628  0.59139  0.95052  1.0000
  H   H1301     1.0  0.99599  0.89670  0.53987  1.0000
  S   S156      1.0  0.11234  0.72259  0.96711  1.0000
  H   H1302     1.0  0.17650  0.93228  0.52079  1.0000
  H   H1303     1.0  0.18528  0.54850  0.60141  1.0000
  H   H1304     1.0  0.05178  0.68112  0.95590  1.0000
  H   H1305     1.0  0.11508  0.97902  0.53064  1.0000
  H   H1306     1.0  0.10798  0.97784  0.58318  1.0000
  C   C745      1.0  0.18588  0.77193  0.90953  1.0000
  H   H1307     1.0  0.99274  0.51379  0.94191  1.0000
  H   H1308     1.0  0.15265  0.49995  0.77071  1.0000
  H   H1309     1.0  0.15922  0.97108  0.91664  1.0000
  C   C746      1.0  0.10741  0.99085  0.77746  1.0000
  H   H1310     1.0  0.18565  0.76336  0.89763  1.0000
  H   H1311     1.0  0.98662  0.93787  0.75388  1.0000
  H   H1312     1.0  0.13474  0.79789  0.47464  1.0000
  H   H1313     1.0  0.05727  0.99127  0.96152  1.0000
  H   H1314     1.0  0.00089  0.49789  0.84209  1.0000
  S   S157      1.0  0.98690  0.97516  0.77250  1.0000
  S   S158      1.0  0.11204  0.99398  0.91307  1.0000
  C   C747      1.0  0.04474  0.99328  0.96932  1.0000
  H   H1315     1.0  0.06357  0.99354  0.74493  1.0000
  C   C748      1.0  0.13033  0.82355  0.47761  1.0000
  H   H1316     1.0  0.12594  0.85685  0.47910  1.0000
  H   H1317     1.0  0.11606  0.81899  0.48119  1.0000
  H   H1318     1.0  0.18352  0.49827  0.79285  1.0000
  H   H1319     1.0  0.98674  0.93042  0.50102  1.0000
  H   H1320     1.0  0.98674  0.89680  0.49351  1.0000
  H   H1321     1.0  0.03352  0.70998  0.97126  1.0000
  C   C749      1.0  0.14136  0.49564  0.70692  1.0000
  Fe  Fe79      1.0  0.26065  0.38353  0.36160  1.0000
  S   S159      1.0  0.24967  0.40423  0.34436  1.0000
  S   S160      1.0  0.25218  0.35461  0.36212  1.0000
  Fe  Fe80      1.0  0.28293  0.40915  0.38398  1.0000
  S   S161      1.0  0.27410  0.43168  0.36758  1.0000
  S   S162      1.0  0.29999  0.40919  0.41021  1.0000
  Fe  Fe81      1.0  0.24766  0.41302  0.37819  1.0000
  S   S163      1.0  0.22607  0.42312  0.39546  1.0000
  Fe  Fe82      1.0  0.27688  0.42100  0.33530  1.0000
  S   S164      1.0  0.29157  0.43713  0.29935  1.0000
  S   S165      1.0  0.25636  0.39105  0.39620  1.0000
  S   S166      1.0  0.28801  0.39971  0.35083  1.0000
  Fe  Fe83      1.0  0.37070  0.27834  0.36002  1.0000
  S   S167      1.0  0.34446  0.28270  0.35631  1.0000
  Fe  Fe84      1.0  0.23903  0.39680  0.00793  1.0000
  S   S168      1.0  0.22186  0.41474  0.01155  1.0000
  S   S169      1.0  0.22926  0.37075  0.03421  1.0000
  C   C750      1.0  0.33383  0.49315  0.21312  1.0000
  C   C751      1.0  0.37340  0.09132  0.45104  1.0000
  Fe  Fe85      1.0  0.24574  0.43506  0.01143  1.0000
  S   S170      1.0  0.24209  0.44971  0.04087  1.0000
  H   H1322     1.0  0.28114  0.25425  0.12021  1.0000
  S   S171      1.0  0.26248  0.41662  0.00955  1.0000
  H   H1323     1.0  0.32306  0.24601  0.10477  1.0000
  S   S172      1.0  0.35512  0.27111  0.01428  1.0000
  C   C752      1.0  0.36570  0.30331  0.29420  1.0000
  Fe  Fe86      1.0  0.23027  0.25149  0.29238  1.0000
  S   S173      1.0  0.23638  0.27401  0.26121  1.0000
  S   S174      1.0  0.20227  0.23719  0.31027  1.0000
  Fe  Fe87      1.0  0.26829  0.25601  0.29365  1.0000
  S   S175      1.0  0.27710  0.27823  0.26223  1.0000
  S   S176      1.0  0.28598  0.24338  0.31228  1.0000
  Fe  Fe88      1.0  0.25537  0.28795  0.27930  1.0000
  S   S177      1.0  0.26160  0.31729  0.27718  1.0000
  Fe  Fe89      1.0  0.25752  0.26272  0.24657  1.0000
  S   S178      1.0  0.26500  0.25818  0.20988  1.0000
  S   S179      1.0  0.24757  0.26642  0.31170  1.0000
  S   S180      1.0  0.25039  0.23949  0.27678  1.0000
  Fe  Fe90      1.0  0.22937  0.25330  0.09526  1.0000
  S   S181      1.0  0.25603  0.26707  0.07415  1.0000
  S   S182      1.0  0.22040  0.25596  0.13269  1.0000
  Fe  Fe91      1.0  0.21768  0.23980  0.05351  1.0000
  S   S183      1.0  0.24386  0.25288  0.02987  1.0000
  H   H1324     1.0  0.26467  0.43595  0.13016  1.0000
  Fe  Fe92      1.0  0.25468  0.24307  0.05997  1.0000
  S   S184      1.0  0.27662  0.22994  0.05713  1.0000
  Fe  Fe93      1.0  0.24319  0.27601  0.04582  1.0000
  S   S185      1.0  0.25394  0.30306  0.02184  1.0000
  S   S186      1.0  0.22853  0.22833  0.08302  1.0000
  S   S187      1.0  0.21646  0.26382  0.06760  1.0000
  H   H1325     1.0  0.26859  0.26080  0.38186  1.0000
  H   H1326     1.0  0.37597  0.23679  0.30794  1.0000
  C   C753      1.0  0.36025  0.07686  0.47052  1.0000
  S   S188      1.0  0.25727  0.47078  0.22205  1.0000
  H   H1327     1.0  0.36049  0.03719  0.01414  1.0000
  H   H1328     1.0  0.23383  0.33819  0.98127  1.0000
  C   C754      1.0  0.29088  0.48636  0.32269  1.0000
  C   C755      1.0  0.37615  0.34287  0.41869  1.0000
  H   H1329     1.0  0.24666  0.18345  0.31663  1.0000
  C   C756      1.0  0.37424  0.29767  0.27255  1.0000
  C   C757      1.0  0.25290  0.25864  0.18804  1.0000
  C   C758      1.0  0.23861  0.26550  0.18955  1.0000
  C   C759      1.0  0.22900  0.26497  0.17222  1.0000
  C   C760      1.0  0.23363  0.25773  0.15310  1.0000
  C   C761      1.0  0.24809  0.25121  0.15138  1.0000
  C   C762      1.0  0.25768  0.25166  0.16872  1.0000
  H   H1330     1.0  0.23498  0.27120  0.20407  1.0000
  H   H1331     1.0  0.21790  0.27020  0.17362  1.0000
  H   H1332     1.0  0.25152  0.24540  0.13693  1.0000
  H   H1333     1.0  0.26867  0.24627  0.16741  1.0000
  C   C763      1.0  0.33332  0.25916  0.02507  1.0000
  C   C764      1.0  0.32045  0.26808  0.02479  1.0000
  C   C765      1.0  0.30300  0.25923  0.03407  1.0000
  C   C766      1.0  0.29828  0.24137  0.04397  1.0000
  C   C767      1.0  0.31112  0.23239  0.04405  1.0000
  C   C768      1.0  0.32858  0.24124  0.03466  1.0000
  H   H1334     1.0  0.32400  0.28195  0.01743  1.0000
  H   H1335     1.0  0.29322  0.26627  0.03381  1.0000
  H   H1336     1.0  0.30757  0.21857  0.05176  1.0000
  H   H1337     1.0  0.33840  0.23430  0.03536  1.0000
  C   C769      1.0  0.18765  0.40956  0.45357  1.0000
  C   C770      1.0  0.25585  0.45691  0.05915  1.0000
  C   C771      1.0  0.24853  0.45994  0.08068  1.0000
  C   C772      1.0  0.25892  0.46642  0.09530  1.0000
  C   C773      1.0  0.27682  0.47002  0.08855  1.0000
  C   C774      1.0  0.28412  0.46665  0.06726  1.0000
  C   C775      1.0  0.27375  0.46028  0.05256  1.0000
  H   H1338     1.0  0.23471  0.45722  0.08610  1.0000
  H   H1339     1.0  0.25312  0.46851  0.11189  1.0000
  H   H1340     1.0  0.19812  0.48844  0.05270  1.0000
  H   H1341     1.0  0.27965  0.45831  0.03593  1.0000
  C   C776      1.0  0.24749  0.32188  0.02647  1.0000
  C   C777      1.0  0.25595  0.33795  0.01087  1.0000
  C   C778      1.0  0.25067  0.35309  0.01320  1.0000
  C   C779      1.0  0.23689  0.35228  0.03122  1.0000
  C   C780      1.0  0.22863  0.33630  0.04709  1.0000
  C   C781      1.0  0.23391  0.32116  0.04478  1.0000
  H   H1342     1.0  0.35617  0.23716  0.32664  1.0000
  H   H1343     1.0  0.25719  0.36536  0.00098  1.0000
  H   H1344     1.0  0.21796  0.33558  0.06112  1.0000
  H   H1345     1.0  0.22737  0.30889  0.05698  1.0000
  H   H1346     1.0  0.26840  0.35795  0.40847  1.0000
  H   H1347     1.0  0.33803  0.22477  0.99871  1.0000
  C   C782      1.0  0.18791  0.42765  0.36265  1.0000
  H   H1348     1.0  0.26994  0.40620  0.45542  1.0000
  H   H1349     1.0  0.29609  0.41699  0.02196  1.0000
  C   C783      1.0  0.32944  0.27188  0.34216  1.0000
  C   C784      1.0  0.32696  0.25422  0.34211  1.0000
  C   C785      1.0  0.31382  0.24575  0.33252  1.0000
  C   C786      1.0  0.30309  0.25486  0.32273  1.0000
  C   C787      1.0  0.30592  0.27265  0.32211  1.0000
  C   C788      1.0  0.31889  0.28104  0.33201  1.0000
  H   H1350     1.0  0.33472  0.24694  0.35031  1.0000
  H   H1351     1.0  0.31175  0.23199  0.33311  1.0000
  H   H1352     1.0  0.29790  0.27984  0.31439  1.0000
  H   H1353     1.0  0.32070  0.29469  0.33191  1.0000
  C   C789      1.0  0.31074  0.42796  0.41856  1.0000
  C   C790      1.0  0.30926  0.44459  0.40949  1.0000
  C   C791      1.0  0.31778  0.45911  0.41686  1.0000
  C   C792      1.0  0.32796  0.45722  0.43326  1.0000
  C   C793      1.0  0.32949  0.44058  0.44228  1.0000
  C   C794      1.0  0.32089  0.42605  0.43500  1.0000
  H   H1354     1.0  0.30160  0.44628  0.39676  1.0000
  H   H1355     1.0  0.27138  0.39430  0.04893  1.0000
  H   H1356     1.0  0.32212  0.41325  0.44215  1.0000
  C   C795      1.0  0.21091  0.41067  0.42108  1.0000
  C   C796      1.0  0.20770  0.39256  0.42759  1.0000
  H   H1357     1.0  0.29480  0.19561  0.99686  1.0000
  H   H1358     1.0  0.21517  0.38588  0.41740  1.0000
  C   C797      1.0  0.28177  0.44655  0.27827  1.0000
  C   C798      1.0  0.29169  0.45415  0.25556  1.0000
  C   C799      1.0  0.28437  0.46161  0.23810  1.0000
  C   C800      1.0  0.26703  0.46150  0.24328  1.0000
  C   C801      1.0  0.25708  0.45382  0.26597  1.0000
  C   C802      1.0  0.26440  0.44635  0.28343  1.0000
  H   H1359     1.0  0.30511  0.45424  0.25143  1.0000
  H   H1360     1.0  0.35193  0.06062  0.98333  1.0000
  H   H1361     1.0  0.24366  0.45377  0.27007  1.0000
  H   H1362     1.0  0.25665  0.44052  0.30086  1.0000
  C   C803      1.0  0.25481  0.34465  0.33810  1.0000
  C   C804      1.0  0.24748  0.32666  0.34167  1.0000
  C   C805      1.0  0.24951  0.31807  0.32326  1.0000
  C   C806      1.0  0.25896  0.32740  0.30106  1.0000
  C   C807      1.0  0.26639  0.34539  0.29749  1.0000
  C   C808      1.0  0.26430  0.35401  0.31589  1.0000
  H   H1363     1.0  0.24012  0.31932  0.35879  1.0000
  H   H1364     1.0  0.24367  0.30425  0.32623  1.0000
  H   H1365     1.0  0.27383  0.35263  0.28040  1.0000
  H   H1366     1.0  0.27011  0.36783  0.31295  1.0000
  H   H1367     1.0  0.31650  0.47190  0.40980  1.0000
  H   H1368     1.0  0.35460  0.25100  0.09530  1.0000
  C   C809      1.0  0.31396  0.26328  0.16656  1.0000
  C   C810      1.0  0.25898  0.41808  0.10783  1.0000
  H   H1369     1.0  0.24903  0.42326  0.42900  1.0000
  H   H1370     1.0  0.20465  0.37914  0.98495  1.0000
  S   S189      1.0  0.33809  0.47589  0.44238  1.0000
  H   H1371     1.0  0.24539  0.41867  0.11118  1.0000
  C   C811      1.0  0.35847  0.24725  0.28958  1.0000
  H   H1372     1.0  0.24211  0.39483  0.44133  1.0000
  H   H1373     1.0  0.21071  0.20680  0.29551  1.0000
  H   H1374     1.0  0.34386  0.27683  0.09956  1.0000
  H   H1375     1.0  0.21751  0.47937  0.07716  1.0000
  H   H1376     1.0  0.21542  0.41249  0.06318  1.0000
  H   H1377     1.0  0.26592  0.42832  0.09209  1.0000
  H   H1378     1.0  0.25560  0.45146  0.39675  1.0000
  H   H1379     1.0  0.19638  0.27017  0.24077  1.0000
  H   H1380     1.0  0.36671  0.41612  0.43779  1.0000
  H   H1381     1.0  0.28117  0.28094  0.09887  1.0000
  C   C812      1.0  0.20121  0.41914  0.43460  1.0000
  H   H1382     1.0  0.30293  0.26838  0.17307  1.0000
  H   H1383     1.0  0.36907  0.26505  0.24300  1.0000
  C   C813      1.0  0.29958  0.42161  0.03729  1.0000
  S   S190      1.0  0.19523  0.22845  0.03733  1.0000
  H   H1384     1.0  0.19419  0.28311  0.02024  1.0000
  N   N43       1.0  0.19755  0.22153  0.22718  1.0000
  H   H1385     1.0  0.29686  0.29741  0.10562  1.0000
  H   H1386     1.0  0.18822  0.44023  0.98816  1.0000
  S   S191      1.0  0.38211  0.23496  0.02420  1.0000
  H   H1387     1.0  0.37806  0.37626  0.42483  1.0000
  C   C814      1.0  0.30828  0.28106  0.08523  1.0000
  H   H1388     1.0  0.19325  0.34152  0.01443  1.0000
  H   H1389     1.0  0.36189  0.20288  0.46192  1.0000
  H   H1390     1.0  0.24311  0.36435  0.45115  1.0000
  C   C815      1.0  0.21084  0.48690  0.04467  1.0000
  C   C816      1.0  0.26214  0.45863  0.40822  1.0000
  C   C817      1.0  0.28360  0.41868  0.05668  1.0000
  S   S192      1.0  0.38140  0.46896  0.45879  1.0000
  H   H1391     1.0  0.37595  0.05451  0.99312  1.0000
  H   H1392     1.0  0.36717  0.29519  0.31029  1.0000
  H   H1393     1.0  0.35809  0.26831  0.30641  1.0000
  H   H1394     1.0  0.37469  0.11528  0.42698  1.0000
  C   C818      1.0  0.29234  0.48858  0.29648  1.0000
  S   S193      1.0  0.38535  0.26160  0.34317  1.0000
  H   H1395     1.0  0.37429  0.36098  0.45159  1.0000
  H   H1396     1.0  0.19324  0.17626  0.30183  1.0000
  H   H1397     1.0  0.30614  0.43575  0.03157  1.0000
  C   C819      1.0  0.21235  0.30151  0.99015  1.0000
  C   C820      1.0  0.36575  0.26649  0.29018  1.0000
  H   H1398     1.0  0.28277  0.49118  0.25495  1.0000
  H   H1399     1.0  0.36731  0.26997  0.07330  1.0000
  H   H1400     1.0  0.21379  0.29472  0.02654  1.0000
  C   C821      1.0  0.34711  0.27994  0.26818  1.0000
  Fe  Fe94      1.0  0.28550  0.49271  0.13549  1.0000
  C   C822      1.0  0.19528  0.43219  0.33636  1.0000
  H   H1401     1.0  0.19891  0.23973  0.19528  1.0000
  H   H1402     1.0  0.24739  0.23274  0.39532  1.0000
  H   H1403     1.0  0.22559  0.41205  0.46289  1.0000
  C   C823      1.0  0.33859  0.26870  0.25275  1.0000
  C   C824      1.0  0.31988  0.26911  0.25442  1.0000
  C   C825      1.0  0.32601  0.19759  0.00678  1.0000
  H   H1404     1.0  0.35336  0.00823  0.00702  1.0000
  H   H1405     1.0  0.32996  0.18084  0.03679  1.0000
  C   C826      1.0  0.24450  0.38986  0.45852  1.0000
  C   C827      1.0  0.35441  0.26058  0.07964  1.0000
  H   H1406     1.0  0.33854  0.27589  0.28599  1.0000
  H   H1407     1.0  0.34626  0.29336  0.26109  1.0000
  H   H1408     1.0  0.19818  0.21268  0.39421  1.0000
  H   H1409     1.0  0.20902  0.32197  0.00738  1.0000
  H   H1410     1.0  0.19636  0.19230  0.05514  1.0000
  S   S194      1.0  0.38096  0.27507  0.39289  1.0000
  H   H1411     1.0  0.28413  0.29090  0.35965  1.0000
  Fe  Fe95      1.0  0.37770  0.25954  0.00494  1.0000
  S   S195      1.0  0.38206  0.20271  0.98151  1.0000
  H   H1412     1.0  0.38122  0.33443  0.40801  1.0000
  C   C828      1.0  0.18785  0.19212  0.04326  1.0000
  H   H1413     1.0  0.35181  0.30211  0.29536  1.0000
  H   H1414     1.0  0.34532  0.27389  0.23413  1.0000
  H   H1415     1.0  0.33889  0.25495  0.25780  1.0000
  H   H1416     1.0  0.31235  0.26388  0.27260  1.0000
  H   H1417     1.0  0.31899  0.28263  0.24845  1.0000
  H   H1418     1.0  0.31406  0.26096  0.24332  1.0000
  H   H1419     1.0  0.24056  0.44898  0.43732  1.0000
  H   H1420     1.0  0.32220  0.18662  0.99842  1.0000
  C   C829      1.0  0.31021  0.27035  0.12518  1.0000
  C   C830      1.0  0.36832  0.41267  0.45591  1.0000
  H   H1421     1.0  0.19042  0.31207  0.99826  1.0000
  C   C831      1.0  0.26628  0.42296  0.12822  1.0000
  H   H1422     1.0  0.36875  0.05280  0.45261  1.0000
  C   C832      1.0  0.32246  0.25780  0.09265  1.0000
  H   H1423     1.0  0.32666  0.47920  0.21901  1.0000
  N   N44       1.0  0.25707  0.39457  0.08282  1.0000
  C   C833      1.0  0.24441  0.40297  0.07295  1.0000
  H   H1424     1.0  0.30873  0.41468  0.04361  1.0000
  C   C834      1.0  0.24969  0.37506  0.08752  1.0000
  C   C835      1.0  0.26016  0.39954  0.10519  1.0000
  C   C836      1.0  0.33741  0.19249  0.02295  1.0000
  C   C837      1.0  0.22573  0.39707  0.08804  1.0000
  C   C838      1.0  0.26142  0.36360  0.09531  1.0000
  C   C839      1.0  0.34081  0.27034  0.08546  1.0000
  C   C840      1.0  0.29400  0.29027  0.09197  1.0000
  H   H1425     1.0  0.29905  0.47904  0.29084  1.0000
  C   C841      1.0  0.21555  0.41024  0.08197  1.0000
  C   C842      1.0  0.25150  0.34438  0.10322  1.0000
  H   H1426     1.0  0.24354  0.40001  0.05570  1.0000
  H   H1427     1.0  0.29212  0.46744  0.22066  1.0000
  N   N45       1.0  0.30804  0.26503  0.10277  1.0000
  H   H1428     1.0  0.25945  0.41326  0.14467  1.0000
  H   H1429     1.0  0.24607  0.37133  0.07168  1.0000
  H   H1430     1.0  0.23758  0.37082  0.10129  1.0000
  H   H1431     1.0  0.25076  0.39034  0.12056  1.0000
  C   C843      1.0  0.37544  0.05361  0.46717  1.0000
  H   H1432     1.0  0.32242  0.25056  0.13992  1.0000
  H   H1433     1.0  0.19556  0.45853  0.40839  1.0000
  H   H1434     1.0  0.21894  0.38447  0.08486  1.0000
  H   H1435     1.0  0.22547  0.39510  0.10690  1.0000
  H   H1436     1.0  0.26653  0.33863  0.99674  1.0000
  H   H1437     1.0  0.27219  0.36456  0.08054  1.0000
  H   H1438     1.0  0.37485  0.28785  0.23211  1.0000
  C   C844      1.0  0.31145  0.25603  0.14517  1.0000
  H   H1439     1.0  0.27186  0.20692  0.12223  1.0000
  H   H1440     1.0  0.27457  0.34880  0.43431  1.0000
  H   H1441     1.0  0.36433  0.24416  0.27324  1.0000
  H   H1442     1.0  0.32060  0.29123  0.08200  1.0000
  H   H1443     1.0  0.34210  0.20325  0.03135  1.0000
  H   H1444     1.0  0.38406  0.09823  0.45773  1.0000
  H   H1445     1.0  0.35472  0.09879  0.43224  1.0000
  C   C845      1.0  0.19747  0.20299  0.30504  1.0000
  H   H1446     1.0  0.29627  0.22858  0.09638  1.0000
  H   H1447     1.0  0.26025  0.33639  0.10813  1.0000
  H   H1448     1.0  0.24080  0.34227  0.11859  1.0000
  H   H1449     1.0  0.24618  0.33985  0.08888  1.0000
  H   H1450     1.0  0.22508  0.42247  0.28976  1.0000
  N   N46       1.0  0.25783  0.39798  0.25250  1.0000
  C   C846      1.0  0.27341  0.40519  0.26136  1.0000
  C   C847      1.0  0.24354  0.40562  0.26182  1.0000
  C   C848      1.0  0.25283  0.37841  0.26055  1.0000
  C   C849      1.0  0.26158  0.40279  0.22621  1.0000
  C   C850      1.0  0.26997  0.42240  0.21463  1.0000
  C   C851      1.0  0.28985  0.39967  0.25222  1.0000
  C   C852      1.0  0.23549  0.36871  0.25630  1.0000
  C   C853      1.0  0.23682  0.40084  0.28865  1.0000
  C   C854      1.0  0.22147  0.40808  0.29586  1.0000
  C   C855      1.0  0.27212  0.42589  0.18821  1.0000
  C   C856      1.0  0.30512  0.40925  0.26046  1.0000
  C   C857      1.0  0.23208  0.34903  0.26503  1.0000
  H   H1451     1.0  0.27069  0.40110  0.28068  1.0000
  H   H1452     1.0  0.27655  0.41960  0.25748  1.0000
  H   H1453     1.0  0.24783  0.42007  0.25688  1.0000
  H   H1454     1.0  0.23246  0.40213  0.25364  1.0000
  H   H1455     1.0  0.25248  0.37447  0.27944  1.0000
  H   H1456     1.0  0.26280  0.37292  0.25166  1.0000
  H   H1457     1.0  0.26994  0.39516  0.21855  1.0000
  H   H1458     1.0  0.24949  0.39910  0.22014  1.0000
  H   H1459     1.0  0.28292  0.42678  0.21808  1.0000
  H   H1460     1.0  0.26198  0.43070  0.22109  1.0000
  H   H1461     1.0  0.28794  0.38551  0.25893  1.0000
  H   H1462     1.0  0.29342  0.40259  0.23293  1.0000
  H   H1463     1.0  0.23560  0.37134  0.23746  1.0000
  H   H1464     1.0  0.22458  0.37266  0.26568  1.0000
  H   H1465     1.0  0.23269  0.38656  0.29575  1.0000
  H   H1466     1.0  0.24701  0.40660  0.29700  1.0000
  H   H1467     1.0  0.32162  0.28164  0.12191  1.0000
  H   H1468     1.0  0.26383  0.22418  0.10864  1.0000
  C   C858      1.0  0.20467  0.31721  0.99252  1.0000
  H   H1469     1.0  0.28037  0.41821  0.18051  1.0000
  H   H1470     1.0  0.25940  0.42259  0.18371  1.0000
  H   H1471     1.0  0.27831  0.43995  0.18046  1.0000
  H   H1472     1.0  0.31655  0.40454  0.25471  1.0000
  H   H1473     1.0  0.30829  0.42347  0.25299  1.0000
  H   H1474     1.0  0.30216  0.40695  0.27977  1.0000
  H   H1475     1.0  0.23136  0.34563  0.28405  1.0000
  H   H1476     1.0  0.21966  0.34227  0.26178  1.0000
  H   H1477     1.0  0.24242  0.34417  0.25580  1.0000
  C   C859      1.0  0.21508  0.21858  0.21954  1.0000
  H   H1478     1.0  0.20812  0.20955  0.35516  1.0000
  C   C860      1.0  0.22535  0.21611  0.23867  1.0000
  C   C861      1.0  0.24109  0.20977  0.23024  1.0000
  C   C862      1.0  0.36489  0.10486  0.44051  1.0000
  H   H1479     1.0  0.23503  0.19612  0.43654  1.0000
  H   H1480     1.0  0.22333  0.22961  0.20522  1.0000
  H   H1481     1.0  0.21396  0.20682  0.21210  1.0000
  H   H1482     1.0  0.21058  0.40233  0.28853  1.0000
  H   H1483     1.0  0.21725  0.20653  0.25455  1.0000
  H   H1484     1.0  0.23014  0.22875  0.24321  1.0000
  H   H1485     1.0  0.34208  0.28042  0.06955  1.0000
  H   H1486     1.0  0.30751  0.27773  0.06813  1.0000
  H   H1487     1.0  0.24951  0.21900  0.21419  1.0000
  H   H1488     1.0  0.24862  0.20899  0.24389  1.0000
  H   H1489     1.0  0.23712  0.19665  0.22661  1.0000
  C   C863      1.0  0.32946  0.32997  0.35376  1.0000
  H   H1490     1.0  0.27548  0.42667  0.04991  1.0000
  C   C864      1.0  0.34617  0.32929  0.36145  1.0000
  H   H1491     1.0  0.36396  0.38545  0.45654  1.0000
  H   H1492     1.0  0.37866  0.08571  0.43664  1.0000
  H   H1493     1.0  0.28024  0.42375  0.12497  1.0000
  H   H1494     1.0  0.38287  0.02238  0.02176  1.0000
  C   C865      1.0  0.25198  0.37429  0.45708  1.0000
  H   H1495     1.0  0.37793  0.42356  0.45905  1.0000
  C   C866      1.0  0.27763  0.21167  0.00223  1.0000
  C   C867      1.0  0.22320  0.48949  0.06081  1.0000
  H   H1496     1.0  0.23458  0.48604  0.10167  1.0000
  H   H1497     1.0  0.27773  0.29472  0.33229  1.0000
  H   H1498     1.0  0.25186  0.21431  0.31983  1.0000
  H   H1499     1.0  0.20391  0.43317  0.43001  1.0000
  H   H1500     1.0  0.26585  0.20093  0.00489  1.0000
  H   H1501     1.0  0.31983  0.25338  0.07678  1.0000
  H   H1502     1.0  0.20677  0.29428  0.97802  1.0000
  H   H1503     1.0  0.20208  0.40524  0.09228  1.0000
  H   H1504     1.0  0.24490  0.19273  0.35568  1.0000
  H   H1505     1.0  0.32184  0.31630  0.35652  1.0000
  C   C868      1.0  0.20626  0.22447  0.38101  1.0000
  H   H1506     1.0  0.25376  0.20257  0.39684  1.0000
  H   H1507     1.0  0.28263  0.30991  0.07626  1.0000
  H   H1508     1.0  0.28590  0.32589  0.32810  1.0000
  H   H1509     1.0  0.34860  0.18922  0.01307  1.0000
  H   H1510     1.0  0.19176  0.36896  0.45169  1.0000
  C   C869      1.0  0.33545  0.21469  0.98854  1.0000
  H   H1511     1.0  0.35465  0.34261  0.35873  1.0000
  C   C870      1.0  0.21747  0.21904  0.36124  1.0000
  H   H1512     1.0  0.34342  0.32256  0.38011  1.0000
  H   H1513     1.0  0.27524  0.22401  0.99377  1.0000
  H   H1514     1.0  0.18970  0.19337  0.24006  1.0000
  C   C871      1.0  0.23853  0.20578  0.32568  1.0000
  H   H1515     1.0  0.22252  0.23054  0.34623  1.0000
  H   H1516     1.0  0.30350  0.31748  0.33384  1.0000
  C   C872      1.0  0.27373  0.39919  0.06466  1.0000
  C   C873      1.0  0.18750  0.18569  0.30860  1.0000
  H   H1517     1.0  0.36843  0.33448  0.43573  1.0000
  C   C874      1.0  0.20829  0.28847  0.01353  1.0000
  C   C875      1.0  0.27189  0.22080  0.12092  1.0000
  C   C876      1.0  0.38065  0.21750  0.43051  1.0000
  H   H1518     1.0  0.35612  0.22121  0.30919  1.0000
  H   H1519     1.0  0.25101  0.23326  0.34305  1.0000
  H   H1520     1.0  0.37537  0.30789  0.25675  1.0000
  H   H1521     1.0  0.28737  0.42714  0.46676  1.0000
  C   C877      1.0  0.19116  0.22655  0.20546  1.0000
  H   H1522     1.0  0.30532  0.31371  0.06417  1.0000
  H   H1523     1.0  0.31447  0.19939  0.01792  1.0000
  H   H1524     1.0  0.32606  0.27386  0.16235  1.0000
  H   H1525     1.0  0.34549  0.49543  0.22036  1.0000
  C   C878      1.0  0.37391  0.39577  0.46008  1.0000
  C   C879      1.0  0.23421  0.19849  0.35239  1.0000
  H   H1526     1.0  0.22966  0.21346  0.32050  1.0000
  H   H1527     1.0  0.21720  0.40477  0.31516  1.0000
  C   C880      1.0  0.30916  0.22330  0.98123  1.0000
  H   H1528     1.0  0.29909  0.27510  0.13241  1.0000
  N   N47       1.0  0.36545  0.27999  0.26945  1.0000
  H   H1529     1.0  0.22132  0.42283  0.08601  1.0000
  H   H1530     1.0  0.35184  0.25366  0.06569  1.0000
  C   C881      1.0  0.29034  0.23227  0.11230  1.0000
  C   C882      1.0  0.37218  0.04014  0.99978  1.0000
  H   H1531     1.0  0.20966  0.24811  0.22725  1.0000
  H   H1532     1.0  0.34844  0.21378  0.98037  1.0000
  H   H1533     1.0  0.27782  0.24451  0.37173  1.0000
  H   H1534     1.0  0.27844  0.33186  0.40426  1.0000
  S   S196      1.0  0.29054  0.47826  0.10627  1.0000
  C   C883      1.0  0.24099  0.19308  0.40074  1.0000
  H   H1535     1.0  0.19602  0.47965  0.14957  1.0000
  H   H1536     1.0  0.33721  0.43891  0.45496  1.0000
  C   C884      1.0  0.19587  0.36833  0.99902  1.0000
  H   H1537     1.0  0.21412  0.23289  0.38993  1.0000
  H   H1538     1.0  0.35583  0.41104  0.46807  1.0000
  H   H1539     1.0  0.29743  0.22902  0.12579  1.0000
  C   C885      1.0  0.22739  0.20175  0.39233  1.0000
  C   C886      1.0  0.19178  0.21418  0.18846  1.0000
  H   H1540     1.0  0.26461  0.37840  0.44440  1.0000
  H   H1541     1.0  0.28307  0.39267  0.07120  1.0000
  C   C887      1.0  0.24990  0.23907  0.37662  1.0000
  H   H1542     1.0  0.29795  0.46930  0.06186  1.0000
  H   H1543     1.0  0.28819  0.42342  0.07130  1.0000
  H   H1544     1.0  0.34432  0.24437  0.29165  1.0000
  H   H1545     1.0  0.20525  0.21642  0.17865  1.0000
  C   C888      1.0  0.20936  0.48122  0.13984  1.0000
  H   H1546     1.0  0.31026  0.22825  0.99727  1.0000
  N   N48       1.0  0.23198  0.21150  0.36714  1.0000
  H   H1547     1.0  0.24072  0.24702  0.37388  1.0000
  H   H1548     1.0  0.22476  0.21038  0.40420  1.0000
  C   C889      1.0  0.37378  0.20347  0.45016  1.0000
  H   H1549     1.0  0.37277  0.33113  0.27837  1.0000
  H   H1550     1.0  0.26559  0.29930  0.35751  1.0000
  C   C890      1.0  0.24863  0.22560  0.36123  1.0000
  C   C891      1.0  0.38466  0.36904  0.43638  1.0000
  C   C892      1.0  0.29046  0.31812  0.34174  1.0000
  H   H1551     1.0  0.33350  0.39437  0.30197  1.0000
  H   H1552     1.0  0.29848  0.34135  0.41106  1.0000
  C   C893      1.0  0.27873  0.29962  0.34831  1.0000
  H   H1553     1.0  0.31201  0.38331  0.30116  1.0000
  H   H1554     1.0  0.33368  0.37042  0.33406  1.0000
  H   H1555     1.0  0.28865  0.36825  0.41447  1.0000
  C   C894      1.0  0.29083  0.25192  0.10643  1.0000
  H   H1556     1.0  0.35315  0.32188  0.35107  1.0000
  H   H1557     1.0  0.27612  0.45963  0.40363  1.0000
  H   H1558     1.0  0.22422  0.18238  0.31738  1.0000
  H   H1559     1.0  0.24078  0.19678  0.29354  1.0000
  H   H1560     1.0  0.32965  0.37377  0.29353  1.0000
  C   C895      1.0  0.36192  0.23491  0.30959  1.0000
  H   H1561     1.0  0.21823  0.48463  0.15131  1.0000
  H   H1562     1.0  0.31667  0.38070  0.34142  1.0000
  C   C896      1.0  0.38210  0.19018  0.45464  1.0000
  H   H1563     1.0  0.22314  0.17575  0.43190  1.0000
  H   H1564     1.0  0.20943  0.43404  0.33285  1.0000
  H   H1565     1.0  0.37901  0.26830  0.29313  1.0000
  H   H1566     1.0  0.28517  0.44766  0.45204  1.0000
  H   H1567     1.0  0.20904  0.47355  0.04148  1.0000
  H   H1568     1.0  0.26676  0.36757  0.10988  1.0000
  H   H1569     1.0  0.26617  0.22235  0.13841  1.0000
  H   H1570     1.0  0.28977  0.29703  0.05688  1.0000
  H   H1571     1.0  0.35910  0.11094  0.45406  1.0000
  C   C897      1.0  0.19437  0.38299  0.44694  1.0000
  H   H1572     1.0  0.21515  0.19134  0.39578  1.0000
  N   N49       1.0  0.30349  0.34338  0.36067  1.0000
  C   C898      1.0  0.30779  0.35412  0.33601  1.0000
  C   C899      1.0  0.28999  0.32654  0.36315  1.0000
  C   C900      1.0  0.29595  0.35379  0.37643  1.0000
  C   C901      1.0  0.31918  0.33984  0.36831  1.0000
  C   C902      1.0  0.32117  0.37203  0.33076  1.0000
  C   C903      1.0  0.28824  0.34424  0.40238  1.0000
  C   C904      1.0  0.32425  0.38139  0.30526  1.0000
  C   C905      1.0  0.27947  0.35556  0.41566  1.0000
  H   H1573     1.0  0.29580  0.35649  0.33134  1.0000
  H   H1574     1.0  0.31278  0.34703  0.32327  1.0000
  H   H1575     1.0  0.29037  0.31660  0.37840  1.0000
  H   H1576     1.0  0.27684  0.32860  0.36693  1.0000
  H   H1577     1.0  0.28569  0.35859  0.36956  1.0000
  H   H1578     1.0  0.30581  0.36562  0.37675  1.0000
  H   H1579     1.0  0.32812  0.35219  0.36910  1.0000
  H   H1580     1.0  0.31552  0.33181  0.38643  1.0000
  H   H1581     1.0  0.33294  0.33624  0.33493  1.0000
  H   H1582     1.0  0.20482  0.23349  0.25493  1.0000
  C   C906      1.0  0.29283  0.20775  0.98729  1.0000
  C   C907      1.0  0.25445  0.44945  0.43377  1.0000
  H   H1583     1.0  0.21488  0.35388  0.00073  1.0000
  C   C908      1.0  0.20142  0.35150  0.99889  1.0000
  H   H1584     1.0  0.31468  0.25274  0.18073  1.0000
  H   H1585     1.0  0.25978  0.21985  0.36126  1.0000
  H   H1586     1.0  0.29933  0.24550  0.15073  1.0000
  C   C909      1.0  0.23746  0.19113  0.31260  1.0000
  H   H1587     1.0  0.24224  0.18209  0.39240  1.0000
  H   H1588     1.0  0.24554  0.17919  0.43254  1.0000
  C   C910      1.0  0.29293  0.30354  0.07100  1.0000
  H   H1589     1.0  0.37407  0.22757  0.42726  1.0000
  H   H1590     1.0  0.20443  0.49146  0.10701  1.0000
  H   H1591     1.0  0.27051  0.25932  0.35189  1.0000
  H   H1592     1.0  0.36840  0.32570  0.30976  1.0000
  H   H1593     1.0  0.22236  0.18744  0.35706  1.0000
  N   N50       1.0  0.36817  0.03108  0.98063  1.0000
  C   C911      1.0  0.23579  0.18560  0.42705  1.0000
  H   H1594     1.0  0.28560  0.25365  0.09044  1.0000
  C   C912      1.0  0.25676  0.40426  0.46616  1.0000
  H   H1595     1.0  0.24881  0.41737  0.06924  1.0000
  H   H1596     1.0  0.19507  0.25805  0.26975  1.0000
  C   C913      1.0  0.19982  0.23662  0.23903  1.0000
  H   H1597     1.0  0.27297  0.39812  0.10769  1.0000
  C   C914      1.0  0.26782  0.25165  0.37008  1.0000
  H   H1598     1.0  0.21033  0.46864  0.13548  1.0000
  C   C915      1.0  0.37435  0.32220  0.29372  1.0000
  H   H1599     1.0  0.37492  0.00787  0.99608  1.0000
  C   C916      1.0  0.35259  0.03572  0.97385  1.0000
  H   H1600     1.0  0.27039  0.43131  0.43092  1.0000
  H   H1601     1.0  0.21407  0.27749  0.01137  1.0000
  H   H1602     1.0  0.18964  0.42151  0.32842  1.0000
  H   H1603     1.0  0.19645  0.37199  0.01592  1.0000
  H   H1604     1.0  0.28019  0.21270  0.01955  1.0000
  C   C917      1.0  0.36370  0.01172  0.99078  1.0000
  H   H1605     1.0  0.22654  0.30589  0.98380  1.0000
  C   C918      1.0  0.19411  0.23433  0.37167  1.0000
  C   C919      1.0  0.37524  0.27752  0.24691  1.0000
  H   H1606     1.0  0.25192  0.49129  0.26202  1.0000
  Fe  Fe96      1.0  0.35641  0.47609  0.46700  1.0000
  H   H1607     1.0  0.31011  0.48671  0.25324  1.0000
  H   H1608     1.0  0.20152  0.24648  0.35864  1.0000
  H   H1609     1.0  0.28382  0.47271  0.33171  1.0000
  H   H1610     1.0  0.19267  0.44446  0.32808  1.0000
  H   H1611     1.0  0.26034  0.47198  0.40506  1.0000
  H   H1612     1.0  0.23537  0.48713  0.05224  1.0000
  H   H1613     1.0  0.36777  0.34922  0.40946  1.0000
  C   C920      1.0  0.25687  0.43076  0.43901  1.0000
  C   C921      1.0  0.18815  0.25952  0.25551  1.0000
  C   C922      1.0  0.19954  0.34502  0.97640  1.0000
  Fe  Fe97      1.0  0.27222  0.48946  0.18768  1.0000
  N   N51       1.0  0.25220  0.42147  0.46440  1.0000
  H   H1614     1.0  0.34099  0.02971  0.98836  1.0000
  C   C923      1.0  0.28183  0.43820  0.46906  1.0000
  S   S197      1.0  0.29754  0.48894  0.16655  1.0000
  H   H1615     1.0  0.35038  0.07079  0.46180  1.0000
  H   H1616     1.0  0.23187  0.38503  0.47117  1.0000
  H   H1617     1.0  0.26074  0.45770  0.44434  1.0000
  C   C924      1.0  0.19022  0.21531  0.31368  1.0000
  H   H1618     1.0  0.18752  0.20518  0.26195  1.0000
  S   S198      1.0  0.25958  0.49116  0.15708  1.0000
  H   H1619     1.0  0.27908  0.48509  0.29377  1.0000
  H   H1620     1.0  0.34727  0.25164  0.97925  1.0000
  H   H1621     1.0  0.38052  0.04724  0.04064  1.0000
  H   H1622     1.0  0.19132  0.41565  0.37007  1.0000
  H   H1623     1.0  0.30384  0.48905  0.32660  1.0000
  H   H1624     1.0  0.28372  0.49521  0.32957  1.0000
  H   H1625     1.0  0.19455  0.43841  0.36969  1.0000
  C   C925      1.0  0.35807  0.99952  0.97478  1.0000
  H   H1626     1.0  0.32744  0.25546  0.97406  1.0000
  H   H1627     1.0  0.18702  0.20033  0.19796  1.0000
  H   H1628     1.0  0.37139  0.16886  0.97214  1.0000
  Fe  Fe98      1.0  0.22854  0.42266  0.97240  1.0000
  S   S199      1.0  0.25120  0.44473  0.97223  1.0000
  S   S200      1.0  0.29211  0.42700  0.94705  1.0000
  C   C926      1.0  0.28332  0.05040  0.62725  1.0000
  H   H1629     1.0  0.20309  0.35665  0.96180  1.0000
  Fe  Fe99      1.0  0.37997  0.11366  0.89003  1.0000
  Fe  Fe100     1.0  0.36719  0.11319  0.52860  1.0000
  C   C927      1.0  0.32311  0.20722  0.95523  1.0000
  S   S201      1.0  0.34577  0.08899  0.54937  1.0000
  C   C928      1.0  0.23323  0.41888  0.47375  1.0000
  H   H1630     1.0  0.23256  0.36729  0.96526  1.0000
  S   S202      1.0  0.36928  0.14022  0.53419  1.0000
  Fe  Fe101     1.0  0.35835  0.12140  0.85466  1.0000
  H   H1631     1.0  0.38093  0.15397  0.78135  1.0000
  S   S203      1.0  0.33390  0.11196  0.84130  1.0000
  C   C929      1.0  0.19821  0.32865  0.91085  1.0000
  H   H1632     1.0  0.20072  0.33816  0.89396  1.0000
  C   C930      1.0  0.22566  0.04908  0.89969  1.0000
  H   H1633     1.0  0.36669  0.06272  0.95631  1.0000
  S   S204      1.0  0.35697  0.12475  0.89172  1.0000
  H   H1634     1.0  0.20421  0.39233  0.94407  1.0000
  C   C931      1.0  0.19052  0.00351  0.82416  1.0000
  S   S205      1.0  0.20181  0.00770  0.53256  1.0000
  H   H1635     1.0  0.20007  0.99635  0.82103  1.0000
  Fe  Fe102     1.0  0.26196  0.01533  0.54550  1.0000
  S   S206      1.0  0.28393  0.03836  0.52301  1.0000
  S   S207      1.0  0.23786  0.01961  0.56527  1.0000
  Fe  Fe103     1.0  0.26248  0.01884  0.74844  1.0000
  S   S208      1.0  0.28285  0.01536  0.76797  1.0000
  S   S209      1.0  0.27048  0.01554  0.71088  1.0000
  Fe  Fe104     1.0  0.24050  0.02419  0.79216  1.0000
  S   S210      1.0  0.25947  0.02038  0.81461  1.0000
  S   S211      1.0  0.21693  0.03381  0.80431  1.0000
  Fe  Fe105     1.0  0.27963  0.03787  0.78388  1.0000
  S   S212      1.0  0.30589  0.05558  0.78439  1.0000
  S   S213      1.0  0.26076  0.04294  0.76189  1.0000
  H   H1636     1.0  0.20319  0.05042  0.92285  1.0000
  S   S214      1.0  0.34922  0.46149  0.50449  1.0000
  S   S215      1.0  0.20567  0.49531  0.68009  1.0000
  H   H1637     1.0  0.28911  0.20523  0.97101  1.0000
  S   S216      1.0  0.21464  0.46810  0.64810  1.0000
  H   H1638     1.0  0.33337  0.02839  0.70554  1.0000
  H   H1639     1.0  0.28811  0.43824  0.50297  1.0000
  H   H1640     1.0  0.27538  0.99688  0.87385  1.0000
  H   H1641     1.0  0.38404  0.11609  0.95710  1.0000
  H   H1642     1.0  0.22056  0.34251  0.91988  1.0000
  H   H1643     1.0  0.31216  0.47754  0.72269  1.0000
  Fe  Fe106     1.0  0.36336  0.48640  0.51231  1.0000
  H   H1644     1.0  0.24861  0.04040  0.60350  1.0000
  H   H1645     1.0  0.23522  0.33201  0.95441  1.0000
  S   S217      1.0  0.24405  0.40322  0.96879  1.0000
  C   C932      1.0  0.24162  0.01091  0.69158  1.0000
  C   C933      1.0  0.25884  0.01069  0.68935  1.0000
  C   C934      1.0  0.35389  0.05547  0.96733  1.0000
  C   C935      1.0  0.33246  0.48363  0.80935  1.0000
  C   C936      1.0  0.36936  0.18108  0.54753  1.0000
  C   C937      1.0  0.32607  0.09512  0.82708  1.0000
  C   C938      1.0  0.30897  0.09200  0.82443  1.0000
  C   C939      1.0  0.30231  0.07937  0.81251  1.0000
  C   C940      1.0  0.31278  0.06984  0.80258  1.0000
  C   C941      1.0  0.32988  0.07292  0.80528  1.0000
  C   C942      1.0  0.33642  0.08528  0.81764  1.0000
  H   H1646     1.0  0.30081  0.09949  0.83160  1.0000
  H   H1647     1.0  0.28922  0.07738  0.81045  1.0000
  H   H1648     1.0  0.33817  0.06572  0.79766  1.0000
  H   H1649     1.0  0.34950  0.08731  0.81970  1.0000
  C   C943      1.0  0.32831  0.07550  0.54177  1.0000
  C   C944      1.0  0.32376  0.07972  0.52048  1.0000
  C   C945      1.0  0.31003  0.06829  0.51516  1.0000
  C   C946      1.0  0.30055  0.05266  0.53112  1.0000
  C   C947      1.0  0.30496  0.04857  0.55253  1.0000
  C   C948      1.0  0.31881  0.05989  0.55774  1.0000
  H   H1650     1.0  0.33080  0.09177  0.50814  1.0000
  H   H1651     1.0  0.30671  0.07159  0.49854  1.0000
  H   H1652     1.0  0.29800  0.03645  0.56479  1.0000
  H   H1653     1.0  0.32239  0.05641  0.57409  1.0000
  H   H1654     1.0  0.36075  0.16575  0.76156  1.0000
  N   N52       1.0  0.32609  0.22027  0.97023  1.0000
  C   C949      1.0  0.28169  0.10612  0.62808  1.0000
  H   H1655     1.0  0.31561  0.47925  0.78536  1.0000
  H   H1656     1.0  0.34451  0.14519  0.77151  1.0000
  H   H1657     1.0  0.30162  0.48166  0.62969  1.0000
  C   C950      1.0  0.25528  0.36426  0.94441  1.0000
  C   C951      1.0  0.30877  0.44653  0.93785  1.0000
  C   C952      1.0  0.30582  0.46250  0.94059  1.0000
  C   C953      1.0  0.31909  0.47795  0.93146  1.0000
  C   C954      1.0  0.33544  0.47755  0.91981  1.0000
  C   C955      1.0  0.33852  0.46151  0.91770  1.0000
  C   C956      1.0  0.32517  0.44609  0.92645  1.0000
  H   H1658     1.0  0.31618  0.21182  0.94197  1.0000
  H   H1659     1.0  0.35109  0.46103  0.90892  1.0000
  H   H1660     1.0  0.32753  0.43377  0.92432  1.0000
  H   H1661     1.0  0.20357  0.31760  0.90767  1.0000
  H   H1662     1.0  0.35171  0.11567  0.77613  1.0000
  H   H1663     1.0  0.30277  0.46432  0.61496  1.0000
  C   C957      1.0  0.26741  0.00698  0.66903  1.0000
  N   N53       1.0  0.32231  0.47931  0.85451  1.0000
  C   C958      1.0  0.28140  0.47611  0.61003  1.0000
  H   H1664     1.0  0.32472  0.49311  0.69622  1.0000
  C   C959      1.0  0.19538  0.02170  0.81758  1.0000
  H   H1665     1.0  0.20141  0.41551  0.50164  1.0000
  H   H1666     1.0  0.25716  0.44338  0.48079  1.0000
  N   N54       1.0  0.20947  0.33199  0.97111  1.0000
  H   H1667     1.0  0.18981  0.31748  0.95714  1.0000
  H   H1668     1.0  0.34222  0.27303  0.93447  1.0000
  H   H1669     1.0  0.34390  0.49379  0.80950  1.0000
  H   H1670     1.0  0.31939  0.47321  0.53556  1.0000
  H   H1671     1.0  0.28584  0.45889  0.48802  1.0000
  H   H1672     1.0  0.35042  0.23615  0.94778  1.0000
  H   H1673     1.0  0.37484  0.05441  0.53093  1.0000
  C   C960      1.0  0.38113  0.19601  0.95486  1.0000
  S   S218      1.0  0.20878  0.42816  0.95113  1.0000
  H   H1674     1.0  0.26131  0.49448  0.73070  1.0000
  H   H1675     1.0  0.29299  0.45328  0.65743  1.0000
  H   H1676     1.0  0.30830  0.46791  0.83097  1.0000
  H   H1677     1.0  0.20634  0.06182  0.89287  1.0000
  C   C961      1.0  0.37944  0.18394  0.91325  1.0000
  C   C962      1.0  0.33930  0.20306  0.94213  1.0000
  H   H1678     1.0  0.29324  0.46298  0.94931  1.0000
  H   H1679     1.0  0.25511  0.08513  0.61688  1.0000
  H   H1680     1.0  0.21709  0.03250  0.60735  1.0000
  S   S219      1.0  0.24713  0.99718  0.52718  1.0000
  H   H1681     1.0  0.34950  0.03023  0.95898  1.0000
  C   C963      1.0  0.22618  0.40926  0.49973  1.0000
  C   C964      1.0  0.31755  0.48026  0.83113  1.0000
  H   H1682     1.0  0.33665  0.47156  0.80860  1.0000
  H   H1683     1.0  0.37300  0.02387  0.93483  1.0000
  H   H1684     1.0  0.29685  0.10893  0.75023  1.0000
  H   H1685     1.0  0.20104  0.34864  0.92984  1.0000
  C   C965      1.0  0.38501  0.20184  0.91262  1.0000
  H   H1686     1.0  0.23063  0.41794  0.51109  1.0000
  C   C966      1.0  0.28254  0.09360  0.61186  1.0000
  C   C967      1.0  0.19516  0.03322  0.90021  1.0000
  H   H1687     1.0  0.36834  0.09684  0.76371  1.0000
  H   H1688     1.0  0.37549  0.43912  0.58017  1.0000
  H   H1689     1.0  0.26577  0.00098  0.63547  1.0000
  H   H1690     1.0  0.21986  0.00789  0.67552  1.0000
  C   C968      1.0  0.26500  0.07320  0.53686  1.0000
  C   C969      1.0  0.20374  0.32454  0.95155  1.0000
  H   H1691     1.0  0.33900  0.16648  0.79492  1.0000
  N   N55       1.0  0.36724  0.06326  0.48354  1.0000
  H   H1692     1.0  0.35661  0.03980  0.51094  1.0000
  H   H1693     1.0  0.28720  0.08584  0.76040  1.0000
  C   C970      1.0  0.36474  0.10538  0.74980  1.0000
  H   H1694     1.0  0.25983  0.42400  0.49660  1.0000
  H   H1695     1.0  0.30902  0.49480  0.55610  1.0000
  C   C971      1.0  0.22875  0.33960  0.96521  1.0000
  H   H1696     1.0  0.26142  0.06428  0.52537  1.0000
  H   H1697     1.0  0.25748  0.39874  0.48424  1.0000
  H   H1698     1.0  0.31400  0.01995  0.50249  1.0000
  H   H1699     1.0  0.20149  0.39411  0.49660  1.0000
  H   H1700     1.0  0.21574  0.03256  0.63778  1.0000
  H   H1701     1.0  0.35361  0.08325  0.48304  1.0000
  C   C972      1.0  0.29055  0.44730  0.48575  1.0000
  C   C973      1.0  0.27602  0.49190  0.57443  1.0000
  H   H1702     1.0  0.20122  0.03101  0.88312  1.0000
  H   H1703     1.0  0.25996  0.37846  0.93657  1.0000
  H   H1704     1.0  0.32721  0.05232  0.96460  1.0000
  H   H1705     1.0  0.31020  0.45029  0.54791  1.0000
  Fe  Fe107     1.0  0.20046  0.47920  0.62295  1.0000
  H   H1706     1.0  0.36473  0.13453  0.79582  1.0000
  S   S220      1.0  0.38023  0.42979  0.50805  1.0000
  H   H1707     1.0  0.36999  0.15835  0.93576  1.0000
  H   H1708     1.0  0.32444  0.46297  0.56196  1.0000
  H   H1709     1.0  0.36762  0.41497  0.91605  1.0000
  H   H1710     1.0  0.35206  0.28103  0.95645  1.0000
  C   C974      1.0  0.28387  0.45718  0.64721  1.0000
  H   H1711     1.0  0.19583  0.45824  0.54729  1.0000
  H   H1712     1.0  0.28011  0.09923  0.64640  1.0000
  H   H1713     1.0  0.27214  0.48068  0.62176  1.0000
  H   H1714     1.0  0.35225  0.08262  0.73876  1.0000
  C   C975      1.0  0.36980  0.14429  0.77888  1.0000
  H   H1715     1.0  0.23003  0.06445  0.62687  1.0000
  H   H1716     1.0  0.23019  0.36277  0.93779  1.0000
  H   H1717     1.0  0.29358  0.45631  0.58245  1.0000
  H   H1718     1.0  0.31046  0.49040  0.82810  1.0000
  H   H1719     1.0  0.27614  0.44536  0.64328  1.0000
  H   H1720     1.0  0.28072  0.00670  0.66711  1.0000
  H   H1721     1.0  0.20425  0.04483  0.62125  1.0000
  C   C976      1.0  0.37458  0.17212  0.93489  1.0000
  H   H1722     1.0  0.31079  0.05333  0.61560  1.0000
  H   H1723     1.0  0.37553  0.10919  0.73431  1.0000
  H   H1724     1.0  0.32716  0.19459  0.91498  1.0000
  C   C977      1.0  0.30383  0.48503  0.57295  1.0000
  H   H1725     1.0  0.36236  0.26877  0.93880  1.0000
  H   H1726     1.0  0.23152  0.06434  0.59661  1.0000
  H   H1727     1.0  0.30958  0.09477  0.75972  1.0000
  N   N56       1.0  0.37556  0.13563  0.75959  1.0000
  S   S221      1.0  0.38435  0.25369  0.96952  1.0000
  H   H1728     1.0  0.34231  0.04099  0.72479  1.0000
  H   H1729     1.0  0.28468  0.10130  0.59381  1.0000
  C   C978      1.0  0.24879  0.05106  0.61305  1.0000
  S   S222      1.0  0.37810  0.17720  0.88668  1.0000
  H   H1730     1.0  0.27210  0.03987  0.63780  1.0000
  H   H1731     1.0  0.31663  0.49030  0.93323  1.0000
  H   H1732     1.0  0.38209  0.33283  0.92301  1.0000
  H   H1733     1.0  0.34240  0.05527  0.93721  1.0000
  C   C979      1.0  0.26206  0.43187  0.47856  1.0000
  H   H1734     1.0  0.29233  0.06719  0.59253  1.0000
  H   H1735     1.0  0.24818  0.04471  0.63134  1.0000
  H   H1736     1.0  0.29308  0.48524  0.88633  1.0000
  C   C980      1.0  0.25897  0.00373  0.65102  1.0000
  H   H1737     1.0  0.27915  0.08317  0.57041  1.0000
  N   N57       1.0  0.30949  0.07003  0.70220  1.0000
  C   C981      1.0  0.31756  0.08569  0.68217  1.0000
  C   C982      1.0  0.30741  0.07549  0.72529  1.0000
  C   C983      1.0  0.32166  0.05847  0.70215  1.0000
  C   C984      1.0  0.29247  0.05959  0.69968  1.0000
  C   C985      1.0  0.27877  0.06961  0.69623  1.0000
  C   C986      1.0  0.32073  0.08192  0.65744  1.0000
  C   C987      1.0  0.31630  0.04200  0.72236  1.0000
  C   C988      1.0  0.30410  0.09364  0.72559  1.0000
  H   H1738     1.0  0.25365  0.36831  0.47441  1.0000
  C   C989      1.0  0.26267  0.05782  0.69228  1.0000
  C   C990      1.0  0.32723  0.09880  0.63859  1.0000
  C   C991      1.0  0.29871  0.46704  0.56666  1.0000
  H   H1739     1.0  0.33016  0.09286  0.68466  1.0000
  H   H1740     1.0  0.30965  0.09516  0.68178  1.0000
  H   H1741     1.0  0.29696  0.06561  0.73874  1.0000
  H   H1742     1.0  0.31912  0.07575  0.73236  1.0000
  H   H1743     1.0  0.33474  0.06610  0.70245  1.0000
  H   H1744     1.0  0.32312  0.05349  0.68597  1.0000
  H   H1745     1.0  0.29436  0.05273  0.68525  1.0000
  H   H1746     1.0  0.28641  0.04901  0.71553  1.0000
  H   H1747     1.0  0.28366  0.08077  0.68098  1.0000
  H   H1748     1.0  0.27464  0.07426  0.71209  1.0000
  H   H1749     1.0  0.33066  0.07463  0.65519  1.0000
  H   H1750     1.0  0.30876  0.07431  0.65411  1.0000
  H   H1751     1.0  0.30469  0.03273  0.72051  1.0000
  H   H1752     1.0  0.31356  0.04525  0.73959  1.0000
  H   H1753     1.0  0.31599  0.10405  0.71649  1.0000
  H   H1754     1.0  0.29372  0.09580  0.71687  1.0000
  Fe  Fe108     1.0  0.38223  0.15000  0.49606  1.0000
  H   H1755     1.0  0.37842  0.13417  0.71063  1.0000
  C   C992      1.0  0.32206  0.49016  0.71556  1.0000
  H   H1756     1.0  0.25331  0.06546  0.68894  1.0000
  H   H1757     1.0  0.26588  0.05202  0.67715  1.0000
  H   H1758     1.0  0.25641  0.04714  0.70799  1.0000
  H   H1759     1.0  0.31770  0.10663  0.63944  1.0000
  H   H1760     1.0  0.33963  0.10667  0.64060  1.0000
  H   H1761     1.0  0.32938  0.09573  0.62110  1.0000
  C   C993      1.0  0.19651  0.41588  0.93489  1.0000
  H   H1762     1.0  0.32610  0.02068  0.73670  1.0000
  H   H1763     1.0  0.30054  0.03743  0.64245  1.0000
  Fe  Fe109     1.0  0.19300  0.46853  0.67675  1.0000
  C   C994      1.0  0.33761  0.47195  0.85584  1.0000
  H   H1764     1.0  0.33412  0.48894  0.72093  1.0000
  C   C995      1.0  0.30726  0.46752  0.87327  1.0000
  H   H1765     1.0  0.38621  0.20167  0.50520  1.0000
  H   H1766     1.0  0.34179  0.03751  0.47518  1.0000
  C   C996      1.0  0.33448  0.45233  0.85560  1.0000
  C   C997      1.0  0.29085  0.47409  0.87778  1.0000
  C   C998      1.0  0.26139  0.06268  0.56189  1.0000
  Fe  Fe110     1.0  0.23804  0.99716  0.59337  1.0000
  H   H1767     1.0  0.34678  0.05685  0.51469  1.0000
  C   C999      1.0  0.35127  0.44689  0.85182  1.0000
  C   C1000     1.0  0.27582  0.45987  0.89422  1.0000
  H   H1768     1.0  0.34197  0.47366  0.87200  1.0000
  C   C1001     1.0  0.33724  0.23730  0.95452  1.0000
  N   N58       1.0  0.26513  0.06550  0.60325  1.0000
  H   H1769     1.0  0.27240  0.44851  0.88633  1.0000
  H   H1770     1.0  0.31112  0.46499  0.89020  1.0000
  H   H1771     1.0  0.30322  0.45454  0.86916  1.0000
  H   H1772     1.0  0.37431  0.04666  0.93021  1.0000
  C   C1002     1.0  0.34035  0.05925  0.95409  1.0000
  H   H1773     1.0  0.21069  0.31476  0.94734  1.0000
  H   H1774     1.0  0.19606  0.02240  0.91382  1.0000
  H   H1775     1.0  0.32639  0.44423  0.87263  1.0000
  H   H1776     1.0  0.32778  0.44921  0.84175  1.0000
  C   C1003     1.0  0.20660  0.33755  0.92796  1.0000
  S   S223      1.0  0.38157  0.09418  0.92131  1.0000
  H   H1777     1.0  0.28574  0.06067  0.63714  1.0000
  C   C1004     1.0  0.38388  0.03671  0.96066  1.0000
  C   C1005     1.0  0.23573  0.35919  0.95290  1.0000
  C   C1006     1.0  0.35558  0.15377  0.77569  1.0000
  Fe  Fe111     1.0  0.26178  0.99817  0.79726  1.0000
  H   H1778     1.0  0.26805  0.48451  0.80152  1.0000
  H   H1779     1.0  0.28701  0.47823  0.86126  1.0000
  H   H1780     1.0  0.32619  0.17715  0.93925  1.0000
  H   H1781     1.0  0.35740  0.44822  0.86674  1.0000
  H   H1782     1.0  0.34856  0.43302  0.85072  1.0000
  H   H1783     1.0  0.36030  0.45492  0.83540  1.0000
  H   H1784     1.0  0.26437  0.46502  0.89781  1.0000
  S   S224      1.0  0.19995  0.47119  0.58822  1.0000
  H   H1785     1.0  0.27915  0.45545  0.91108  1.0000
  C   C1007     1.0  0.26596  0.07463  0.57861  1.0000
  Fe  Fe112     1.0  0.37647  0.15071  0.87685  1.0000
  H   H1786     1.0  0.27855  0.04663  0.59410  1.0000
  H   H1787     1.0  0.27346  0.46427  0.60633  1.0000
  C   C1008     1.0  0.34972  0.27002  0.94766  1.0000
  H   H1788     1.0  0.25380  0.48970  0.60281  1.0000
  H   H1789     1.0  0.33767  0.49080  0.77161  1.0000
  H   H1790     1.0  0.26312  0.07218  0.63693  1.0000
  H   H1791     1.0  0.37410  0.39237  0.47881  1.0000
  H   H1792     1.0  0.34303  0.14805  0.81259  1.0000
  H   H1793     1.0  0.32119  0.02809  0.52607  1.0000
  C   C1009     1.0  0.19636  0.39859  0.93457  1.0000
  H   H1794     1.0  0.25742  0.08358  0.57836  1.0000
  H   H1795     1.0  0.37439  0.38780  0.90976  1.0000
  Fe  Fe113     1.0  0.26634  0.42473  0.97067  1.0000
  H   H1796     1.0  0.37367  0.03982  0.47614  1.0000
  H   H1797     1.0  0.34620  0.19744  0.95458  1.0000
  H   H1798     1.0  0.33189  0.24066  0.93897  1.0000
  C   C1010     1.0  0.37911  0.41559  0.90257  1.0000
  H   H1799     1.0  0.33800  0.09029  0.75846  1.0000
  H   H1800     1.0  0.23482  0.01374  0.70706  1.0000
  H   H1801     1.0  0.34830  0.00322  0.96582  1.0000
  C   C1011     1.0  0.34894  0.15950  0.79778  1.0000
  H   H1802     1.0  0.34825  0.21482  0.92989  1.0000
  H   H1803     1.0  0.37464  0.10830  0.79482  1.0000
  H   H1804     1.0  0.36245  0.17834  0.53369  1.0000
  C   C1012     1.0  0.21630  0.04062  0.62044  1.0000
  C   C1013     1.0  0.32693  0.48921  0.78675  1.0000
  H   H1805     1.0  0.35245  0.12671  0.74765  1.0000
  H   H1806     1.0  0.35958  0.16842  0.80240  1.0000
  H   H1807     1.0  0.26967  0.47912  0.57138  1.0000
  H   H1808     1.0  0.20180  0.39827  0.52503  1.0000
  C   C1014     1.0  0.29914  0.09588  0.75050  1.0000
  H   H1809     1.0  0.26886  0.05285  0.56213  1.0000
  H   H1810     1.0  0.30466  0.45175  0.47854  1.0000
  C   C1015     1.0  0.34925  0.09446  0.74345  1.0000
  C   C1016     1.0  0.38510  0.05929  0.51463  1.0000
  H   H1811     1.0  0.24753  0.05580  0.56696  1.0000
  H   H1812     1.0  0.37079  0.15478  0.73299  1.0000
  C   C1017     1.0  0.23178  0.05656  0.61368  1.0000
  H   H1813     1.0  0.36482  0.19110  0.55549  1.0000
  H   H1814     1.0  0.36945  0.99961  0.96152  1.0000
  C   C1018     1.0  0.29894  0.04294  0.62487  1.0000
  C   C1019     1.0  0.26568  0.07869  0.61818  1.0000
  C   C1020     1.0  0.20653  0.40403  0.50605  1.0000
  C   C1021     1.0  0.33046  0.03249  0.72221  1.0000
  H   H1815     1.0  0.34598  0.18731  0.91789  1.0000
  C   C1022     1.0  0.33712  0.04141  0.49148  1.0000
  H   H1816     1.0  0.29391  0.08853  0.61320  1.0000
  H   H1817     1.0  0.29378  0.11677  0.62302  1.0000
  H   H1818     1.0  0.29720  0.03238  0.61523  1.0000
  H   H1819     1.0  0.34896  0.47930  0.84172  1.0000
  C   C1023     1.0  0.38091  0.03660  0.93581  1.0000
  C   C1024     1.0  0.33979  0.25333  0.96577  1.0000
  H   H1820     1.0  0.27515  0.46294  0.65800  1.0000
  C   C1025     1.0  0.24179  0.00414  0.65313  1.0000
  S   S225      1.0  0.37590  0.14857  0.83976  1.0000
  C   C1026     1.0  0.28020  0.05764  0.60303  1.0000
  H   H1821     1.0  0.27080  0.11205  0.62679  1.0000
  H   H1822     1.0  0.23052  0.39729  0.50396  1.0000
  S   S226      1.0  0.24128  0.00046  0.77732  1.0000
  H   H1823     1.0  0.27889  0.07997  0.53044  1.0000
  H   H1824     1.0  0.34594  0.10207  0.72837  1.0000
  H   H1825     1.0  0.32903  0.05042  0.48771  1.0000
  Fe  Fe114     1.0  0.37522  0.45605  0.49670  1.0000
  H   H1826     1.0  0.28884  0.46674  0.55617  1.0000
  C   C1027     1.0  0.33426  0.18972  0.92774  1.0000
  H   H1827     1.0  0.26147  0.36131  0.95915  1.0000
  S   S227      1.0  0.37807  0.12260  0.48991  1.0000
  H   H1828     1.0  0.25735  0.08292  0.53568  1.0000
  C   C1028     1.0  0.29385  0.47043  0.62469  1.0000
  H   H1829     1.0  0.23378  0.06083  0.90329  1.0000
  H   H1830     1.0  0.24250  0.48769  0.56747  1.0000
  H   H1831     1.0  0.31461  0.19450  0.96561  1.0000
  C   C1029     1.0  0.36051  0.12125  0.75855  1.0000
  H   H1832     1.0  0.37560  0.41683  0.88539  1.0000
  C   C1030     1.0  0.37531  0.17815  0.95552  1.0000
  C   C1031     1.0  0.31416  0.46319  0.55216  1.0000
  H   H1833     1.0  0.25919  0.35715  0.93100  1.0000
  H   H1834     1.0  0.38498  0.16533  0.69059  1.0000
  H   H1835     1.0  0.38637  0.34042  0.94863  1.0000
  H   H1836     1.0  0.29021  0.49443  0.72218  1.0000
  H   H1837     1.0  0.30593  0.23375  0.96933  1.0000
  H   H1838     1.0  0.37334  0.08029  0.50671  1.0000
  C   C1032     1.0  0.23318  0.00764  0.67360  1.0000
  H   H1839     1.0  0.34151  0.07348  0.95027  1.0000
  H   H1840     1.0  0.28077  0.48904  0.75978  1.0000
  H   H1841     1.0  0.23033  0.04886  0.88117  1.0000
  S   S228      1.0  0.38003  0.10854  0.85432  1.0000
  H   H1842     1.0  0.37839  0.44691  0.54930  1.0000
  C   C1033     1.0  0.20687  0.04972  0.90437  1.0000
  S   S229      1.0  0.38359  0.48048  0.86362  1.0000
  C   C1034     1.0  0.37940  0.07193  0.49676  1.0000
  C   C1035     1.0  0.38528  0.39919  0.90851  1.0000
  C   C1036     1.0  0.35223  0.05041  0.50126  1.0000
  C   C1037     1.0  0.32556  0.02507  0.50899  1.0000
  H   H1843     1.0  0.38622  0.37012  0.48068  1.0000
  H   H1844     1.0  0.22720  0.03737  0.91111  1.0000
  H   H1845     1.0  0.33251  0.01482  0.51147  1.0000
  H   H1846     1.0  0.36630  0.16893  0.56127  1.0000
  S   S230      1.0  0.23044  0.00050  0.63092  1.0000
  C   C1038     1.0  0.38450  0.44797  0.56429  1.0000
  S   S231      1.0  0.37282  0.17287  0.47974  1.0000
  Fe  Fe115     1.0  0.22296  0.99983  0.54917  1.0000
  H   H1847     1.0  0.38223  0.13349  0.97154  1.0000
  N   N59       1.0  0.28962  0.48994  0.58793  1.0000
  C   C1039     1.0  0.38153  0.14942  0.73709  1.0000
  C   C1040     1.0  0.38594  0.20785  0.93323  1.0000
  H   H1848     1.0  0.31502  0.48545  0.58122  1.0000
  H   H1849     1.0  0.23006  0.43163  0.47236  1.0000
  H   H1850     1.0  0.18659  0.43727  0.92186  1.0000
  H   H1851     1.0  0.38301  0.49520  0.55643  1.0000
  H   H1852     1.0  0.23911  0.49551  0.70775  1.0000
  C   C1041     1.0  0.31376  0.82574  0.30443  1.0000
  S   S232      1.0  0.26622  0.87781  0.42005  1.0000
  C   C1042     1.0  0.23856  0.80543  0.98155  1.0000
  H   H1853     1.0  0.35906  0.81077  0.27535  1.0000
  H   H1854     1.0  0.31136  0.50230  0.21224  1.0000
  N   N60       1.0  0.19522  0.94107  0.47125  1.0000
  C   C1043     1.0  0.35723  0.86106  0.28715  1.0000
  Fe  Fe116     1.0  0.35350  0.90934  0.01288  1.0000
  S   S233      1.0  0.34231  0.90140  0.05197  1.0000
  S   S234      1.0  0.34422  0.93016  0.99253  1.0000
  Fe  Fe117     1.0  0.34837  0.84728  0.20536  1.0000
  S   S235      1.0  0.33597  0.81982  0.22599  1.0000
  S   S236      1.0  0.35610  0.87231  0.21819  1.0000
  Fe  Fe118     1.0  0.35204  0.83583  0.15871  1.0000
  S   S237      1.0  0.34069  0.80752  0.17609  1.0000
  S   S238      1.0  0.36180  0.84265  0.11945  1.0000
  Fe  Fe119     1.0  0.32086  0.81665  0.19804  1.0000
  S   S239      1.0  0.29170  0.80603  0.20276  1.0000
  Fe  Fe120     1.0  0.35680  0.81299  0.20202  1.0000
  S   S240      1.0  0.33163  0.84496  0.17932  1.0000
  S   S241      1.0  0.36980  0.84050  0.18284  1.0000
  S   S242      1.0  0.21274  0.70978  0.15350  1.0000
  S   S243      1.0  0.19924  0.70901  0.20896  1.0000
  Fe  Fe121     1.0  0.21925  0.72706  0.17830  1.0000
  S   S244      1.0  0.24723  0.73735  0.18102  1.0000
  S   S245      1.0  0.20165  0.74327  0.16865  1.0000
  Fe  Fe122     1.0  0.36496  0.90749  0.38624  1.0000
  H   H1855     1.0  0.29274  0.84034  0.17070  1.0000
  S   S246      1.0  0.34539  0.89919  0.42079  1.0000
  H   H1856     1.0  0.34783  0.85707  0.39631  1.0000
  C   C1044     1.0  0.35016  0.98076  0.98877  1.0000
  S   S247      1.0  0.21973  0.86641  0.45791  1.0000
  H   H1857     1.0  0.19698  0.83087  0.41782  1.0000
  H   H1858     1.0  0.34744  0.97207  0.97671  1.0000
  H   H1859     1.0  0.32806  0.84506  0.33300  1.0000
  H   H1860     1.0  0.29107  0.52944  0.05167  1.0000
  Fe  Fe123     1.0  0.26935  0.52006  0.15246  1.0000
  S   S248      1.0  0.29481  0.52196  0.12885  1.0000
  S   S249      1.0  0.25463  0.53953  0.14086  1.0000
  Fe  Fe124     1.0  0.30482  0.51831  0.16158  1.0000
  S   S250      1.0  0.33212  0.53069  0.16558  1.0000
  S   S251      1.0  0.27998  0.51844  0.18477  1.0000
  H   H1861     1.0  0.25624  0.49866  0.06737  1.0000
  C   C1045     1.0  0.34307  0.55078  0.17108  1.0000
  C   C1046     1.0  0.33636  0.56530  0.16972  1.0000
  C   C1047     1.0  0.34609  0.58123  0.17270  1.0000
  C   C1048     1.0  0.36259  0.58290  0.17731  1.0000
  C   C1049     1.0  0.36911  0.56824  0.17928  1.0000
  C   C1050     1.0  0.35944  0.55235  0.17612  1.0000
  H   H1862     1.0  0.32383  0.56439  0.16587  1.0000
  H   H1863     1.0  0.34083  0.59240  0.17124  1.0000
  H   H1864     1.0  0.28628  0.86040  0.33288  1.0000
  H   H1865     1.0  0.36476  0.54122  0.17733  1.0000
  C   C1051     1.0  0.23191  0.53519  0.14857  1.0000
  C   C1052     1.0  0.22395  0.54769  0.13932  1.0000
  C   C1053     1.0  0.20590  0.54456  0.14470  1.0000
  H   H1866     1.0  0.24532  0.79108  0.01145  1.0000
  C   C1054     1.0  0.20362  0.51639  0.16868  1.0000
  C   C1055     1.0  0.22166  0.51953  0.16333  1.0000
  H   H1867     1.0  0.23179  0.55989  0.12802  1.0000
  H   H1868     1.0  0.31126  0.82556  0.28684  1.0000
  H   H1869     1.0  0.30817  0.82995  0.34828  1.0000
  H   H1870     1.0  0.33648  0.55998  0.21994  1.0000
  C   C1056     1.0  0.35863  0.87394  0.24668  1.0000
  C   C1057     1.0  0.36516  0.89043  0.25095  1.0000
  C   C1058     1.0  0.36776  0.89224  0.27317  1.0000
  C   C1059     1.0  0.36389  0.87751  0.29138  1.0000
  C   C1060     1.0  0.31786  0.87428  0.33082  1.0000
  C   C1061     1.0  0.35455  0.85926  0.26500  1.0000
  H   H1871     1.0  0.36829  0.90190  0.23694  1.0000
  C   C1062     1.0  0.18711  0.81872  0.42201  1.0000
  S   S252      1.0  0.38133  0.92205  0.99565  1.0000
  H   H1872     1.0  0.34948  0.84650  0.26202  1.0000
  C   C1063     1.0  0.27987  0.78719  0.19549  1.0000
  C   C1064     1.0  0.26273  0.78595  0.19378  1.0000
  C   C1065     1.0  0.25267  0.77104  0.18880  1.0000
  C   C1066     1.0  0.25949  0.75695  0.18603  1.0000
  C   C1067     1.0  0.27671  0.75832  0.18741  1.0000
  C   C1068     1.0  0.28688  0.77336  0.19193  1.0000
  H   H1873     1.0  0.25720  0.79662  0.19633  1.0000
  H   H1874     1.0  0.23958  0.77033  0.18738  1.0000
  H   H1875     1.0  0.28218  0.74756  0.18516  1.0000
  H   H1876     1.0  0.30001  0.77406  0.19321  1.0000
  H   H1877     1.0  0.29565  0.89975  0.38580  1.0000
  H   H1878     1.0  0.27614  0.76143  0.26998  1.0000
  C   C1069     1.0  0.34770  0.88483  0.07031  1.0000
  C   C1070     1.0  0.33989  0.88027  0.09420  1.0000
  C   C1071     1.0  0.34409  0.86735  0.10942  1.0000
  C   C1072     1.0  0.35615  0.85890  0.10088  1.0000
  C   C1073     1.0  0.36395  0.86343  0.07700  1.0000
  C   C1074     1.0  0.35979  0.87640  0.06175  1.0000
  H   H1879     1.0  0.33056  0.88679  0.10093  1.0000
  H   H1880     1.0  0.33804  0.86396  0.12776  1.0000
  H   H1881     1.0  0.30789  0.86446  0.38004  1.0000
  H   H1882     1.0  0.36588  0.87983  0.04337  1.0000
  H   H1883     1.0  0.23586  0.84072  0.97269  1.0000
  H   H1884     1.0  0.20103  0.70018  0.26403  1.0000
  C   C1075     1.0  0.28823  0.88315  0.42029  1.0000
  C   C1076     1.0  0.29406  0.87657  0.43967  1.0000
  C   C1077     1.0  0.31162  0.88166  0.43974  1.0000
  C   C1078     1.0  0.32348  0.89303  0.42022  1.0000
  C   C1079     1.0  0.31768  0.89939  0.40070  1.0000
  C   C1080     1.0  0.30010  0.89451  0.40078  1.0000
  H   H1885     1.0  0.28502  0.86753  0.45461  1.0000
  H   H1886     1.0  0.31606  0.87652  0.45480  1.0000
  H   H1887     1.0  0.32672  0.90830  0.38570  1.0000
  S   S253      1.0  0.37229  0.79548  0.21683  1.0000
  C   C1081     1.0  0.34785  0.56342  0.10450  1.0000
  H   H1888     1.0  0.19203  0.78235  0.29493  1.0000
  H   H1889     1.0  0.35103  0.55090  0.10338  1.0000
  H   H1890     1.0  0.27247  0.77754  0.24790  1.0000
  C   C1082     1.0  0.26852  0.76349  0.25666  1.0000
  C   C1083     1.0  0.32665  0.90716  0.32204  1.0000
  C   C1084     1.0  0.33182  0.85820  0.37112  1.0000
  C   C1085     1.0  0.27324  0.51349  0.26036  1.0000
  H   H1891     1.0  0.21703  0.75179  0.22366  1.0000
  H   H1892     1.0  0.33919  0.56564  0.09264  1.0000
  H   H1893     1.0  0.35286  0.74173  0.24442  1.0000
  S   S254      1.0  0.37786  0.88804  0.37420  1.0000
  Fe  Fe125     1.0  0.24693  0.86411  0.45404  1.0000
  C   C1086     1.0  0.28388  0.91567  0.46154  1.0000
  S   S255      1.0  0.23894  0.83517  0.46788  1.0000
  H   H1894     1.0  0.32836  0.56479  0.24747  1.0000
  C   C1087     1.0  0.34045  0.94413  0.43586  1.0000
  N   N61       1.0  0.30464  0.51109  0.25691  1.0000
  H   H1895     1.0  0.36849  0.79319  0.27100  1.0000
  C   C1088     1.0  0.33049  0.53813  0.24984  1.0000
  H   H1896     1.0  0.37711  0.56194  0.11553  1.0000
  H   H1897     1.0  0.31649  0.91375  0.46078  1.0000
  H   H1898     1.0  0.27666  0.52773  0.25304  1.0000
  C   C1089     1.0  0.31645  0.50084  0.24746  1.0000
  H   H1899     1.0  0.34673  0.94899  0.44925  1.0000
  H   H1900     1.0  0.22130  0.69622  0.25257  1.0000
  H   H1901     1.0  0.22869  0.81243  0.97878  1.0000
  H   H1902     1.0  0.38042  0.86115  0.44412  1.0000
  C   C1090     1.0  0.23605  0.79878  0.00778  1.0000
  H   H1903     1.0  0.28843  0.50639  0.06228  1.0000
  H   H1904     1.0  0.28944  0.50911  0.23095  1.0000
  H   H1905     1.0  0.20925  0.77243  0.19371  1.0000
  Fe  Fe126     1.0  0.19326  0.72465  0.14648  1.0000
  C   C1091     1.0  0.30964  0.84170  0.31205  1.0000
  C   C1092     1.0  0.24935  0.75779  0.26828  1.0000
  C   C1093     1.0  0.34161  0.89506  0.15945  1.0000
  C   C1094     1.0  0.25600  0.51194  0.06970  1.0000
  H   H1906     1.0  0.33791  0.97970  0.00108  1.0000
  H   H1907     1.0  0.33005  0.51838  0.21360  1.0000
  H   H1908     1.0  0.26571  0.93149  0.41621  1.0000
  C   C1095     1.0  0.38125  0.87499  0.43675  1.0000
  H   H1909     1.0  0.25230  0.56413  0.08735  1.0000
  C   C1096     1.0  0.27041  0.51731  0.08267  1.0000
  C   C1097     1.0  0.28804  0.51881  0.06753  1.0000
  C   C1098     1.0  0.31566  0.89061  0.33967  1.0000
  H   H1910     1.0  0.23150  0.51728  0.04814  1.0000
  H   H1911     1.0  0.24623  0.74395  0.27754  1.0000
  H   H1912     1.0  0.38236  0.53098  0.42390  1.0000
  H   H1913     1.0  0.33082  0.53648  0.26851  1.0000
  Fe  Fe127     1.0  0.37184  0.94148  0.97340  1.0000
  H   H1914     1.0  0.25985  0.52023  0.05170  1.0000
  H   H1915     1.0  0.26850  0.50733  0.09891  1.0000
  C   C1099     1.0  0.21124  0.77576  0.22856  1.0000
  H   H1916     1.0  0.28286  0.83964  0.35138  1.0000
  H   H1917     1.0  0.31544  0.93614  0.42924  1.0000
  H   H1918     1.0  0.35436  0.84958  0.30106  1.0000
  H   H1919     1.0  0.23690  0.72581  0.25305  1.0000
  H   H1920     1.0  0.21349  0.97672  0.45526  1.0000
  H   H1921     1.0  0.22281  0.79024  0.01514  1.0000
  H   H1922     1.0  0.19717  0.74875  0.24299  1.0000
  H   H1923     1.0  0.19325  0.67406  0.06416  1.0000
  H   H1924     1.0  0.20173  0.92334  0.43378  1.0000
  H   H1925     1.0  0.22089  0.90399  0.43150  1.0000
  H   H1926     1.0  0.38462  0.86915  0.13629  1.0000
  H   H1927     1.0  0.32812  0.50267  0.25479  1.0000
  H   H1928     1.0  0.37174  0.80326  0.29498  1.0000
  H   H1929     1.0  0.33797  0.49634  0.19380  1.0000
  H   H1930     1.0  0.29581  0.51665  0.29046  1.0000
  C   C1100     1.0  0.23781  0.52962  0.08661  1.0000
  H   H1931     1.0  0.30458  0.86077  0.15105  1.0000
  H   H1932     1.0  0.36418  0.91492  0.15793  1.0000
  S   S256      1.0  0.37444  0.60357  0.18010  1.0000
  H   H1933     1.0  0.19919  0.95856  0.43769  1.0000
  H   H1934     1.0  0.33304  0.90293  0.16580  1.0000
  H   H1935     1.0  0.38598  0.60765  0.11980  1.0000
  C   C1101     1.0  0.21309  0.76229  0.27750  1.0000
  H   H1936     1.0  0.33899  0.87187  0.36253  1.0000
  H   H1937     1.0  0.33795  0.84941  0.36245  1.0000
  H   H1938     1.0  0.37813  0.72916  0.24220  1.0000
  H   H1939     1.0  0.22463  0.78404  0.22235  1.0000
  C   C1102     1.0  0.37181  0.89652  0.13802  1.0000
  H   H1940     1.0  0.26561  0.80797  0.97228  1.0000
  C   C1103     1.0  0.20259  0.77726  0.20800  1.0000
  C   C1104     1.0  0.30229  0.50747  0.28305  1.0000
  H   H1941     1.0  0.25785  0.50770  0.23511  1.0000
  C   C1105     1.0  0.21068  0.93509  0.46151  1.0000
  C   C1106     1.0  0.21083  0.75654  0.23845  1.0000
  H   H1942     1.0  0.34082  0.56240  0.12253  1.0000
  H   H1943     1.0  0.34424  0.93226  0.43274  1.0000
  H   H1944     1.0  0.21682  0.69982  0.28167  1.0000
  H   H1945     1.0  0.37870  0.91581  0.05359  1.0000
  H   H1946     1.0  0.34038  0.90698  0.31824  1.0000
  C   C1107     1.0  0.22631  0.50810  0.06547  1.0000
  H   H1947     1.0  0.29588  0.84070  0.31242  1.0000
  C   C1108     1.0  0.37677  0.57579  0.11349  1.0000
  H   H1948     1.0  0.23587  0.79387  0.97389  1.0000
  H   H1949     1.0  0.27081  0.51112  0.27960  1.0000
  H   H1950     1.0  0.38605  0.85591  0.23162  1.0000
  C   C1109     1.0  0.21499  0.70366  0.26373  1.0000
  H   H1951     1.0  0.36647  0.72506  0.22017  1.0000
  H   H1952     1.0  0.19467  0.76684  0.31903  1.0000
  Fe  Fe128     1.0  0.19150  0.69283  0.18352  1.0000
  H   H1953     1.0  0.26867  0.93444  0.45519  1.0000
  C   C1110     1.0  0.21450  0.73405  0.26896  1.0000
  C   C1111     1.0  0.36509  0.74849  0.23146  1.0000
  H   H1954     1.0  0.33544  0.88749  0.14804  1.0000
  H   H1955     1.0  0.37944  0.90708  0.43585  1.0000
  S   S257      1.0  0.36746  0.87862  0.31956  1.0000
  H   H1956     1.0  0.24310  0.75512  0.23514  1.0000
  H   H1957     1.0  0.33987  0.53188  0.24139  1.0000
  Fe  Fe129     1.0  0.37700  0.90041  0.33780  1.0000
  C   C1112     1.0  0.19564  0.52887  0.15942  1.0000
  H   H1958     1.0  0.35998  0.59053  0.09910  1.0000
  H   H1959     1.0  0.22762  0.50987  0.17068  1.0000
  N   N62       1.0  0.21921  0.75339  0.25878  1.0000
  C   C1113     1.0  0.22291  0.72316  0.25379  1.0000
  H   H1960     1.0  0.35912  0.97620  0.99874  1.0000
  H   H1961     1.0  0.36804  0.87632  0.43683  1.0000
  H   H1962     1.0  0.38010  0.89629  0.09275  1.0000
  H   H1963     1.0  0.29328  0.94891  0.46901  1.0000
  H   H1964     1.0  0.21760  0.73124  0.28637  1.0000
  H   H1965     1.0  0.21360  0.51039  0.07206  1.0000
  H   H1966     1.0  0.22044  0.94597  0.44855  1.0000
  H   H1967     1.0  0.33185  0.87523  0.32633  1.0000
  C   C1114     1.0  0.31387  0.92560  0.46603  1.0000
  H   H1968     1.0  0.19138  0.85542  0.43258  1.0000
  H   H1969     1.0  0.19579  0.50423  0.18010  1.0000
  H   H1970     1.0  0.25270  0.86046  0.38342  1.0000
  H   H1971     1.0  0.28943  0.94073  0.43556  1.0000
  C   C1115     1.0  0.19338  0.75719  0.28743  1.0000
  C   C1116     1.0  0.22370  0.91491  0.44035  1.0000
  H   H1972     1.0  0.29015  0.90795  0.45077  1.0000
  H   H1973     1.0  0.32749  0.82612  0.30355  1.0000
  H   H1974     1.0  0.28028  0.91788  0.41484  1.0000
  S   S258      1.0  0.18934  0.73663  0.11101  1.0000
  H   H1975     1.0  0.32562  0.91873  0.32923  1.0000
  H   H1976     1.0  0.25362  0.84363  0.36758  1.0000
  H   H1977     1.0  0.32220  0.90841  0.30551  1.0000
  C   C1117     1.0  0.18855  0.94889  0.45106  1.0000
  H   H1978     1.0  0.23316  0.92615  0.42770  1.0000
  H   H1979     1.0  0.37805  0.84004  0.27125  1.0000
  N   N63       1.0  0.30830  0.85691  0.34688  1.0000
  H   H1980     1.0  0.28410  0.87240  0.37107  1.0000
  H   H1981     1.0  0.25940  0.86629  0.35212  1.0000
  H   H1982     1.0  0.25069  0.57375  0.05855  1.0000
  H   H1983     1.0  0.22435  0.53002  0.09320  1.0000
  H   H1984     1.0  0.30553  0.84197  0.38161  1.0000
  H   H1985     1.0  0.30213  0.89127  0.34194  1.0000
  C   C1118     1.0  0.25995  0.85719  0.36803  1.0000
  H   H1986     1.0  0.30379  0.53779  0.25531  1.0000
  H   H1987     1.0  0.30555  0.81359  0.31677  1.0000
  C   C1119     1.0  0.37050  0.80573  0.27659  1.0000
  H   H1988     1.0  0.18872  0.66400  0.09494  1.0000
  C   C1120     1.0  0.31252  0.85516  0.37060  1.0000
  C   C1121     1.0  0.23839  0.76060  0.25003  1.0000
  H   H1989     1.0  0.31391  0.87552  0.31392  1.0000
  H   H1990     1.0  0.27827  0.85012  0.38667  1.0000
  H   H1991     1.0  0.37009  0.57964  0.07904  1.0000
  H   H1992     1.0  0.24425  0.53182  0.10102  1.0000
  H   H1993     1.0  0.36488  0.88603  0.13082  1.0000
  C   C1122     1.0  0.31390  0.84295  0.33607  1.0000
  C   C1123     1.0  0.28905  0.85377  0.34919  1.0000
  C   C1124     1.0  0.24498  0.56245  0.07361  1.0000
  H   H1994     1.0  0.35007  0.56283  0.24016  1.0000
  H   H1995     1.0  0.37289  0.90499  0.27613  1.0000
  H   H1996     1.0  0.36201  0.75518  0.21548  1.0000
  C   C1125     1.0  0.27052  0.92171  0.42676  1.0000
  H   H1997     1.0  0.25962  0.91008  0.43526  1.0000
  N   N64       1.0  0.23817  0.51209  0.08151  1.0000
  H   H1998     1.0  0.19994  0.55428  0.13749  1.0000
  C   C1126     1.0  0.27858  0.85890  0.36996  1.0000
  H   H1999     1.0  0.24721  0.76568  0.28137  1.0000
  H   H2000     1.0  0.18835  0.77571  0.15972  1.0000
  H   H2001     1.0  0.31798  0.95262  0.44617  1.0000
  H   H2002     1.0  0.21874  0.75914  0.29276  1.0000
  C   C1127     1.0  0.20712  0.91977  0.44910  1.0000
  C   C1128     1.0  0.35910  0.90708  0.14600  1.0000
  H   H2003     1.0  0.29811  0.52177  0.07747  1.0000
  H   H2004     1.0  0.20034  0.72860  0.27239  1.0000
  H   H2005     1.0  0.23895  0.54476  0.05168  1.0000
  C   C1129     1.0  0.31207  0.53038  0.24696  1.0000
  C   C1130     1.0  0.33666  0.55761  0.23870  1.0000
  H   H2006     1.0  0.37429  0.88970  0.15450  1.0000
  H   H2007     1.0  0.25964  0.54666  0.05884  1.0000
  H   H2008     1.0  0.38129  0.96511  0.41285  1.0000
  H   H2009     1.0  0.32737  0.84107  0.40542  1.0000
  C   C1131     1.0  0.32092  0.94028  0.44364  1.0000
  H   H2010     1.0  0.37630  0.94464  0.45092  1.0000
  H   H2011     1.0  0.34513  0.95425  0.41932  1.0000
  H   H2012     1.0  0.32865  0.86360  0.40580  1.0000
  H   H2013     1.0  0.37268  0.75839  0.23892  1.0000
  H   H2014     1.0  0.22939  0.91064  0.45516  1.0000
  H   H2015     1.0  0.27078  0.53002  0.08732  1.0000
  H   H2016     1.0  0.18906  0.74345  0.29742  1.0000
  H   H2017     1.0  0.20308  0.79110  0.20121  1.0000
  H   H2018     1.0  0.36230  0.91525  0.09402  1.0000
  H   H2019     1.0  0.23142  0.56231  0.08054  1.0000
  C   C1132     1.0  0.18838  0.76841  0.30412  1.0000
  S   S259      1.0  0.34949  0.89156  0.98838  1.0000
  H   H2020     1.0  0.37074  0.57708  0.13105  1.0000
  C   C1133     1.0  0.28771  0.50556  0.25017  1.0000
  C   C1134     1.0  0.32243  0.50469  0.22059  1.0000
  C   C1135     1.0  0.27848  0.92949  0.44497  1.0000
  H   H2021     1.0  0.24174  0.77489  0.24292  1.0000
  H   H2022     1.0  0.22130  0.72623  0.23570  1.0000
  H   H2023     1.0  0.27150  0.75579  0.24358  1.0000
  H   H2024     1.0  0.23780  0.80983  0.01656  1.0000
  N   N65       1.0  0.29693  0.80919  0.12207  1.0000
  C   C1136     1.0  0.31206  0.80442  0.13016  1.0000
  C   C1137     1.0  0.29039  0.82083  0.13660  1.0000
  C   C1138     1.0  0.28277  0.79254  0.12678  1.0000
  C   C1139     1.0  0.30113  0.81774  0.09637  1.0000
  C   C1140     1.0  0.31984  0.82906  0.08537  1.0000
  C   C1141     1.0  0.31818  0.78990  0.11997  1.0000
  C   C1142     1.0  0.26499  0.79463  0.12315  1.0000
  C   C1143     1.0  0.30300  0.83849  0.13527  1.0000
  C   C1144     1.0  0.29533  0.84807  0.15255  1.0000
  C   C1145     1.0  0.32125  0.84007  0.06122  1.0000
  C   C1146     1.0  0.33620  0.78946  0.12302  1.0000
  C   C1147     1.0  0.25303  0.77721  0.12298  1.0000
  H   H2025     1.0  0.30886  0.79989  0.14952  1.0000
  H   H2026     1.0  0.32326  0.81592  0.12641  1.0000
  H   H2027     1.0  0.27896  0.82422  0.13145  1.0000
  H   H2028     1.0  0.28599  0.81376  0.15522  1.0000
  H   H2029     1.0  0.28071  0.78504  0.14500  1.0000
  H   H2030     1.0  0.28656  0.78387  0.11548  1.0000
  H   H2031     1.0  0.29876  0.80780  0.08580  1.0000
  H   H2032     1.0  0.29223  0.82597  0.09282  1.0000
  H   H2033     1.0  0.32878  0.82067  0.08338  1.0000
  H   H2034     1.0  0.32458  0.83798  0.09609  1.0000
  H   H2035     1.0  0.30934  0.77697  0.12916  1.0000
  H   H2036     1.0  0.31827  0.79166  0.10117  1.0000
  H   H2037     1.0  0.26631  0.80387  0.10645  1.0000
  H   H2038     1.0  0.25860  0.79947  0.13767  1.0000
  H   H2039     1.0  0.31522  0.83678  0.13944  1.0000
  H   H2040     1.0  0.30559  0.84705  0.11767  1.0000
  H   H2041     1.0  0.24626  0.51164  0.26127  1.0000
  C   C1148     1.0  0.37510  0.73533  0.22592  1.0000
  H   H2042     1.0  0.28318  0.85056  0.14886  1.0000
  H   H2043     1.0  0.33490  0.84723  0.05331  1.0000
  H   H2044     1.0  0.31664  0.83172  0.04958  1.0000
  H   H2045     1.0  0.31368  0.84981  0.06250  1.0000
  H   H2046     1.0  0.34035  0.77937  0.11479  1.0000
  H   H2047     1.0  0.34560  0.80225  0.11466  1.0000
  H   H2048     1.0  0.33621  0.78613  0.14180  1.0000
  H   H2049     1.0  0.24020  0.77895  0.12130  1.0000
  H   H2050     1.0  0.25829  0.77202  0.10810  1.0000
  H   H2051     1.0  0.25130  0.76751  0.13945  1.0000
  C   C1149     1.0  0.25632  0.50552  0.25429  1.0000
  S   S260      1.0  0.36231  0.91881  0.35049  1.0000
  H   H2052     1.0  0.38630  0.93167  0.12729  1.0000
  H   H2053     1.0  0.31204  0.53371  0.22808  1.0000
  H   H2054     1.0  0.31501  0.50999  0.28772  1.0000
  H   H2055     1.0  0.38604  0.96358  0.01063  1.0000
  H   H2056     1.0  0.18825  0.76971  0.13216  1.0000
  H   H2057     1.0  0.31974  0.89069  0.35629  1.0000
  C   C1150     1.0  0.33398  0.85477  0.39621  1.0000
  H   H2058     1.0  0.21777  0.77670  0.27129  1.0000
  H   H2059     1.0  0.26063  0.82615  0.98165  1.0000
  H   H2060     1.0  0.37800  0.93395  0.42706  1.0000
  H   H2061     1.0  0.20427  0.78119  0.24188  1.0000
  H   H2062     1.0  0.31748  0.85333  0.29842  1.0000
  H   H2063     1.0  0.34302  0.88595  0.17477  1.0000
  C   C1151     1.0  0.24589  0.54559  0.06590  1.0000
  H   H2064     1.0  0.35701  0.91604  0.13123  1.0000
  C   C1152     1.0  0.36412  0.57853  0.09756  1.0000
  H   H2065     1.0  0.36532  0.53520  0.41007  1.0000
  H   H2066     1.0  0.38128  0.53122  0.37280  1.0000
  C   C1153     1.0  0.37627  0.92176  0.08805  1.0000
  H   H2067     1.0  0.18765  0.68609  0.08566  1.0000
  C   C1154     1.0  0.38529  0.94304  0.43572  1.0000
  H   H2068     1.0  0.37142  0.93497  0.05596  1.0000
  H   H2069     1.0  0.38615  0.70867  0.21894  1.0000
  H   H2070     1.0  0.21614  0.49638  0.02762  1.0000
  H   H2071     1.0  0.38470  0.82033  0.24281  1.0000
  H   H2072     1.0  0.36978  0.51419  0.41323  1.0000
  H   H2073     1.0  0.19084  0.87276  0.40950  1.0000
  H   H2074     1.0  0.19803  0.90793  0.46104  1.0000
  C   C1155     1.0  0.23255  0.49873  0.10430  1.0000
  H   H2075     1.0  0.38552  0.60922  0.08988  1.0000
  H   H2076     1.0  0.38169  0.56919  0.18299  1.0000
  C   C1156     1.0  0.38032  0.92735  0.06145  1.0000
  C   C1157     1.0  0.37573  0.52844  0.40977  1.0000
  H   H2077     1.0  0.35998  0.91660  0.46145  1.0000
  H   H2078     1.0  0.18889  0.76967  0.21353  1.0000
  H   H2079     1.0  0.22824  0.96649  0.46783  1.0000
  H   H2080     1.0  0.24073  0.50261  0.11646  1.0000
  H   H2081     1.0  0.21152  0.50752  0.12287  1.0000
  H   H2082     1.0  0.37326  0.85690  0.07024  1.0000
  H   H2083     1.0  0.37903  0.93382  0.09452  1.0000
  H   H2084     1.0  0.38243  0.88203  0.46956  1.0000
  S   S261      1.0  0.18929  0.81648  0.46875  1.0000
  C   C1158     1.0  0.21367  0.49556  0.11767  1.0000
  C   C1159     1.0  0.21604  0.97035  0.47176  1.0000
  H   H2085     1.0  0.22913  0.92264  0.77853  1.0000
  N   N66       1.0  0.26079  0.82687  0.94534  1.0000
  Fe  Fe130     1.0  0.37663  0.90613  0.96917  1.0000
  Fe  Fe131     1.0  0.22209  0.87081  0.49351  1.0000
  S   S262      1.0  0.24980  0.87048  0.48827  1.0000
  S   S263      1.0  0.21208  0.89264  0.50616  1.0000
  H   H2086     1.0  0.30621  0.94494  0.84162  1.0000
  Fe  Fe132     1.0  0.23966  0.84161  0.50292  1.0000
  S   S264      1.0  0.25381  0.82656  0.52511  1.0000
  S   S265      1.0  0.21185  0.84205  0.51036  1.0000
  Fe  Fe133     1.0  0.23261  0.83703  0.87787  1.0000
  S   S266      1.0  0.25884  0.83371  0.86340  1.0000
  Fe  Fe134     1.0  0.24084  0.87362  0.84678  1.0000
  S   S267      1.0  0.26744  0.87307  0.83051  1.0000
  S   S268      1.0  0.22834  0.89540  0.83702  1.0000
  Fe  Fe135     1.0  0.25516  0.84575  0.82826  1.0000
  S   S269      1.0  0.26644  0.84100  0.79299  1.0000
  Fe  Fe136     1.0  0.26922  0.86123  0.86661  1.0000
  S   S270      1.0  0.29461  0.86789  0.87800  1.0000
  S   S271      1.0  0.22817  0.84706  0.84242  1.0000
  S   S272      1.0  0.24347  0.86391  0.88315  1.0000
  C   C1160     1.0  0.23687  0.85352  0.65512  1.0000
  H   H2087     1.0  0.28781  0.86343  0.51618  1.0000
  Fe  Fe137     1.0  0.24612  0.97569  0.55731  1.0000
  S   S273      1.0  0.25313  0.95089  0.55029  1.0000
  S   S274      1.0  0.22117  0.97747  0.57875  1.0000
  C   C1161     1.0  0.30012  0.94546  0.50220  1.0000
  S   S275      1.0  0.27058  0.97453  0.81126  1.0000
  C   C1162     1.0  0.18690  0.79402  0.94027  1.0000
  H   H2088     1.0  0.28633  0.95465  0.75191  1.0000
  C   C1163     1.0  0.27392  0.96925  0.87986  1.0000
  S   S276      1.0  0.31673  0.90884  0.95414  1.0000
  H   H2089     1.0  0.35152  0.89933  0.51364  1.0000
  H   H2090     1.0  0.37274  0.52240  0.80771  1.0000
  Fe  Fe138     1.0  0.26221  0.79789  0.65420  1.0000
  S   S277      1.0  0.27745  0.77970  0.64294  1.0000
  S   S278      1.0  0.25460  0.81988  0.63259  1.0000
  Fe  Fe139     1.0  0.25516  0.78029  0.70564  1.0000
  S   S279      1.0  0.26919  0.76023  0.69817  1.0000
  S   S280      1.0  0.24162  0.78019  0.74243  1.0000
  Fe  Fe140     1.0  0.28946  0.78280  0.67357  1.0000
  S   S281      1.0  0.31728  0.78246  0.67388  1.0000
  Fe  Fe141     1.0  0.25614  0.75845  0.66837  1.0000
  S   S282      1.0  0.24766  0.73329  0.65628  1.0000
  S   S283      1.0  0.27605  0.80289  0.68273  1.0000
  S   S284      1.0  0.24029  0.77653  0.67785  1.0000
  C   C1164     1.0  0.27944  0.82919  0.93398  1.0000
  H   H2091     1.0  0.20066  0.52846  0.68982  1.0000
  C   C1165     1.0  0.29928  0.55483  0.71951  1.0000
  Fe  Fe142     1.0  0.34454  0.55755  0.65674  1.0000
  S   S285      1.0  0.34851  0.53151  0.67068  1.0000
  S   S286      1.0  0.31892  0.56103  0.64955  1.0000
  Fe  Fe143     1.0  0.36222  0.54485  0.69476  1.0000
  H   H2092     1.0  0.21444  0.82879  0.70383  1.0000
  H   H2093     1.0  0.27711  0.83399  0.69908  1.0000
  H   H2094     1.0  0.20655  0.76585  0.55876  1.0000
  S   S287      1.0  0.35655  0.57046  0.68242  1.0000
  S   S288      1.0  0.36936  0.56686  0.62941  1.0000
  H   H2095     1.0  0.35645  0.53745  0.84233  1.0000
  H   H2096     1.0  0.28256  0.96148  0.50978  1.0000
  H   H2097     1.0  0.24760  0.86767  0.75308  1.0000
  H   H2098     1.0  0.31616  0.55083  0.56890  1.0000
  S   S289      1.0  0.21409  0.50688  0.62232  1.0000
  C   C1166     1.0  0.29298  0.83978  0.94478  1.0000
  H   H2099     1.0  0.35386  0.50633  0.84533  1.0000
  H   H2100     1.0  0.28949  0.55662  0.70932  1.0000
  C   C1167     1.0  0.36763  0.52775  0.75162  1.0000
  H   H2101     1.0  0.30074  0.52012  0.75807  1.0000
  Fe  Fe144     1.0  0.34182  0.91303  0.96673  1.0000
  C   C1168     1.0  0.23861  0.86486  0.94934  1.0000
  C   C1169     1.0  0.26720  0.85238  0.67689  1.0000
  H   H2102     1.0  0.20627  0.79276  0.88571  1.0000
  S   S290      1.0  0.36869  0.92624  0.94564  1.0000
  H   H2103     1.0  0.31423  0.94767  0.49672  1.0000
  C   C1170     1.0  0.30127  0.54370  0.64969  1.0000
  C   C1171     1.0  0.28548  0.54716  0.64745  1.0000
  C   C1172     1.0  0.27112  0.53364  0.64776  1.0000
  C   C1173     1.0  0.27244  0.51651  0.65040  1.0000
  C   C1174     1.0  0.28822  0.51307  0.65269  1.0000
  C   C1175     1.0  0.30258  0.52657  0.65219  1.0000
  H   H2104     1.0  0.28437  0.56040  0.64542  1.0000
  H   H2105     1.0  0.25908  0.53650  0.64589  1.0000
  C   C1176     1.0  0.28848  0.51792  0.75207  1.0000
  H   H2106     1.0  0.31467  0.52374  0.65368  1.0000
  C   C1177     1.0  0.36119  0.50570  0.56303  1.0000
  C   C1178     1.0  0.35298  0.51505  0.57702  1.0000
  C   C1179     1.0  0.36006  0.52111  0.59477  1.0000
  H   H2107     1.0  0.25140  0.82626  0.91392  1.0000
  H   H2108     1.0  0.22586  0.85600  0.68928  1.0000
  C   C1180     1.0  0.24700  0.50772  0.71052  1.0000
  C   C1181     1.0  0.29764  0.94219  0.91128  1.0000
  H   H2109     1.0  0.35360  0.52831  0.60538  1.0000
  C   C1182     1.0  0.34475  0.52777  0.85362  1.0000
  H   H2110     1.0  0.19811  0.61914  0.60243  1.0000
  C   C1183     1.0  0.22728  0.71788  0.66297  1.0000
  C   C1184     1.0  0.22591  0.70250  0.65475  1.0000
  C   C1185     1.0  0.20986  0.69034  0.65838  1.0000
  C   C1186     1.0  0.19739  0.55441  0.64936  1.0000
  H   H2111     1.0  0.24046  0.98461  0.73827  1.0000
  C   C1187     1.0  0.21240  0.72091  0.67515  1.0000
  H   H2112     1.0  0.23734  0.70004  0.64531  1.0000
  H   H2113     1.0  0.26609  0.51177  0.58973  1.0000
  H   H2114     1.0  0.21327  0.73266  0.68159  1.0000
  C   C1188     1.0  0.36116  0.82418  0.68596  1.0000
  C   C1189     1.0  0.36255  0.80721  0.68649  1.0000
  C   C1190     1.0  0.34894  0.79463  0.68279  1.0000
  C   C1191     1.0  0.33390  0.79887  0.67842  1.0000
  C   C1192     1.0  0.33257  0.81588  0.67769  1.0000
  C   C1193     1.0  0.34614  0.82844  0.68145  1.0000
  H   H2115     1.0  0.37396  0.80375  0.69012  1.0000
  H   H2116     1.0  0.34992  0.78146  0.68356  1.0000
  H   H2117     1.0  0.32113  0.81934  0.67415  1.0000
  H   H2118     1.0  0.34502  0.84157  0.68081  1.0000
  H   H2119     1.0  0.22448  0.86162  0.76242  1.0000
  H   H2120     1.0  0.26562  0.80348  0.91249  1.0000
  H   H2121     1.0  0.23583  0.93799  0.67536  1.0000
  C   C1194     1.0  0.22285  0.82070  0.70939  1.0000
  C   C1195     1.0  0.30042  0.87943  0.89917  1.0000
  C   C1196     1.0  0.28866  0.88561  0.91316  1.0000
  C   C1197     1.0  0.29384  0.89437  0.93009  1.0000
  C   C1198     1.0  0.31081  0.89717  0.93313  1.0000
  C   C1199     1.0  0.32254  0.89099  0.91914  1.0000
  C   C1200     1.0  0.31737  0.88220  0.90223  1.0000
  H   H2122     1.0  0.27562  0.88366  0.91092  1.0000
  H   H2123     1.0  0.28464  0.89895  0.94101  1.0000
  H   H2124     1.0  0.21360  0.86230  0.65436  1.0000
  C   C1201     1.0  0.25891  0.82390  0.77960  1.0000
  C   C1202     1.0  0.26831  0.82400  0.75753  1.0000
  C   C1203     1.0  0.26327  0.81056  0.74624  1.0000
  C   C1204     1.0  0.24845  0.79708  0.75656  1.0000
  C   C1205     1.0  0.23887  0.79703  0.77856  1.0000
  C   C1206     1.0  0.24411  0.81035  0.79012  1.0000
  H   H2125     1.0  0.27955  0.83458  0.74915  1.0000
  H   H2126     1.0  0.27093  0.81046  0.72967  1.0000
  H   H2127     1.0  0.22739  0.78660  0.78673  1.0000
  H   H2128     1.0  0.23673  0.81014  0.80710  1.0000
  C   C1207     1.0  0.24034  0.91735  0.82803  1.0000
  C   C1208     1.0  0.23171  0.93047  0.82487  1.0000
  C   C1209     1.0  0.24087  0.94814  0.81880  1.0000
  C   C1210     1.0  0.25871  0.95273  0.81593  1.0000
  C   C1211     1.0  0.26739  0.93962  0.81819  1.0000
  C   C1212     1.0  0.25824  0.92197  0.82424  1.0000
  H   H2129     1.0  0.21784  0.92692  0.82770  1.0000
  H   H2130     1.0  0.23407  0.95817  0.81717  1.0000
  H   H2131     1.0  0.28123  0.94313  0.81570  1.0000
  H   H2132     1.0  0.26499  0.91193  0.82628  1.0000
  C   C1213     1.0  0.25371  0.82501  0.55503  1.0000
  C   C1214     1.0  0.24489  0.83410  0.56853  1.0000
  C   C1215     1.0  0.24521  0.83236  0.59230  1.0000
  C   C1216     1.0  0.25414  0.82136  0.60282  1.0000
  C   C1217     1.0  0.26286  0.81222  0.58934  1.0000
  C   C1218     1.0  0.26275  0.81416  0.56554  1.0000
  H   H2133     1.0  0.23791  0.84251  0.56065  1.0000
  H   H2134     1.0  0.23849  0.83955  0.60256  1.0000
  H   H2135     1.0  0.27003  0.80398  0.59711  1.0000
  H   H2136     1.0  0.26977  0.80726  0.55513  1.0000
  C   C1219     1.0  0.22358  0.90842  0.51899  1.0000
  C   C1220     1.0  0.21582  0.92103  0.52621  1.0000
  C   C1221     1.0  0.22474  0.93430  0.53538  1.0000
  C   C1222     1.0  0.24139  0.93475  0.53825  1.0000
  C   C1223     1.0  0.24895  0.92179  0.53176  1.0000
  C   C1224     1.0  0.24022  0.90885  0.52190  1.0000
  H   H2137     1.0  0.20274  0.92040  0.52499  1.0000
  H   H2138     1.0  0.21860  0.94394  0.54074  1.0000
  H   H2139     1.0  0.26162  0.92176  0.53451  1.0000
  H   H2140     1.0  0.24620  0.89902  0.51693  1.0000
  S   S291      1.0  0.21301  0.82070  0.91101  1.0000
  C   C1225     1.0  0.24279  0.90368  0.77162  1.0000
  H   H2141     1.0  0.18873  0.69906  0.62251  1.0000
  H   H2142     1.0  0.33562  0.89305  0.92129  1.0000
  H   H2143     1.0  0.26740  0.84602  0.66183  1.0000
  H   H2144     1.0  0.20537  0.94789  0.50022  1.0000
  H   H2145     1.0  0.27149  0.90652  0.47197  1.0000
  H   H2146     1.0  0.23145  0.97195  0.71965  1.0000
  H   H2147     1.0  0.19054  0.52137  0.75461  1.0000
  H   H2148     1.0  0.26843  0.52893  0.72751  1.0000
  H   H2149     1.0  0.26219  0.85233  0.92540  1.0000
  H   H2150     1.0  0.21541  0.80311  0.68708  1.0000
  H   H2151     1.0  0.28936  0.49985  0.65480  1.0000
  N   N67       1.0  0.25258  0.95345  0.74239  1.0000
  C   C1226     1.0  0.23520  0.95619  0.75159  1.0000
  C   C1227     1.0  0.25434  0.93639  0.75566  1.0000
  C   C1228     1.0  0.26601  0.96798  0.74666  1.0000
  C   C1229     1.0  0.25603  0.95445  0.71651  1.0000
  C   C1230     1.0  0.24255  0.94207  0.70781  1.0000
  C   C1231     1.0  0.23113  0.97247  0.73810  1.0000
  C   C1232     1.0  0.23961  0.84594  0.95358  1.0000
  C   C1233     1.0  0.23812  0.92069  0.76356  1.0000
  H   H2152     1.0  0.38216  0.56179  0.78756  1.0000
  H   H2153     1.0  0.29600  0.99209  0.86873  1.0000
  H   H2154     1.0  0.31970  0.57350  0.69236  1.0000
  H   H2155     1.0  0.23378  0.95690  0.77024  1.0000
  H   H2156     1.0  0.22457  0.94499  0.75162  1.0000
  H   H2157     1.0  0.26485  0.93228  0.74542  1.0000
  H   H2158     1.0  0.25832  0.93809  0.77216  1.0000
  H   H2159     1.0  0.26292  0.96893  0.76522  1.0000
  H   H2160     1.0  0.21197  0.97422  0.76744  1.0000
  H   H2161     1.0  0.25779  0.96807  0.70677  1.0000
  H   H2162     1.0  0.26842  0.95143  0.71042  1.0000
  H   H2163     1.0  0.22921  0.94212  0.71537  1.0000
  H   H2164     1.0  0.24390  0.92861  0.71226  1.0000
  H   H2165     1.0  0.35435  0.53324  0.78277  1.0000
  H   H2166     1.0  0.19547  0.74796  0.84048  1.0000
  C   C1234     1.0  0.29729  0.98210  0.74546  1.0000
  H   H2167     1.0  0.35042  0.76343  0.63808  1.0000
  H   H2168     1.0  0.34107  0.51765  0.57412  1.0000
  H   H2169     1.0  0.23088  0.89292  0.77893  1.0000
  H   H2170     1.0  0.28228  0.81632  0.93470  1.0000
  H   H2171     1.0  0.29039  0.83473  0.96389  1.0000
  C   C1235     1.0  0.18889  0.61586  0.59134  1.0000
  C   C1236     1.0  0.27622  0.52223  0.71684  1.0000
  C   C1237     1.0  0.25379  0.80041  0.92655  1.0000
  C   C1238     1.0  0.28487  0.96659  0.74097  1.0000
  H   H2172     1.0  0.24750  0.87259  0.95796  1.0000
  C   C1239     1.0  0.27674  0.49993  0.76597  1.0000
  N   N68       1.0  0.27713  0.93771  0.88303  1.0000
  H   H2173     1.0  0.31456  0.91168  0.86475  1.0000
  C   C1240     1.0  0.28638  0.92666  0.87033  1.0000
  C   C1241     1.0  0.25812  0.93149  0.88394  1.0000
  C   C1242     1.0  0.27925  0.93559  0.90782  1.0000
  H   H2174     1.0  0.22539  0.86133  0.62641  1.0000
  H   H2175     1.0  0.24512  0.87204  0.67567  1.0000
  C   C1243     1.0  0.24997  0.91149  0.89197  1.0000
  C   C1244     1.0  0.30547  0.93497  0.85742  1.0000
  C   C1245     1.0  0.31389  0.92130  0.84945  1.0000
  H   H2176     1.0  0.27176  0.86665  0.66913  1.0000
  H   H2177     1.0  0.26035  0.96629  0.87818  1.0000
  C   C1246     1.0  0.23044  0.90714  0.89527  1.0000
  H   H2178     1.0  0.23254  0.86949  0.71973  1.0000
  H   H2179     1.0  0.25845  0.94720  0.67263  1.0000
  H   H2180     1.0  0.28555  0.91420  0.88243  1.0000
  H   H2181     1.0  0.27993  0.92286  0.85648  1.0000
  H   H2182     1.0  0.25549  0.93567  0.86649  1.0000
  H   H2183     1.0  0.25059  0.93768  0.89575  1.0000
  H   H2184     1.0  0.27060  0.94179  0.91796  1.0000
  H   H2185     1.0  0.27495  0.92164  0.91696  1.0000
  H   H2186     1.0  0.28169  0.95743  0.85154  1.0000
  H   H2187     1.0  0.22530  0.86532  0.95657  1.0000
  C   C1247     1.0  0.37942  0.76482  0.65646  1.0000
  C   C1248     1.0  0.25718  0.81696  0.97039  1.0000
  H   H2188     1.0  0.25276  0.90592  0.90869  1.0000
  H   H2189     1.0  0.25489  0.90470  0.87873  1.0000
  H   H2190     1.0  0.36098  0.55522  0.50246  1.0000
  H   H2191     1.0  0.31321  0.94138  0.86832  1.0000
  H   H2192     1.0  0.23711  0.79689  0.90227  1.0000
  H   H2193     1.0  0.28912  0.96646  0.72239  1.0000
  H   H2194     1.0  0.30651  0.91436  0.83848  1.0000
  H   H2195     1.0  0.23825  0.50573  0.57897  1.0000
  H   H2196     1.0  0.22632  0.55148  0.71057  1.0000
  H   H2197     1.0  0.28194  0.50042  0.55675  1.0000
  H   H2198     1.0  0.23589  0.84500  0.76338  1.0000
  C   C1249     1.0  0.22136  0.54717  0.69590  1.0000
  H   H2199     1.0  0.25065  0.90036  0.75680  1.0000
  H   H2200     1.0  0.35465  0.74928  0.61895  1.0000
  H   H2201     1.0  0.30937  0.58278  0.71418  1.0000
  H   H2202     1.0  0.22689  0.91256  0.87900  1.0000
  C   C1250     1.0  0.30547  0.53842  0.71611  1.0000
  Fe  Fe145     1.0  0.37395  0.54131  0.64457  1.0000
  H   H2203     1.0  0.28415  0.85600  0.70147  1.0000
  C   C1251     1.0  0.29807  0.85006  0.67147  1.0000
  C   C1252     1.0  0.28126  0.84761  0.68913  1.0000
  H   H2204     1.0  0.19950  0.77498  0.58271  1.0000
  H   H2205     1.0  0.29540  0.93645  0.51966  1.0000
  H   H2206     1.0  0.27762  0.90616  0.50921  1.0000
  H   H2207     1.0  0.29419  0.98250  0.76414  1.0000
  H   H2208     1.0  0.32656  0.87749  0.89148  1.0000
  H   H2209     1.0  0.23015  0.83880  0.94521  1.0000
  H   H2210     1.0  0.29366  0.55395  0.73805  1.0000
  H   H2211     1.0  0.18947  0.63113  0.75727  1.0000
  C   C1253     1.0  0.25015  0.85297  0.71475  1.0000
  S   S292      1.0  0.26293  0.99369  0.57421  1.0000
  H   H2212     1.0  0.25010  0.90472  0.78546  1.0000
  C   C1254     1.0  0.34968  0.90799  0.49821  1.0000
  C   C1255     1.0  0.31413  0.57134  0.71127  1.0000
  C   C1256     1.0  0.28319  0.95652  0.86979  1.0000
  H   H2213     1.0  0.29068  0.92978  0.94840  1.0000
  H   H2214     1.0  0.22291  0.79356  0.71162  1.0000
  H   H2215     1.0  0.19743  0.74605  0.59619  1.0000
  C   C1257     1.0  0.30410  0.52319  0.57430  1.0000
  C   C1258     1.0  0.23899  0.85782  0.67886  1.0000
  H   H2216     1.0  0.29713  0.96193  0.86807  1.0000
  C   C1259     1.0  0.29733  0.94275  0.93673  1.0000
  H   H2217     1.0  0.26047  0.86526  0.71175  1.0000
  H   H2218     1.0  0.31384  0.50128  0.74407  1.0000
  C   C1260     1.0  0.34210  0.51090  0.84499  1.0000
  H   H2219     1.0  0.28214  0.52761  0.75814  1.0000
  H   H2220     1.0  0.29071  0.95252  0.94189  1.0000
  C   C1261     1.0  0.36453  0.52794  0.77541  1.0000
  H   H2221     1.0  0.25390  0.84293  0.72656  1.0000
  C   C1262     1.0  0.24860  0.50058  0.57046  1.0000
  S   S293      1.0  0.35115  0.49743  0.90668  1.0000
  N   N69       1.0  0.24913  0.84770  0.69193  1.0000
  H   H2222     1.0  0.24950  0.85600  0.64293  1.0000
  H   H2223     1.0  0.27991  0.53050  0.69877  1.0000
  H   H2224     1.0  0.29609  0.84151  0.65903  1.0000
  H   H2225     1.0  0.30307  0.86382  0.66159  1.0000
  H   H2226     1.0  0.30786  0.84655  0.68067  1.0000
  C   C1263     1.0  0.38165  0.54317  0.50817  1.0000
  H   H2227     1.0  0.29332  0.87978  0.53245  1.0000
  H   H2228     1.0  0.23115  0.91904  0.74961  1.0000
  H   H2229     1.0  0.23974  0.51125  0.72566  1.0000
  H   H2230     1.0  0.18827  0.77226  0.65805  1.0000
  H   H2231     1.0  0.35073  0.74135  0.65000  1.0000
  C   C1264     1.0  0.31114  0.53915  0.58352  1.0000
  H   H2232     1.0  0.27025  0.50030  0.70010  1.0000
  C   C1265     1.0  0.21537  0.80258  0.70575  1.0000
  H   H2233     1.0  0.22708  0.78558  0.93217  1.0000
  C   C1266     1.0  0.23920  0.78944  0.91850  1.0000
  H   H2234     1.0  0.22210  0.81944  0.72835  1.0000
  H   H2235     1.0  0.27233  0.87479  0.52572  1.0000
  H   H2236     1.0  0.20682  0.52209  0.71674  1.0000
  H   H2237     1.0  0.20756  0.54839  0.64420  1.0000
  H   H2238     1.0  0.19261  0.69774  0.75414  1.0000
  H   H2239     1.0  0.29384  0.52594  0.56558  1.0000
  H   H2240     1.0  0.38457  0.90074  0.85473  1.0000
  N   N70       1.0  0.32489  0.81082  0.75500  1.0000
  C   C1267     1.0  0.31164  0.80219  0.74320  1.0000
  C   C1268     1.0  0.33241  0.82990  0.74295  1.0000
  C   C1269     1.0  0.33932  0.80197  0.75251  1.0000
  C   C1270     1.0  0.31770  0.80873  0.78067  1.0000
  C   C1271     1.0  0.30102  0.81447  0.78735  1.0000
  C   C1272     1.0  0.30348  0.78238  0.75303  1.0000
  C   C1273     1.0  0.35527  0.80997  0.76146  1.0000
  C   C1274     1.0  0.32055  0.83957  0.73160  1.0000
  C   C1275     1.0  0.32931  0.85900  0.72254  1.0000
  C   C1276     1.0  0.29439  0.81025  0.81378  1.0000
  C   C1277     1.0  0.28934  0.77562  0.74093  1.0000
  C   C1278     1.0  0.36931  0.80064  0.75634  1.0000
  H   H2241     1.0  0.31749  0.80401  0.72438  1.0000
  H   H2242     1.0  0.30087  0.80844  0.74363  1.0000
  H   H2243     1.0  0.33770  0.83743  0.75509  1.0000
  H   H2244     1.0  0.34362  0.83153  0.72838  1.0000
  H   H2245     1.0  0.34385  0.80182  0.73386  1.0000
  H   H2246     1.0  0.33477  0.78812  0.76216  1.0000
  H   H2247     1.0  0.31529  0.79495  0.79012  1.0000
  H   H2248     1.0  0.32731  0.81633  0.78849  1.0000
  H   H2249     1.0  0.29057  0.80769  0.78015  1.0000
  H   H2250     1.0  0.30349  0.82873  0.78121  1.0000
  H   H2251     1.0  0.31317  0.77493  0.74991  1.0000
  H   H2252     1.0  0.29768  0.77944  0.77196  1.0000
  H   H2253     1.0  0.35181  0.80862  0.78058  1.0000
  H   H2254     1.0  0.36092  0.82397  0.75300  1.0000
  H   H2255     1.0  0.31743  0.83430  0.71653  1.0000
  H   H2256     1.0  0.30842  0.83819  0.74404  1.0000
  H   H2257     1.0  0.34161  0.86108  0.70972  1.0000
  H   H2258     1.0  0.32077  0.86547  0.71381  1.0000
  H   H2259     1.0  0.33193  0.86513  0.73716  1.0000
  H   H2260     1.0  0.30408  0.81714  0.82211  1.0000
  H   H2261     1.0  0.28249  0.81459  0.81807  1.0000
  H   H2262     1.0  0.29123  0.79600  0.82107  1.0000
  H   H2263     1.0  0.28423  0.76130  0.74733  1.0000
  H   H2264     1.0  0.27858  0.78167  0.74463  1.0000
  H   H2265     1.0  0.29452  0.77853  0.72181  1.0000
  H   H2266     1.0  0.29303  0.85370  0.94137  1.0000
  H   H2267     1.0  0.20102  0.75753  0.66557  1.0000
  H   H2268     1.0  0.25587  0.79244  0.94234  1.0000
  C   C1279     1.0  0.31111  0.83902  0.93411  1.0000
  C   C1280     1.0  0.37024  0.57797  0.76716  1.0000
  H   H2269     1.0  0.23604  0.81463  0.93938  1.0000
  H   H2270     1.0  0.21815  0.80429  0.56083  1.0000
  C   C1281     1.0  0.20135  0.57214  0.65010  1.0000
  S   S294      1.0  0.37719  0.84017  0.69242  1.0000
  C   C1282     1.0  0.24990  0.81757  0.93120  1.0000
  H   H2271     1.0  0.30810  0.50549  0.60270  1.0000
  C   C1283     1.0  0.25806  0.84485  0.94390  1.0000
  C   C1284     1.0  0.29106  0.90808  0.49943  1.0000
  H   H2272     1.0  0.19554  0.54862  0.72848  1.0000
  H   H2273     1.0  0.34658  0.52541  0.87173  1.0000
  H   H2274     1.0  0.38335  0.56556  0.52384  1.0000
  Fe  Fe146     1.0  0.37762  0.49906  0.88565  1.0000
  C   C1285     1.0  0.21882  0.98395  0.48636  1.0000
  H   H2275     1.0  0.31416  0.84382  0.91487  1.0000
  H   H2276     1.0  0.29947  0.91195  0.51129  1.0000
  C   C1286     1.0  0.37553  0.90067  0.89066  1.0000
  H   H2277     1.0  0.31054  0.54018  0.69705  1.0000
  H   H2278     1.0  0.22461  0.91249  0.90962  1.0000
  Fe  Fe147     1.0  0.38191  0.57739  0.65662  1.0000
  H   H2279     1.0  0.31071  0.94641  0.93907  1.0000
  Fe  Fe148     1.0  0.19220  0.50456  0.65239  1.0000
  C   C1287     1.0  0.19494  0.69356  0.67002  1.0000
  C   C1288     1.0  0.29323  0.89001  0.49617  1.0000
  H   H2280     1.0  0.37364  0.59051  0.75406  1.0000
  H   H2281     1.0  0.23068  0.99448  0.47764  1.0000
  C   C1289     1.0  0.29077  0.93803  0.48435  1.0000
  C   C1290     1.0  0.28625  0.87625  0.51907  1.0000
  C   C1291     1.0  0.19762  0.78859  0.90274  1.0000
  H   H2282     1.0  0.30419  0.95549  0.90074  1.0000
  C   C1292     1.0  0.24532  0.94731  0.68131  1.0000
  H   H2283     1.0  0.32433  0.57043  0.72104  1.0000
  C   C1293     1.0  0.37540  0.51772  0.59890  1.0000
  C   C1294     1.0  0.29716  0.50670  0.59446  1.0000
  H   H2284     1.0  0.27415  0.96849  0.89844  1.0000
  C   C1295     1.0  0.29964  0.50737  0.71698  1.0000
  H   H2285     1.0  0.36348  0.56741  0.75988  1.0000
  C   C1296     1.0  0.37478  0.52167  0.78964  1.0000
  H   H2286     1.0  0.21463  0.57974  0.64546  1.0000
  C   C1297     1.0  0.20107  0.95424  0.48511  1.0000
  C   C1298     1.0  0.38407  0.76639  0.70237  1.0000
  C   C1299     1.0  0.37662  0.50247  0.56695  1.0000
  S   S295      1.0  0.35449  0.53585  0.73439  1.0000
  C   C1300     1.0  0.38365  0.50840  0.58485  1.0000
  H   H2287     1.0  0.32719  0.92769  0.83908  1.0000
  H   H2288     1.0  0.38291  0.90435  0.49318  1.0000
  C   C1301     1.0  0.26121  0.49881  0.58613  1.0000
  H   H2289     1.0  0.30268  0.51055  0.69758  1.0000
  H   H2290     1.0  0.28756  0.50946  0.60792  1.0000
  H   H2291     1.0  0.32378  0.50194  0.78595  1.0000
  H   H2292     1.0  0.35796  0.53345  0.49771  1.0000
  H   H2293     1.0  0.20301  0.79504  0.54512  1.0000
  C   C1302     1.0  0.19631  0.70888  0.67844  1.0000
  H   H2294     1.0  0.37242  0.77082  0.70029  1.0000
  H   H2295     1.0  0.24196  0.87088  0.93040  1.0000
  S   S296      1.0  0.25508  0.49883  0.65064  1.0000
  H   H2296     1.0  0.28215  0.83556  0.91510  1.0000
  C   C1303     1.0  0.28255  0.98811  0.86676  1.0000
  Fe  Fe149     1.0  0.21173  0.83758  0.47395  1.0000
  H   H2297     1.0  0.21966  0.55858  0.68407  1.0000
  H   H2298     1.0  0.26618  0.85227  0.95369  1.0000
  H   H2299     1.0  0.32178  0.53731  0.59206  1.0000
  H   H2300     1.0  0.30540  0.93313  0.90673  1.0000
  H   H2301     1.0  0.22980  0.83969  0.65754  1.0000
  C   C1304     1.0  0.38637  0.57403  0.77376  1.0000
  H   H2302     1.0  0.36958  0.88640  0.89588  1.0000
  N   N71       1.0  0.22391  0.75731  0.59726  1.0000
  C   C1305     1.0  0.20980  0.74249  0.59507  1.0000
  C   C1306     1.0  0.22658  0.77318  0.57783  1.0000
  C   C1307     1.0  0.24028  0.75142  0.59467  1.0000
  C   C1308     1.0  0.22043  0.76176  0.62078  1.0000
  C   C1309     1.0  0.20319  0.76625  0.62825  1.0000
  H   H2303     1.0  0.38129  0.54533  0.54303  1.0000
  C   C1310     1.0  0.25700  0.76546  0.59338  1.0000
  C   C1311     1.0  0.21058  0.77590  0.56856  1.0000
  C   C1312     1.0  0.21453  0.79362  0.55182  1.0000
  H   H2304     1.0  0.24250  0.77745  0.91490  1.0000
  C   C1313     1.0  0.23565  0.85786  0.75331  1.0000
  C   C1314     1.0  0.27258  0.75793  0.59087  1.0000
  H   H2305     1.0  0.21297  0.73967  0.57748  1.0000
  H   H2306     1.0  0.24914  0.51815  0.69467  1.0000
  H   H2307     1.0  0.23250  0.78527  0.58306  1.0000
  H   H2308     1.0  0.23596  0.77275  0.56209  1.0000
  H   H2309     1.0  0.24233  0.74610  0.57875  1.0000
  H   H2310     1.0  0.23937  0.74063  0.60962  1.0000
  H   H2311     1.0  0.22129  0.75104  0.63467  1.0000
  H   H2312     1.0  0.23057  0.77326  0.62141  1.0000
  H   H2313     1.0  0.31470  0.52172  0.56108  1.0000
  H   H2314     1.0  0.38252  0.92639  0.48623  1.0000
  H   H2315     1.0  0.21713  0.71941  0.61157  1.0000
  H   H2316     1.0  0.19619  0.61493  0.57432  1.0000
  H   H2317     1.0  0.25617  0.77051  0.60943  1.0000
  H   H2318     1.0  0.25955  0.77653  0.57825  1.0000
  H   H2319     1.0  0.19106  0.71297  0.72929  1.0000
  H   H2320     1.0  0.38021  0.80588  0.76396  1.0000
  H   H2321     1.0  0.22517  0.79488  0.53672  1.0000
  H   H2322     1.0  0.20321  0.96240  0.74745  1.0000
  H   H2323     1.0  0.21088  0.98580  0.73936  1.0000
  H   H2324     1.0  0.25522  0.50973  0.55347  1.0000
  H   H2325     1.0  0.38139  0.77016  0.61846  1.0000
  H   H2326     1.0  0.29005  0.49738  0.79436  1.0000
  H   H2327     1.0  0.32199  0.92821  0.47867  1.0000
  C   C1315     1.0  0.20438  0.53306  0.70503  1.0000
  H   H2328     1.0  0.36438  0.78644  0.76408  1.0000
  H   H2329     1.0  0.27096  0.74713  0.60612  1.0000
  H   H2330     1.0  0.27438  0.75303  0.57467  1.0000
  H   H2331     1.0  0.28432  0.76823  0.59008  1.0000
  H   H2332     1.0  0.20901  0.67866  0.65172  1.0000
  H   H2333     1.0  0.35106  0.92133  0.50125  1.0000
  C   C1316     1.0  0.20082  0.76930  0.65294  1.0000
  H   H2334     1.0  0.31683  0.53889  0.72400  1.0000
  H   H2335     1.0  0.33356  0.53332  0.85308  1.0000
  H   H2336     1.0  0.18724  0.80251  0.95231  1.0000
  S   S297      1.0  0.35152  0.49823  0.54112  1.0000
  H   H2337     1.0  0.22502  0.89279  0.89968  1.0000
  H   H2338     1.0  0.37412  0.80281  0.73722  1.0000
  C   C1317     1.0  0.23399  0.85677  0.72855  1.0000
  H   H2339     1.0  0.32687  0.49574  0.87869  1.0000
  H   H2340     1.0  0.20263  0.72705  0.63116  1.0000
  N   N72       1.0  0.29217  0.52108  0.72583  1.0000
  H   H2341     1.0  0.30244  0.96740  0.51881  1.0000
  C   C1318     1.0  0.38090  0.52101  0.74223  1.0000
  H   H2342     1.0  0.30082  0.54154  0.59635  1.0000
  H   H2343     1.0  0.32677  0.51671  0.71806  1.0000
  C   C1319     1.0  0.19818  0.79975  0.91811  1.0000
  H   H2344     1.0  0.27670  0.93501  0.49193  1.0000
  H   H2345     1.0  0.23105  0.54192  0.68598  1.0000
  C   C1320     1.0  0.21319  0.97374  0.74882  1.0000
  H   H2346     1.0  0.38041  0.90503  0.90539  1.0000
  H   H2347     1.0  0.24335  0.82419  0.67903  1.0000
  C   C1321     1.0  0.26413  0.50501  0.71495  1.0000
  C   C1322     1.0  0.29661  0.96287  0.50487  1.0000
  H   H2348     1.0  0.37181  0.75380  0.67106  1.0000
  H   H2349     1.0  0.33645  0.90294  0.49603  1.0000
  C   C1323     1.0  0.35680  0.75293  0.63541  1.0000
  H   H2350     1.0  0.24351  0.96054  0.67589  1.0000
  C   C1324     1.0  0.37609  0.75915  0.63392  1.0000
  H   H2351     1.0  0.26602  0.98078  0.73624  1.0000
  H   H2352     1.0  0.21116  0.78054  0.65378  1.0000
  C   C1325     1.0  0.24185  0.82826  0.69589  1.0000
  H   H2353     1.0  0.24939  0.82110  0.70573  1.0000
  H   H2354     1.0  0.23345  0.87874  0.63981  1.0000
  H   H2355     1.0  0.36133  0.57898  0.78287  1.0000
  H   H2356     1.0  0.37335  0.77570  0.65822  1.0000
  S   S298      1.0  0.19363  0.60237  0.65739  1.0000
  H   H2357     1.0  0.31502  0.50296  0.85867  1.0000
  H   H2358     1.0  0.22202  0.84676  0.72992  1.0000
  C   C1326     1.0  0.31609  0.50475  0.72482  1.0000
  H   H2359     1.0  0.38181  0.74828  0.63108  1.0000
  S   S299      1.0  0.38487  0.52508  0.62105  1.0000
  H   H2360     1.0  0.31235  0.82549  0.93835  1.0000
  H   H2361     1.0  0.34060  0.51431  0.82688  1.0000
  H   H2362     1.0  0.28262  0.98977  0.84794  1.0000
  H   H2363     1.0  0.35480  0.53667  0.52697  1.0000
  H   H2364     1.0  0.20307  0.77850  0.61665  1.0000
  H   H2365     1.0  0.29663  0.99448  0.73457  1.0000
  C   C1327     1.0  0.22669  0.86470  0.64330  1.0000
  H   H2366     1.0  0.20192  0.79734  0.71610  1.0000
  C   C1328     1.0  0.18825  0.58011  0.65671  1.0000
  H   H2367     1.0  0.30222  0.97291  0.48836  1.0000
  H   H2368     1.0  0.30700  0.89058  0.49015  1.0000
  H   H2369     1.0  0.22016  0.97802  0.50393  1.0000
  H   H2370     1.0  0.38273  0.52962  0.51306  1.0000
  H   H2371     1.0  0.19853  0.63838  0.72635  1.0000
  H   H2372     1.0  0.18695  0.66049  0.74294  1.0000
  C   C1329     1.0  0.36268  0.90827  0.47630  1.0000
  N   N73       1.0  0.29509  0.92216  0.47742  1.0000
  H   H2373     1.0  0.19338  0.70928  0.59206  1.0000
  H   H2374     1.0  0.31065  0.98089  0.74098  1.0000
  C   C1330     1.0  0.38146  0.91452  0.47902  1.0000
  C   C1331     1.0  0.20597  0.72509  0.61326  1.0000
  H   H2375     1.0  0.28631  0.88541  0.48330  1.0000
  C   C1332     1.0  0.36269  0.54212  0.50893  1.0000
  H   H2376     1.0  0.37702  0.76511  0.73945  1.0000
  H   H2377     1.0  0.32060  0.84745  0.94119  1.0000
  H   H2378     1.0  0.36543  0.90726  0.88712  1.0000
  H   H2379     1.0  0.38070  0.75207  0.70479  1.0000
  H   H2380     1.0  0.19208  0.75561  0.62808  1.0000
  H   H2381     1.0  0.20784  0.98990  0.48825  1.0000
  H   H2382     1.0  0.27263  0.50768  0.79921  1.0000
  H   H2383     1.0  0.21711  0.93105  0.47571  1.0000
  C   C1333     1.0  0.19001  0.54027  0.71729  1.0000
  C   C1334     1.0  0.19080  0.71161  0.60992  1.0000
  H   H2384     1.0  0.38335  0.52073  0.72396  1.0000
  H   H2385     1.0  0.18809  0.91569  0.49519  1.0000
  H   H2386     1.0  0.19032  0.95912  0.49300  1.0000
  C   C1335     1.0  0.27693  0.49729  0.79183  1.0000
  H   H2387     1.0  0.26325  0.49917  0.76475  1.0000
  Fe  Fe150     1.0  0.22667  0.49557  0.64985  1.0000
  H   H2388     1.0  0.36008  0.89485  0.47342  1.0000
  S   S300      1.0  0.36881  0.50157  0.47518  1.0000
  C   C1336     1.0  0.32589  0.49705  0.86019  1.0000
  H   H2389     1.0  0.38555  0.73338  0.67402  1.0000
  H   H2390     1.0  0.18720  0.54922  0.70299  1.0000
  Fe  Fe151     1.0  0.40290  0.29860  0.37421  1.0000
  S   S301      1.0  0.41969  0.28350  0.35767  1.0000
  S   S302      1.0  0.41292  0.32416  0.38488  1.0000
  H   H2391     1.0  0.46533  0.18861  0.22910  1.0000
  C   C1337     1.0  0.47446  0.17702  0.20151  1.0000
  H   H2392     1.0  0.40387  0.18090  0.44231  1.0000
  Fe  Fe152     1.0  0.40670  0.28607  0.32772  1.0000
  S   S303      1.0  0.41805  0.29769  0.28890  1.0000
  H   H2393     1.0  0.48109  0.16189  0.12996  1.0000
  H   H2394     1.0  0.48355  0.30344  0.06308  1.0000
  H   H2395     1.0  0.39236  0.40482  0.42659  1.0000
  Fe  Fe153     1.0  0.40943  0.25110  0.01950  1.0000
  S   S304      1.0  0.40448  0.27604  0.00257  1.0000
  S   S305      1.0  0.42734  0.24872  0.04470  1.0000
  H   H2396     1.0  0.54654  0.39134  0.35628  1.0000
  H   H2397     1.0  0.54506  0.13500  0.42532  1.0000
  H   H2398     1.0  0.53583  0.37432  0.05410  1.0000
  Fe  Fe154     1.0  0.45605  0.07570  0.37856  1.0000
  S   S306      1.0  0.45629  0.05016  0.40046  1.0000
  S   S307      1.0  0.43616  0.09047  0.38702  1.0000
  Fe  Fe155     1.0  0.48773  0.07784  0.34217  1.0000
  S   S308      1.0  0.49059  0.05273  0.36158  1.0000
  S   S309      1.0  0.50889  0.09068  0.30947  1.0000
  Fe  Fe156     1.0  0.46217  0.04222  0.36642  1.0000
  S   S310      1.0  0.45667  0.01415  0.36264  1.0000
  Fe  Fe157     1.0  0.48469  0.06219  0.39409  1.0000
  S   S311      1.0  0.49754  0.05474  0.42344  1.0000
  S   S312      1.0  0.45961  0.06682  0.34463  1.0000
  S   S313      1.0  0.48413  0.08839  0.37463  1.0000
  Fe  Fe158     1.0  0.48113  0.28875  0.17957  1.0000
  S   S314      1.0  0.47517  0.31205  0.15975  1.0000
  S   S315      1.0  0.46966  0.27351  0.21701  1.0000
  Fe  Fe159     1.0  0.50905  0.28847  0.13877  1.0000
  S   S316      1.0  0.50542  0.31215  0.11589  1.0000
  S   S317      1.0  0.52994  0.27503  0.12876  1.0000
  Fe  Fe160     1.0  0.50396  0.32346  0.14793  1.0000
  S   S318      1.0  0.51435  0.35250  0.14769  1.0000
  Fe  Fe161     1.0  0.47707  0.29896  0.12933  1.0000
  S   S319      1.0  0.45698  0.29969  0.10714  1.0000
  S   S320      1.0  0.50966  0.30073  0.16963  1.0000
  S   S321      1.0  0.48093  0.27475  0.15028  1.0000
  Fe  Fe162     1.0  0.51758  0.13584  0.17836  1.0000
  S   S322      1.0  0.53821  0.12868  0.15476  1.0000
  S   S323      1.0  0.49662  0.11899  0.20947  1.0000
  Fe  Fe163     1.0  0.52518  0.17245  0.14733  1.0000
  S   S324      1.0  0.54669  0.16807  0.12166  1.0000
  S   S325      1.0  0.50979  0.19259  0.14323  1.0000
  Fe  Fe164     1.0  0.52896  0.14160  0.12466  1.0000
  S   S326      1.0  0.52705  0.13333  0.09018  1.0000
  Fe  Fe165     1.0  0.55455  0.15558  0.15346  1.0000
  C   C1338     1.0  0.54343  0.47764  0.14427  1.0000
  S   S327      1.0  0.50731  0.14675  0.14833  1.0000
  S   S328      1.0  0.53416  0.16185  0.17902  1.0000
  Fe  Fe166     1.0  0.46426  0.07298  0.02673  1.0000
  S   S329      1.0  0.48092  0.08464  0.99073  1.0000
  S   S330      1.0  0.46696  0.08249  0.06019  1.0000
  Fe  Fe167     1.0  0.44201  0.04308  0.00999  1.0000
  H   H2399     1.0  0.42327  0.30973  0.03154  1.0000
  S   S331      1.0  0.42134  0.01727  0.02307  1.0000
  C   C1339     1.0  0.53843  0.47995  0.06831  1.0000
  H   H2400     1.0  0.45735  0.01185  0.42962  1.0000
  H   H2401     1.0  0.43653  0.45131  0.45338  1.0000
  S   S332      1.0  0.46540  0.04565  0.02510  1.0000
  S   S333      1.0  0.43928  0.06953  0.01466  1.0000
  C   C1340     1.0  0.46326  0.13655  0.13981  1.0000
  H   H2402     1.0  0.45783  0.44761  0.41768  1.0000
  S   S334      1.0  0.52407  0.40028  0.44011  1.0000
  H   H2403     1.0  0.51629  0.03926  0.38672  1.0000
  Fe  Fe168     1.0  0.39719  0.25991  0.37474  1.0000
  C   C1341     1.0  0.55355  0.39771  0.36806  1.0000
  C   C1342     1.0  0.41508  0.38659  0.42713  1.0000
  H   H2404     1.0  0.49566  0.32352  0.04256  1.0000
  C   C1343     1.0  0.48469  0.14870  0.04933  1.0000
  C   C1344     1.0  0.54100  0.45959  0.41849  1.0000
  C   C1345     1.0  0.52358  0.45080  0.42699  1.0000
  C   C1346     1.0  0.51836  0.43260  0.43305  1.0000
  C   C1347     1.0  0.53054  0.42304  0.43093  1.0000
  C   C1348     1.0  0.54799  0.43176  0.42216  1.0000
  C   C1349     1.0  0.55323  0.45005  0.41584  1.0000
  H   H2405     1.0  0.51400  0.45796  0.42904  1.0000
  H   H2406     1.0  0.50485  0.42598  0.43940  1.0000
  H   H2407     1.0  0.55748  0.42438  0.42083  1.0000
  H   H2408     1.0  0.56672  0.45675  0.40952  1.0000
  S   S335      1.0  0.54742  0.47899  0.00406  1.0000
  C   C1350     1.0  0.51013  0.11906  0.08238  1.0000
  C   C1351     1.0  0.49512  0.10914  0.09860  1.0000
  C   C1352     1.0  0.48208  0.09809  0.09146  1.0000
  C   C1353     1.0  0.48384  0.09676  0.06807  1.0000
  C   C1354     1.0  0.49874  0.10688  0.05179  1.0000
  C   C1355     1.0  0.51182  0.11787  0.05894  1.0000
  H   H2409     1.0  0.49357  0.10988  0.11668  1.0000
  H   H2410     1.0  0.47057  0.09042  0.10420  1.0000
  H   H2411     1.0  0.50011  0.10632  0.03369  1.0000
  H   H2412     1.0  0.52330  0.12560  0.04619  1.0000
  C   C1356     1.0  0.56026  0.38445  0.17078  1.0000
  C   C1357     1.0  0.55819  0.36653  0.17181  1.0000
  C   C1358     1.0  0.54445  0.35660  0.16453  1.0000
  C   C1359     1.0  0.53231  0.36437  0.15652  1.0000
  C   C1360     1.0  0.53430  0.38225  0.15563  1.0000
  C   C1361     1.0  0.54824  0.39227  0.16246  1.0000
  H   H2413     1.0  0.56737  0.36029  0.17818  1.0000
  H   H2414     1.0  0.54326  0.34293  0.16518  1.0000
  H   H2415     1.0  0.52485  0.38836  0.14985  1.0000
  H   H2416     1.0  0.54949  0.40596  0.16176  1.0000
  C   C1362     1.0  0.52465  0.25216  0.13201  1.0000
  C   C1363     1.0  0.50886  0.24318  0.12894  1.0000
  C   C1364     1.0  0.50469  0.22496  0.13216  1.0000
  C   C1365     1.0  0.51633  0.21555  0.13823  1.0000
  C   C1366     1.0  0.53235  0.22453  0.14070  1.0000
  C   C1367     1.0  0.53650  0.24281  0.13752  1.0000
  H   H2417     1.0  0.49990  0.25033  0.12396  1.0000
  H   H2418     1.0  0.49238  0.21813  0.12989  1.0000
  H   H2419     1.0  0.54145  0.21742  0.14526  1.0000
  H   H2420     1.0  0.54885  0.24972  0.13962  1.0000
  C   C1368     1.0  0.50489  0.09765  0.28175  1.0000
  C   C1369     1.0  0.48875  0.09954  0.27909  1.0000
  C   C1370     1.0  0.48636  0.10600  0.25681  1.0000
  C   C1371     1.0  0.50002  0.11053  0.23706  1.0000
  C   C1372     1.0  0.51589  0.10785  0.23961  1.0000
  C   C1373     1.0  0.51839  0.10164  0.26190  1.0000
  H   H2421     1.0  0.47825  0.09645  0.29423  1.0000
  H   H2422     1.0  0.47394  0.10778  0.25490  1.0000
  H   H2423     1.0  0.52616  0.11053  0.22431  1.0000
  H   H2424     1.0  0.53082  0.09989  0.26379  1.0000
  C   C1374     1.0  0.54472  0.09126  0.43623  1.0000
  C   C1375     1.0  0.53819  0.07420  0.44948  1.0000
  C   C1376     1.0  0.52410  0.06305  0.44476  1.0000
  C   C1377     1.0  0.51617  0.06888  0.42713  1.0000
  C   C1378     1.0  0.52290  0.08583  0.41348  1.0000
  C   C1379     1.0  0.53722  0.09695  0.41795  1.0000
  C   C1380     1.0  0.41283  0.00393  0.00518  1.0000
  H   H2425     1.0  0.56465  0.11738  0.19012  1.0000
  H   H2426     1.0  0.51704  0.09040  0.39961  1.0000
  H   H2427     1.0  0.47967  0.44718  0.40694  1.0000
  S   S336      1.0  0.45514  0.42627  0.46411  1.0000
  C   C1381     1.0  0.55649  0.08925  0.99639  1.0000
  H   H2428     1.0  0.50710  0.36057  0.09882  1.0000
  H   H2429     1.0  0.54851  0.44306  0.98840  1.0000
  H   H2430     1.0  0.45401  0.00396  0.30206  1.0000
  C   C1382     1.0  0.45234  0.21602  0.27033  1.0000
  N   N74       1.0  0.46727  0.30075  0.99977  1.0000
  N   N75       1.0  0.50097  0.00204  0.39052  1.0000
  H   H2431     1.0  0.48940  0.25316  0.19553  1.0000
  H   H2432     1.0  0.43850  0.21155  0.27925  1.0000
  H   H2433     1.0  0.42551  0.02130  0.34985  1.0000
  H   H2434     1.0  0.47275  0.12906  0.14308  1.0000
  H   H2435     1.0  0.46881  0.45898  0.38839  1.0000
  H   H2436     1.0  0.50486  0.14945  0.43027  1.0000
  C   C1383     1.0  0.39744  0.19111  0.43926  1.0000
  H   H2437     1.0  0.56702  0.40564  0.07515  1.0000
  H   H2438     1.0  0.45665  0.19275  0.20360  1.0000
  H   H2439     1.0  0.53075  0.09009  0.07948  1.0000
  C   C1384     1.0  0.43845  0.08780  0.43282  1.0000
  C   C1385     1.0  0.43245  0.09578  0.41446  1.0000
  C   C1386     1.0  0.42306  0.10800  0.41809  1.0000
  C   C1387     1.0  0.42003  0.11254  0.43980  1.0000
  H   H2440     1.0  0.44547  0.07818  0.43028  1.0000
  H   H2441     1.0  0.41831  0.11416  0.40396  1.0000
  H   H2442     1.0  0.41316  0.12229  0.44227  1.0000
  C   C1388     1.0  0.44853  0.28489  0.09064  1.0000
  C   C1389     1.0  0.45520  0.27082  0.08707  1.0000
  C   C1390     1.0  0.44848  0.25988  0.07311  1.0000
  C   C1391     1.0  0.43506  0.26282  0.06246  1.0000
  C   C1392     1.0  0.42834  0.27681  0.06613  1.0000
  C   C1393     1.0  0.43502  0.28772  0.08015  1.0000
  H   H2443     1.0  0.46559  0.26845  0.09495  1.0000
  H   H2444     1.0  0.45376  0.24907  0.07048  1.0000
  H   H2445     1.0  0.41793  0.27917  0.05828  1.0000
  H   H2446     1.0  0.42969  0.29849  0.08288  1.0000
  C   C1394     1.0  0.42296  0.32754  0.40824  1.0000
  C   C1395     1.0  0.43184  0.34457  0.40828  1.0000
  C   C1396     1.0  0.43942  0.34801  0.42689  1.0000
  C   C1397     1.0  0.43795  0.33450  0.44589  1.0000
  C   C1398     1.0  0.42907  0.31748  0.44586  1.0000
  C   C1399     1.0  0.42170  0.31398  0.42708  1.0000
  H   H2447     1.0  0.43290  0.35513  0.39377  1.0000
  H   H2448     1.0  0.44634  0.36110  0.42663  1.0000
  H   H2449     1.0  0.42787  0.30693  0.46047  1.0000
  H   H2450     1.0  0.41485  0.30084  0.42734  1.0000
  H   H2451     1.0  0.56083  0.08738  0.04248  1.0000
  Fe  Fe169     1.0  0.45617  0.07938  0.97849  1.0000
  H   H2452     1.0  0.39924  0.12272  0.97420  1.0000
  H   H2453     1.0  0.41596  0.27353  0.22247  1.0000
  H   H2454     1.0  0.53229  0.02726  0.38721  1.0000
  C   C1400     1.0  0.43203  0.29033  0.26925  1.0000
  C   C1401     1.0  0.43730  0.29949  0.24581  1.0000
  C   C1402     1.0  0.44860  0.29432  0.22952  1.0000
  C   C1403     1.0  0.45489  0.28003  0.23663  1.0000
  C   C1404     1.0  0.44955  0.27080  0.26003  1.0000
  C   C1405     1.0  0.43811  0.27588  0.27629  1.0000
  H   H2455     1.0  0.43261  0.31066  0.24023  1.0000
  H   H2456     1.0  0.45248  0.30143  0.21152  1.0000
  H   H2457     1.0  0.45435  0.25973  0.26566  1.0000
  H   H2458     1.0  0.43414  0.26875  0.29429  1.0000
  C   C1406     1.0  0.53889  0.46641  0.35205  1.0000
  H   H2459     1.0  0.40086  0.40747  0.45148  1.0000
  Fe  Fe170     1.0  0.39047  0.23008  0.98830  1.0000
  H   H2460     1.0  0.40188  0.04424  0.03517  1.0000
  H   H2461     1.0  0.40923  0.22177  0.46086  1.0000
  C   C1407     1.0  0.53331  0.15047  0.24361  1.0000
  C   C1408     1.0  0.48479  0.13846  0.39957  1.0000
  H   H2462     1.0  0.47306  0.15353  0.04912  1.0000
  H   H2463     1.0  0.53660  0.19692  0.09304  1.0000
  H   H2464     1.0  0.55209  0.39253  0.40546  1.0000
  H   H2465     1.0  0.55573  0.01298  0.45544  1.0000
  C   C1409     1.0  0.48320  0.13325  0.37660  1.0000
  H   H2466     1.0  0.47181  0.31793  0.02322  1.0000
  C   C1410     1.0  0.48344  0.09249  0.45246  1.0000
  H   H2467     1.0  0.49068  0.11449  0.41292  1.0000
  H   H2468     1.0  0.40127  0.00225  0.33885  1.0000
  H   H2469     1.0  0.51626  0.23196  0.19466  1.0000
  S   S337      1.0  0.40526  0.23566  0.38987  1.0000
  C   C1411     1.0  0.49391  0.48348  0.39908  1.0000
  H   H2470     1.0  0.47853  0.46718  0.43328  1.0000
  H   H2471     1.0  0.46666  0.20714  0.06347  1.0000
  H   H2472     1.0  0.45074  0.21829  0.20318  1.0000
  H   H2473     1.0  0.55719  0.10341  0.21912  1.0000
  H   H2474     1.0  0.47491  0.14556  0.40358  1.0000
  C   C1412     1.0  0.58119  0.47879  0.27441  1.0000
  S   S338      1.0  0.47366  0.38873  0.44666  1.0000
  H   H2475     1.0  0.42514  0.25310  0.44886  1.0000
  C   C1413     1.0  0.53783  0.41208  0.04124  1.0000
  H   H2476     1.0  0.54994  0.44797  0.10157  1.0000
  H   H2477     1.0  0.41869  0.08134  0.97417  1.0000
  H   H2478     1.0  0.48392  0.18511  0.05512  1.0000
  H   H2479     1.0  0.46014  0.32374  0.30116  1.0000
  H   H2480     1.0  0.49347  0.20743  0.20903  1.0000
  H   H2481     1.0  0.55495  0.06940  0.97551  1.0000
  C   C1414     1.0  0.43584  0.31966  0.02718  1.0000
  H   H2482     1.0  0.49364  0.12723  0.37067  1.0000
  H   H2483     1.0  0.47053  0.12390  0.37858  1.0000
  H   H2484     1.0  0.48429  0.14496  0.36298  1.0000
  C   C1415     1.0  0.56194  0.13862  0.22148  1.0000
  C   C1416     1.0  0.57182  0.43237  0.29836  1.0000
  H   H2485     1.0  0.49667  0.09524  0.44199  1.0000
  H   H2486     1.0  0.45888  0.20629  0.27733  1.0000
  C   C1417     1.0  0.46481  0.00559  0.44070  1.0000
  H   H2487     1.0  0.52161  0.29652  0.21492  1.0000
  Fe  Fe171     1.0  0.48022  0.05717  0.98827  1.0000
  H   H2488     1.0  0.55945  0.42094  0.09994  1.0000
  S   S339      1.0  0.41796  0.24400  0.98538  1.0000
  H   H2489     1.0  0.46878  0.11400  0.42130  1.0000
  H   H2490     1.0  0.56166  0.42944  0.01757  1.0000
  H   H2491     1.0  0.56364  0.39701  0.02785  1.0000
  C   C1418     1.0  0.50952  0.24067  0.20278  1.0000
  H   H2492     1.0  0.53381  0.25819  0.20278  1.0000
  C   C1419     1.0  0.47195  0.15381  0.12211  1.0000
  H   H2493     1.0  0.43586  0.01318  0.30302  1.0000
  H   H2494     1.0  0.49164  0.32761  0.28574  1.0000
  H   H2495     1.0  0.52868  0.42432  0.07751  1.0000
  H   H2496     1.0  0.52407  0.41230  0.04556  1.0000
  H   H2497     1.0  0.57094  0.42212  0.04969  1.0000
  H   H2498     1.0  0.45894  0.13027  0.44757  1.0000
  H   H2499     1.0  0.45597  0.30134  0.29861  1.0000
  H   H2500     1.0  0.39933  0.34946  0.43062  1.0000
  H   H2501     1.0  0.55375  0.17157  0.24673  1.0000
  S   S340      1.0  0.54700  0.48242  0.41266  1.0000
  S   S341      1.0  0.39148  0.30280  0.34300  1.0000
  Fe  Fe172     1.0  0.39312  0.49289  0.47039  1.0000
  H   H2502     1.0  0.47340  0.00994  0.98566  1.0000
  H   H2503     1.0  0.52743  0.35498  0.09410  1.0000
  H   H2504     1.0  0.51590  0.26782  0.20506  1.0000
  C   C1420     1.0  0.56246  0.42075  0.32280  1.0000
  H   H2505     1.0  0.54249  0.10999  0.40725  1.0000
  H   H2506     1.0  0.53997  0.43778  0.33445  1.0000
  H   H2507     1.0  0.46048  0.24097  0.19600  1.0000
  C   C1421     1.0  0.47967  0.17830  0.07388  1.0000
  N   N76       1.0  0.46586  0.04044  0.27744  1.0000
  C   C1422     1.0  0.45601  0.02451  0.27101  1.0000
  C   C1423     1.0  0.47523  0.05452  0.25574  1.0000
  C   C1424     1.0  0.47914  0.03504  0.28957  1.0000
  C   C1425     1.0  0.45447  0.04735  0.29407  1.0000
  C   C1426     1.0  0.43896  0.05222  0.28592  1.0000
  H   H2508     1.0  0.43985  0.29172  0.01427  1.0000
  C   C1427     1.0  0.49217  0.04991  0.29530  1.0000
  C   C1428     1.0  0.46659  0.05577  0.23465  1.0000
  C   C1429     1.0  0.47523  0.07275  0.21648  1.0000
  C   C1430     1.0  0.42743  0.05709  0.30533  1.0000
  N   N77       1.0  0.54410  0.40846  0.06341  1.0000
  C   C1431     1.0  0.50590  0.04303  0.30524  1.0000
  H   H2509     1.0  0.46501  0.01961  0.25924  1.0000
  H   H2510     1.0  0.44659  0.02766  0.26090  1.0000
  H   H2511     1.0  0.47799  0.06755  0.26010  1.0000
  H   H2512     1.0  0.48810  0.05270  0.24866  1.0000
  H   H2513     1.0  0.48664  0.02810  0.27889  1.0000
  H   H2514     1.0  0.47286  0.02569  0.30659  1.0000
  H   H2515     1.0  0.44970  0.03799  0.31136  1.0000
  H   H2516     1.0  0.46204  0.05942  0.29765  1.0000
  H   H2517     1.0  0.43089  0.04130  0.28069  1.0000
  H   H2518     1.0  0.44354  0.06379  0.27113  1.0000
  C   C1432     1.0  0.40225  0.27312  0.22307  1.0000
  H   H2519     1.0  0.58251  0.47745  0.46870  1.0000
  H   H2520     1.0  0.48555  0.05564  0.30856  1.0000
  H   H2521     1.0  0.49891  0.06046  0.27969  1.0000
  H   H2522     1.0  0.46778  0.04482  0.22612  1.0000
  H   H2523     1.0  0.45278  0.05513  0.23974  1.0000
  H   H2524     1.0  0.46982  0.07269  0.20076  1.0000
  H   H2525     1.0  0.47280  0.08395  0.22362  1.0000
  H   H2526     1.0  0.48933  0.07451  0.21119  1.0000
  H   H2527     1.0  0.42219  0.04593  0.32066  1.0000
  H   H2528     1.0  0.43472  0.06843  0.31075  1.0000
  H   H2529     1.0  0.41647  0.06067  0.29899  1.0000
  H   H2530     1.0  0.41615  0.20568  0.40775  1.0000
  H   H2531     1.0  0.49987  0.03266  0.32132  1.0000
  H   H2532     1.0  0.51347  0.03777  0.29227  1.0000
  H   H2533     1.0  0.51481  0.05384  0.30962  1.0000
  H   H2534     1.0  0.43739  0.22053  0.16886  1.0000
  H   H2535     1.0  0.51230  0.34903  0.07662  1.0000
  H   H2536     1.0  0.39542  0.25977  0.22247  1.0000
  H   H2537     1.0  0.48214  0.01685  0.39554  1.0000
  H   H2538     1.0  0.46606  0.21453  0.16543  1.0000
  H   H2539     1.0  0.51509  0.45852  0.07990  1.0000
  C   C1433     1.0  0.58564  0.45514  0.07197  1.0000
  H   H2540     1.0  0.45115  0.23057  0.14038  1.0000
  H   H2541     1.0  0.44569  0.48061  0.46561  1.0000
  C   C1434     1.0  0.51967  0.19081  0.06967  1.0000
  H   H2542     1.0  0.42689  0.41228  0.43352  1.0000
  H   H2543     1.0  0.40422  0.24921  0.44235  1.0000
  S   S342      1.0  0.57765  0.39612  0.18093  1.0000
  C   C1435     1.0  0.54191  0.43510  0.11216  1.0000
  H   H2544     1.0  0.41986  0.37497  0.42550  1.0000
  H   H2545     1.0  0.39861  0.03723  0.99733  1.0000
  H   H2546     1.0  0.53813  0.41571  0.36810  1.0000
  C   C1436     1.0  0.51155  0.01674  0.37035  1.0000
  H   H2547     1.0  0.50359  0.47572  0.39827  1.0000
  H   H2548     1.0  0.41356  0.39210  0.40943  1.0000
  C   C1437     1.0  0.47860  0.19289  0.08746  1.0000
  C   C1438     1.0  0.39204  0.39808  0.44467  1.0000
  C   C1439     1.0  0.50625  0.17586  0.08841  1.0000
  H   H2549     1.0  0.50961  0.11826  0.98318  1.0000
  C   C1440     1.0  0.41112  0.99686  0.34472  1.0000
  H   H2550     1.0  0.54355  0.05586  0.36005  1.0000
  H   H2551     1.0  0.52216  0.21068  0.08998  1.0000
  H   H2552     1.0  0.52859  0.18520  0.05893  1.0000
  H   H2553     1.0  0.52812  0.43490  0.11431  1.0000
  C   C1441     1.0  0.52372  0.03200  0.37671  1.0000
  H   H2554     1.0  0.52629  0.45999  0.34896  1.0000
  H   H2555     1.0  0.45163  0.19181  0.08839  1.0000
  H   H2556     1.0  0.48811  0.21073  0.18175  1.0000
  H   H2557     1.0  0.50201  0.18104  0.10369  1.0000
  H   H2558     1.0  0.52576  0.47699  0.12208  1.0000
  H   H2559     1.0  0.49677  0.24205  0.17466  1.0000
  H   H2560     1.0  0.51332  0.16641  0.09496  1.0000
  C   C1442     1.0  0.39596  0.21840  0.41506  1.0000
  C   C1443     1.0  0.48203  0.12221  0.41942  1.0000
  C   C1444     1.0  0.50930  0.01051  0.46176  1.0000
  H   H2561     1.0  0.51567  0.37983  0.05899  1.0000
  N   N78       1.0  0.56203  0.42969  0.34292  1.0000
  H   H2562     1.0  0.48272  0.13789  0.01896  1.0000
  C   C1445     1.0  0.39914  0.37417  0.46864  1.0000
  C   C1446     1.0  0.55252  0.44352  0.33843  1.0000
  H   H2563     1.0  0.39465  0.05502  0.42219  1.0000
  H   H2564     1.0  0.53491  0.99883  0.37594  1.0000
  H   H2565     1.0  0.51432  0.09161  0.00689  1.0000
  C   C1447     1.0  0.54878  0.45300  0.35844  1.0000
  C   C1448     1.0  0.53048  0.49402  0.07696  1.0000
  H   H2566     1.0  0.44750  0.24372  0.16109  1.0000
  H   H2567     1.0  0.50358  0.13847  0.45892  1.0000
  C   C1449     1.0  0.57547  0.12819  0.21677  1.0000
  C   C1450     1.0  0.49214  0.14755  0.02453  1.0000
  N   N79       1.0  0.48428  0.12565  0.44281  1.0000
  H   H2568     1.0  0.55599  0.42154  0.38059  1.0000
  H   H2569     1.0  0.51814  0.47131  0.05062  1.0000
  H   H2570     1.0  0.50865  0.99801  0.45630  1.0000
  H   H2571     1.0  0.55987  0.45391  0.32283  1.0000
  H   H2572     1.0  0.54710  0.44077  0.03027  1.0000
  H   H2573     1.0  0.53351  0.46953  0.15983  1.0000
  H   H2574     1.0  0.54058  0.21352  0.06681  1.0000
  H   H2575     1.0  0.49186  0.30813  0.97505  1.0000
  H   H2576     1.0  0.50285  0.02222  0.36070  1.0000
  C   C1451     1.0  0.52587  0.37649  0.06751  1.0000
  H   H2577     1.0  0.56086  0.46012  0.36211  1.0000
  H   H2578     1.0  0.54089  0.44368  0.37469  1.0000
  H   H2579     1.0  0.40161  0.28255  0.20752  1.0000
  C   C1452     1.0  0.47048  0.45541  0.40646  1.0000
  H   H2580     1.0  0.54124  0.07060  0.05596  1.0000
  H   H2581     1.0  0.39837  0.34709  0.46711  1.0000
  H   H2582     1.0  0.47702  0.17936  0.18220  1.0000
  H   H2583     1.0  0.55773  0.49180  0.09985  1.0000
  C   C1453     1.0  0.54542  0.38697  0.39283  1.0000
  H   H2584     1.0  0.49944  0.30719  0.01117  1.0000
  H   H2585     1.0  0.45302  0.12851  0.13342  1.0000
  H   H2586     1.0  0.39871  0.07500  0.44876  1.0000
  C   C1454     1.0  0.41111  0.24898  0.45673  1.0000
  C   C1455     1.0  0.40073  0.05188  0.43699  1.0000
  H   H2587     1.0  0.45735  0.13913  0.15658  1.0000
  C   C1456     1.0  0.42995  0.39975  0.43252  1.0000
  H   H2588     1.0  0.48637  0.17560  0.20718  1.0000
  H   H2589     1.0  0.52160  0.39319  0.09035  1.0000
  H   H2590     1.0  0.56411  0.08253  0.00670  1.0000
  H   H2591     1.0  0.51585  0.03377  0.04883  1.0000
  H   H2592     1.0  0.58500  0.44206  0.06980  1.0000
  H   H2593     1.0  0.54454  0.47370  0.08129  1.0000
  S   S343      1.0  0.56200  0.10570  0.44245  1.0000
  H   H2594     1.0  0.52552  0.26401  0.17753  1.0000
  C   C1457     1.0  0.46569  0.31241  0.30112  1.0000
  H   H2595     1.0  0.50340  0.01871  0.45052  1.0000
  H   H2596     1.0  0.50417  0.14331  0.02370  1.0000
  C   C1458     1.0  0.56626  0.14295  0.25976  1.0000
  H   H2597     1.0  0.48085  0.21726  0.24013  1.0000
  H   H2598     1.0  0.54824  0.48578  0.05176  1.0000
  H   H2599     1.0  0.56059  0.14853  0.31708  1.0000
  H   H2600     1.0  0.45008  0.27620  0.97623  1.0000
  H   H2601     1.0  0.58010  0.48858  0.30587  1.0000
  H   H2602     1.0  0.45791  0.22872  0.27426  1.0000
  C   C1459     1.0  0.44626  0.40406  0.41323  1.0000
  H   H2603     1.0  0.51964  0.01202  0.35735  1.0000
  H   H2604     1.0  0.50680  0.23600  0.22193  1.0000
  H   H2605     1.0  0.46634  0.17026  0.07578  1.0000
  C   C1460     1.0  0.54575  0.42055  0.10067  1.0000
  C   C1461     1.0  0.48101  0.15069  0.09886  1.0000
  C   C1462     1.0  0.54793  0.42919  0.02314  1.0000
  H   H2606     1.0  0.53777  0.40805  0.11228  1.0000
  S   S344      1.0  0.58167  0.15525  0.15838  1.0000
  H   H2607     1.0  0.49385  0.03480  0.05151  1.0000
  C   C1463     1.0  0.54201  0.42282  0.07589  1.0000
  H   H2608     1.0  0.54041  0.38606  0.09174  1.0000
  C   C1464     1.0  0.40433  0.20515  0.41963  1.0000
  S   S345      1.0  0.45704  0.05280  0.97303  1.0000
  H   H2609     1.0  0.49489  0.16038  0.01226  1.0000
  C   C1465     1.0  0.53519  0.04505  0.35488  1.0000
  C   C1466     1.0  0.57095  0.47579  0.46122  1.0000
  C   C1467     1.0  0.43795  0.00092  0.35765  1.0000
  H   H2610     1.0  0.55013  0.46895  0.13606  1.0000
  C   C1468     1.0  0.56821  0.39593  0.04424  1.0000
  H   H2611     1.0  0.48304  0.06573  0.46648  1.0000
  C   C1469     1.0  0.52192  0.25881  0.19663  1.0000
  H   H2612     1.0  0.47611  0.18802  0.10654  1.0000
  C   C1470     1.0  0.55216  0.16193  0.23573  1.0000
  H   H2613     1.0  0.52722  0.43183  0.00545  1.0000
  H   H2614     1.0  0.53804  0.40151  0.03180  1.0000
  H   H2615     1.0  0.53653  0.47300  0.36662  1.0000
  H   H2616     1.0  0.47054  0.14276  0.09274  1.0000
  H   H2617     1.0  0.51346  0.19814  0.05780  1.0000
  H   H2618     1.0  0.47737  0.23830  0.23397  1.0000
  H   H2619     1.0  0.45680  0.41325  0.41765  1.0000
  H   H2620     1.0  0.44407  0.41033  0.39637  1.0000
  H   H2621     1.0  0.49699  0.01928  0.41371  1.0000
  C   C1471     1.0  0.44103  0.19289  0.46415  1.0000
  H   H2622     1.0  0.54494  0.43328  0.12965  1.0000
  H   H2623     1.0  0.48771  0.28713  0.03190  1.0000
  H   H2624     1.0  0.50587  0.30642  0.05016  1.0000
  H   H2625     1.0  0.44523  0.29982  0.98415  1.0000
  H   H2626     1.0  0.40756  0.45327  0.47091  1.0000
  H   H2627     1.0  0.56425  0.48590  0.46468  1.0000
  C   C1472     1.0  0.38691  0.03586  0.01087  1.0000
  H   H2628     1.0  0.54130  0.41980  0.99301  1.0000
  H   H2629     1.0  0.43142  0.18831  0.45417  1.0000
  N   N80       1.0  0.39791  0.38165  0.44429  1.0000
  H   H2630     1.0  0.53152  0.13994  0.25920  1.0000
  C   C1473     1.0  0.43519  0.09212  0.45458  1.0000
  H   H2631     1.0  0.55124  0.08728  0.08386  1.0000
  H   H2632     1.0  0.42915  0.21114  0.97666  1.0000
  H   H2633     1.0  0.49391  0.48962  0.44284  1.0000
  H   H2634     1.0  0.43331  0.33254  0.02758  1.0000
  C   C1474     1.0  0.56287  0.40875  0.05856  1.0000
  H   H2635     1.0  0.57523  0.47776  0.44204  1.0000
  C   C1475     1.0  0.55885  0.45758  0.47135  1.0000
  H   H2636     1.0  0.47603  0.25449  0.98212  1.0000
  C   C1476     1.0  0.56848  0.11278  0.20653  1.0000
  C   C1477     1.0  0.55219  0.41679  0.36548  1.0000
  H   H2637     1.0  0.57921  0.12307  0.23299  1.0000
  C   C1478     1.0  0.47685  0.47167  0.41544  1.0000
  Fe  Fe173     1.0  0.57554  0.48146  0.99994  1.0000
  C   C1479     1.0  0.46303  0.27529  0.97834  1.0000
  H   H2638     1.0  0.49773  0.14743  0.39673  1.0000
  C   C1480     1.0  0.47150  0.30427  0.02231  1.0000
  H   H2639     1.0  0.56866  0.40993  0.32539  1.0000
  C   C1481     1.0  0.42619  0.10466  0.45807  1.0000
  H   H2640     1.0  0.54646  0.47645  0.33621  1.0000
  H   H2641     1.0  0.45804  0.33078  0.99834  1.0000
  H   H2642     1.0  0.55978  0.41475  0.27876  1.0000
  H   H2643     1.0  0.54704  0.42354  0.46973  1.0000
  C   C1482     1.0  0.46766  0.28221  0.99951  1.0000
  H   H2644     1.0  0.46431  0.16461  0.20895  1.0000
  H   H2645     1.0  0.54352  0.03872  0.34449  1.0000
  H   H2646     1.0  0.39883  0.36393  0.40458  1.0000
  H   H2647     1.0  0.43295  0.39426  0.44918  1.0000
  N   N81       1.0  0.53816  0.08522  0.01001  1.0000
  C   C1483     1.0  0.39114  0.35649  0.42216  1.0000
  C   C1484     1.0  0.53806  0.09286  0.03122  1.0000
  C   C1485     1.0  0.53077  0.06573  0.01672  1.0000
  H   H2648     1.0  0.56308  0.38239  0.05485  1.0000
  H   H2649     1.0  0.47621  0.23748  0.15696  1.0000
  C   C1486     1.0  0.52472  0.46564  0.06356  1.0000
  C   C1487     1.0  0.51266  0.05907  0.03342  1.0000
  C   C1488     1.0  0.54684  0.08485  0.04972  1.0000
  C   C1489     1.0  0.54460  0.09288  0.07097  1.0000
  H   H2650     1.0  0.46426  0.21210  0.09184  1.0000
  H   H2651     1.0  0.41988  0.36130  0.46136  1.0000
  C   C1490     1.0  0.50687  0.03919  0.03974  1.0000
  H   H2652     1.0  0.51753  0.00362  0.41483  1.0000
  C   C1491     1.0  0.48935  0.00959  0.40602  1.0000
  H   H2653     1.0  0.54459  0.10702  0.02608  1.0000
  H   H2654     1.0  0.52468  0.09197  0.04009  1.0000
  H   H2655     1.0  0.53969  0.05920  0.02451  1.0000
  H   H2656     1.0  0.52954  0.06055  0.00090  1.0000
  H   H2657     1.0  0.52981  0.14430  0.22940  1.0000
  C   C1492     1.0  0.48882  0.30130  0.02685  1.0000
  H   H2658     1.0  0.48958  0.14215  0.10282  1.0000
  C   C1493     1.0  0.49810  0.16059  0.05891  1.0000
  H   H2659     1.0  0.52730  0.05069  0.34397  1.0000
  H   H2660     1.0  0.50782  0.15341  0.06250  1.0000
  H   H2661     1.0  0.50301  0.06379  0.02508  1.0000
  H   H2662     1.0  0.51247  0.06343  0.04996  1.0000
  C   C1494     1.0  0.57981  0.43863  0.34483  1.0000
  H   H2663     1.0  0.55291  0.48708  0.15009  1.0000
  C   C1495     1.0  0.44598  0.32018  0.00289  1.0000
  H   H2664     1.0  0.54735  0.15110  0.28349  1.0000
  H   H2665     1.0  0.53158  0.38662  0.39758  1.0000
  H   H2666     1.0  0.44826  0.20506  0.24106  1.0000
  C   C1496     1.0  0.46440  0.20146  0.08241  1.0000
  C   C1497     1.0  0.57286  0.42148  0.28000  1.0000
  H   H2667     1.0  0.48073  0.13525  0.06036  1.0000
  C   C1498     1.0  0.53039  0.20373  0.08061  1.0000
  H   H2668     1.0  0.56481  0.44205  0.29286  1.0000
  H   H2669     1.0  0.50622  0.03401  0.02385  1.0000
  C   C1499     1.0  0.47337  0.22494  0.23082  1.0000
  H   H2670     1.0  0.46165  0.16027  0.11926  1.0000
  H   H2671     1.0  0.49086  0.20328  0.08220  1.0000
  N   N82       1.0  0.49107  0.16667  0.08020  1.0000
  N   N83       1.0  0.56583  0.15212  0.23562  1.0000
  S   S346      1.0  0.57472  0.44550  0.18275  1.0000
  H   H2672     1.0  0.55073  0.43557  0.06569  1.0000
  C   C1500     1.0  0.51770  0.35926  0.08540  1.0000
  H   H2673     1.0  0.53622  0.15302  0.41700  1.0000
  H   H2674     1.0  0.48706  0.30521  0.28326  1.0000
  H   H2675     1.0  0.42653  0.99793  0.27344  1.0000
  H   H2676     1.0  0.53439  0.30514  0.23398  1.0000
  H   H2677     1.0  0.45037  0.39212  0.41131  1.0000
  H   H2678     1.0  0.44687  0.22724  0.23827  1.0000
  H   H2679     1.0  0.55702  0.12840  0.30752  1.0000
  H   H2680     1.0  0.50511  0.17196  0.04432  1.0000
  H   H2681     1.0  0.39731  0.03754  0.44365  1.0000
  N   N84       1.0  0.49415  0.33056  0.23758  1.0000
  C   C1501     1.0  0.48786  0.33341  0.21535  1.0000
  C   C1502     1.0  0.50481  0.31759  0.23659  1.0000
  C   C1503     1.0  0.47855  0.32234  0.25748  1.0000
  C   C1504     1.0  0.50413  0.34728  0.24215  1.0000
  C   C1505     1.0  0.51460  0.36197  0.22057  1.0000
  C   C1506     1.0  0.47417  0.34394  0.21527  1.0000
  C   C1507     1.0  0.48213  0.31698  0.28198  1.0000
  C   C1508     1.0  0.52154  0.32311  0.21729  1.0000
  C   C1509     1.0  0.53038  0.30835  0.21733  1.0000
  C   C1510     1.0  0.52679  0.37635  0.22760  1.0000
  C   C1511     1.0  0.47313  0.35170  0.19056  1.0000
  H   H2682     1.0  0.48212  0.32066  0.21153  1.0000
  H   H2683     1.0  0.49867  0.33988  0.20006  1.0000
  H   H2684     1.0  0.50901  0.31459  0.25313  1.0000
  H   H2685     1.0  0.49684  0.30500  0.23466  1.0000
  H   H2686     1.0  0.47059  0.31045  0.25397  1.0000
  H   H2687     1.0  0.47012  0.33131  0.25909  1.0000
  H   H2688     1.0  0.49534  0.35329  0.25249  1.0000
  H   H2689     1.0  0.51312  0.34440  0.25330  1.0000
  H   H2690     1.0  0.50587  0.36804  0.21178  1.0000
  H   H2691     1.0  0.52238  0.35714  0.20747  1.0000
  H   H2692     1.0  0.46130  0.33523  0.22447  1.0000
  H   H2693     1.0  0.47692  0.35471  0.22435  1.0000
  C   C1512     1.0  0.44923  0.23077  0.15916  1.0000
  H   H2694     1.0  0.51898  0.32663  0.19978  1.0000
  H   H2695     1.0  0.53081  0.33426  0.22039  1.0000
  C   C1513     1.0  0.53319  0.39128  0.07925  1.0000
  H   H2696     1.0  0.54199  0.31241  0.20280  1.0000
  H   H2697     1.0  0.51959  0.38178  0.24074  1.0000
  H   H2698     1.0  0.53675  0.37124  0.23478  1.0000
  H   H2699     1.0  0.53343  0.38705  0.21208  1.0000
  H   H2700     1.0  0.46995  0.34127  0.18105  1.0000
  H   H2701     1.0  0.46293  0.35873  0.19123  1.0000
  H   H2702     1.0  0.48555  0.36106  0.18085  1.0000
  H   H2703     1.0  0.46858  0.30853  0.31842  1.0000
  N   N85       1.0  0.47765  0.22541  0.20494  1.0000
  C   C1514     1.0  0.46290  0.22820  0.19407  1.0000
  C   C1515     1.0  0.49293  0.24086  0.19367  1.0000
  C   C1516     1.0  0.48274  0.20925  0.20066  1.0000
  C   C1517     1.0  0.46848  0.19197  0.20977  1.0000
  C   C1518     1.0  0.46485  0.22748  0.16804  1.0000
  C   C1519     1.0  0.45423  0.21792  0.24408  1.0000
  H   H2704     1.0  0.56894  0.48084  0.27206  1.0000
  H   H2705     1.0  0.55736  0.12959  0.26483  1.0000
  H   H2706     1.0  0.57860  0.10594  0.20251  1.0000
  C   C1520     1.0  0.51713  0.12825  0.43331  1.0000
  H   H2707     1.0  0.54643  0.37339  0.39410  1.0000
  H   H2708     1.0  0.51861  0.48706  0.09041  1.0000
  H   H2709     1.0  0.51679  0.12482  0.41628  1.0000
  H   H2710     1.0  0.44311  0.31671  0.04062  1.0000
  Fe  Fe174     1.0  0.49693  0.39094  0.46185  1.0000
  C   C1521     1.0  0.56457  0.14227  0.30269  1.0000
  H   H2711     1.0  0.48587  0.32582  0.98450  1.0000
  H   H2712     1.0  0.55017  0.10723  0.06588  1.0000
  C   C1522     1.0  0.39504  0.06085  0.45630  1.0000
  H   H2713     1.0  0.54973  0.12877  0.23048  1.0000
  C   C1523     1.0  0.54073  0.43097  0.00125  1.0000
  H   H2714     1.0  0.43820  0.32398  0.99044  1.0000
  H   H2715     1.0  0.40767  0.25838  0.46696  1.0000
  H   H2716     1.0  0.52301  0.01740  0.45938  1.0000
  C   C1524     1.0  0.44920  0.30229  0.00025  1.0000
  H   H2717     1.0  0.45377  0.19840  0.45184  1.0000
  C   C1525     1.0  0.50225  0.13620  0.44152  1.0000
  H   H2718     1.0  0.47451  0.08812  0.44147  1.0000
  H   H2719     1.0  0.53088  0.45625  0.05632  1.0000
  S   S347      1.0  0.58350  0.46279  0.02633  1.0000
  H   H2720     1.0  0.53578  0.14473  0.44737  1.0000
  C   C1526     1.0  0.42484  0.00768  0.35091  1.0000
  C   C1527     1.0  0.48056  0.31341  0.97954  1.0000
  H   H2721     1.0  0.56700  0.39695  0.36370  1.0000
  C   C1528     1.0  0.52060  0.16122  0.24907  1.0000
  H   H2722     1.0  0.43963  0.08567  0.46880  1.0000
  C   C1529     1.0  0.47196  0.13616  0.45012  1.0000
  H   H2723     1.0  0.40203  0.29106  0.24519  1.0000
  H   H2724     1.0  0.45361  0.24809  0.99730  1.0000
  H   H2725     1.0  0.47293  0.01571  0.44728  1.0000
  H   H2726     1.0  0.47617  0.14957  0.43888  1.0000
  C   C1530     1.0  0.47969  0.10867  0.46088  1.0000
  H   H2727     1.0  0.48070  0.28049  0.99984  1.0000
  H   H2728     1.0  0.51659  0.11652  0.44652  1.0000
  C   C1531     1.0  0.44561  0.00907  0.29157  1.0000
  C   C1532     1.0  0.53495  0.48713  0.12713  1.0000
  C   C1533     1.0  0.52719  0.09308  0.99577  1.0000
  C   C1534     1.0  0.49373  0.30919  0.04686  1.0000
  H   H2729     1.0  0.39710  0.06172  0.01652  1.0000
  S   S348      1.0  0.58144  0.46543  0.23536  1.0000
  H   H2730     1.0  0.45889  0.27322  0.01559  1.0000
  H   H2731     1.0  0.46124  0.29596  0.03745  1.0000
  H   H2732     1.0  0.46661  0.47865  0.41644  1.0000
  C   C1535     1.0  0.53455  0.14110  0.43060  1.0000
  H   H2733     1.0  0.50729  0.15262  0.25380  1.0000
  H   H2734     1.0  0.54907  0.41454  0.32190  1.0000
  C   C1536     1.0  0.58515  0.46805  0.05322  1.0000
  H   H2735     1.0  0.54407  0.06957  0.46331  1.0000
  H   H2736     1.0  0.52176  0.17163  0.23357  1.0000
  C   C1537     1.0  0.46305  0.25613  0.98121  1.0000
  H   H2737     1.0  0.57970  0.43010  0.26271  1.0000
  C   C1538     1.0  0.41586  0.00987  0.98103  1.0000
  H   H2738     1.0  0.53665  0.12070  0.99667  1.0000
  C   C1539     1.0  0.39441  0.27784  0.24544  1.0000
  H   H2739     1.0  0.41489  0.05653  0.43034  1.0000
  H   H2740     1.0  0.52292  0.16713  0.26396  1.0000
  C   C1540     1.0  0.39183  0.04806  0.02675  1.0000
  H   H2741     1.0  0.51950  0.04982  0.45467  1.0000
  H   H2742     1.0  0.49812  0.99585  0.34388  1.0000
  H   H2743     1.0  0.57913  0.44440  0.36038  1.0000
  H   H2744     1.0  0.39602  0.26845  0.26027  1.0000
  H   H2745     1.0  0.49152  0.48564  0.38133  1.0000
  H   H2746     1.0  0.58011  0.41172  0.28422  1.0000
  S   S349      1.0  0.44656  0.33830  0.47028  1.0000
  C   C1541     1.0  0.47591  0.99636  0.42675  1.0000
  H   H2747     1.0  0.56293  0.10339  0.99329  1.0000
  C   C1542     1.0  0.56125  0.15168  0.28014  1.0000
  H   H2748     1.0  0.56597  0.44816  0.46628  1.0000
  H   H2749     1.0  0.58515  0.43925  0.29822  1.0000
  H   H2750     1.0  0.55992  0.14469  0.20433  1.0000
  C   C1543     1.0  0.42794  0.44052  0.46670  1.0000
  H   H2751     1.0  0.40255  0.05854  0.46967  1.0000
  H   H2752     1.0  0.46566  0.10460  0.46882  1.0000
  H   H2753     1.0  0.43645  0.21805  0.46233  1.0000
  H   H2754     1.0  0.52756  0.49445  0.45947  1.0000
  C   C1544     1.0  0.53440  0.11270  0.98375  1.0000
  H   H2755     1.0  0.51318  0.48586  0.42852  1.0000
  C   C1545     1.0  0.55891  0.08379  0.97272  1.0000
  H   H2756     1.0  0.46551  0.16433  0.46924  1.0000
  C   C1546     1.0  0.58304  0.16456  0.22315  1.0000
  H   H2757     1.0  0.52449  0.08580  0.98218  1.0000
  H   H2758     1.0  0.54904  0.39369  0.46941  1.0000
  H   H2759     1.0  0.54774  0.45676  0.46311  1.0000
  S   S350      1.0  0.50252  0.04676  0.97532  1.0000
  H   H2760     1.0  0.55357  0.16987  0.21790  1.0000
  H   H2761     1.0  0.56844  0.16552  0.27652  1.0000
  H   H2762     1.0  0.38828  0.32392  0.29315  1.0000
  H   H2763     1.0  0.45566  0.99597  0.45580  1.0000
  H   H2764     1.0  0.54502  0.99633  0.41283  1.0000
  H   H2765     1.0  0.38757  0.29824  0.27435  1.0000
  H   H2766     1.0  0.42398  0.02280  0.97276  1.0000
  H   H2767     1.0  0.57846  0.14295  0.30073  1.0000
  H   H2768     1.0  0.58023  0.18719  0.23814  1.0000
  H   H2769     1.0  0.57926  0.14092  0.25983  1.0000
  H   H2770     1.0  0.58586  0.44992  0.32985  1.0000
  H   H2771     1.0  0.58263  0.17023  0.20492  1.0000
  H   H2772     1.0  0.52787  0.49493  0.13658  1.0000
  Fe  Fe175     1.0  0.57345  0.09454  0.47164  1.0000
  C   C1547     1.0  0.40655  0.35816  0.47187  1.0000
  H   H2773     1.0  0.48723  0.30781  0.78133  1.0000
  S   S351      1.0  0.43011  0.28421  0.93565  1.0000
  S   S352      1.0  0.40892  0.15209  0.50212  1.0000
  Fe  Fe176     1.0  0.40386  0.12408  0.49887  1.0000
  C   C1548     1.0  0.46803  0.45396  0.92129  1.0000
  S   S353      1.0  0.40132  0.15152  0.57190  1.0000
  H   H2774     1.0  0.53703  0.15975  0.58746  1.0000
  H   H2775     1.0  0.48557  0.45357  0.87711  1.0000
  H   H2776     1.0  0.49738  0.34058  0.94103  1.0000
  H   H2777     1.0  0.56207  0.36017  0.73689  1.0000
  H   H2778     1.0  0.51265  0.42539  0.51063  1.0000
  H   H2779     1.0  0.44223  0.21808  0.94737  1.0000
  C   C1549     1.0  0.54521  0.42156  0.50744  1.0000
  H   H2780     1.0  0.41309  0.46797  0.53666  1.0000
  H   H2781     1.0  0.39500  0.18863  0.55221  1.0000
  C   C1550     1.0  0.53428  0.43721  0.53559  1.0000
  S   S354      1.0  0.55827  0.08571  0.50861  1.0000
  H   H2782     1.0  0.51142  0.03083  0.85602  1.0000
  H   H2783     1.0  0.39831  0.32658  0.93674  1.0000
  H   H2784     1.0  0.43685  0.21950  0.51707  1.0000
  H   H2785     1.0  0.39516  0.12193  0.75176  1.0000
  C   C1551     1.0  0.40593  0.35328  0.91665  1.0000
  H   H2786     1.0  0.46293  0.40995  0.53731  1.0000
  S   S355      1.0  0.56360  0.09563  0.89421  1.0000
  H   H2787     1.0  0.41090  0.38474  0.94203  1.0000
  H   H2788     1.0  0.53846  0.41070  0.52269  1.0000
  S   S356      1.0  0.38860  0.47949  0.50794  1.0000
  Fe  Fe177     1.0  0.47727  0.38181  0.88404  1.0000
  S   S357      1.0  0.47162  0.38392  0.84842  1.0000
  S   S358      1.0  0.45813  0.36618  0.91734  1.0000
  Fe  Fe178     1.0  0.51169  0.40939  0.86637  1.0000
  S   S359      1.0  0.50879  0.41358  0.82938  1.0000
  S   S360      1.0  0.53598  0.42533  0.87314  1.0000
  Fe  Fe179     1.0  0.48145  0.41283  0.84464  1.0000
  S   S361      1.0  0.46954  0.43298  0.82756  1.0000
  Fe  Fe180     1.0  0.49945  0.38455  0.83628  1.0000
  S   S362      1.0  0.51051  0.36919  0.81203  1.0000
  S   S363      1.0  0.48506  0.41076  0.88108  1.0000
  S   S364      1.0  0.50439  0.38022  0.87245  1.0000
  Fe  Fe181     1.0  0.54603  0.34978  0.66228  1.0000
  S   S365      1.0  0.52466  0.36080  0.65332  1.0000
  S   S366      1.0  0.54584  0.32118  0.66690  1.0000
  Fe  Fe182     1.0  0.56931  0.38609  0.66159  1.0000
  S   S367      1.0  0.54960  0.39973  0.65192  1.0000
  Fe  Fe183     1.0  0.53056  0.37744  0.67885  1.0000
  S   S368      1.0  0.50942  0.38241  0.70468  1.0000
  Fe  Fe184     1.0  0.54539  0.38181  0.62731  1.0000
  S   S369      1.0  0.54488  0.38860  0.58895  1.0000
  S   S370      1.0  0.55041  0.36479  0.68985  1.0000
  S   S371      1.0  0.56669  0.36989  0.63487  1.0000
  Fe  Fe185     1.0  0.46943  0.20247  0.63369  1.0000
  S   S372      1.0  0.46724  0.18215  0.66573  1.0000
  S   S373      1.0  0.46728  0.19602  0.59829  1.0000
  Fe  Fe186     1.0  0.48204  0.23245  0.65788  1.0000
  S   S374      1.0  0.48126  0.21385  0.69112  1.0000
  S   S375      1.0  0.48508  0.26167  0.65419  1.0000
  Fe  Fe187     1.0  0.49290  0.19857  0.66750  1.0000
  S   S376      1.0  0.51173  0.18236  0.67395  1.0000
  Fe  Fe188     1.0  0.45591  0.19906  0.68642  1.0000
  S   S377      1.0  0.43140  0.19071  0.71494  1.0000
  S   S378      1.0  0.49569  0.21830  0.63458  1.0000
  S   S379      1.0  0.45602  0.21829  0.65415  1.0000
  C   C1552     1.0  0.39067  0.12908  0.76470  1.0000
  S   S380      1.0  0.45116  0.37766  0.50116  1.0000
  C   C1553     1.0  0.51476  0.02458  0.87209  1.0000
  C   C1554     1.0  0.52181  0.11928  0.97079  1.0000
  Fe  Fe189     1.0  0.47640  0.38064  0.51210  1.0000
  S   S381      1.0  0.47672  0.37840  0.55039  1.0000
  C   C1555     1.0  0.52557  0.38468  0.57914  1.0000
  C   C1556     1.0  0.50997  0.38491  0.59293  1.0000
  C   C1557     1.0  0.49514  0.38310  0.58379  1.0000
  C   C1558     1.0  0.49575  0.38097  0.56091  1.0000
  C   C1559     1.0  0.51132  0.38058  0.54721  1.0000
  C   C1560     1.0  0.52612  0.38231  0.55640  1.0000
  H   H2789     1.0  0.50939  0.38677  0.61047  1.0000
  H   H2790     1.0  0.48313  0.38336  0.59453  1.0000
  H   H2791     1.0  0.51192  0.37888  0.52961  1.0000
  H   H2792     1.0  0.53813  0.38198  0.54575  1.0000
  C   C1561     1.0  0.52866  0.30453  0.66420  1.0000
  C   C1562     1.0  0.53095  0.28782  0.66415  1.0000
  C   C1563     1.0  0.51763  0.27434  0.66168  1.0000
  C   C1564     1.0  0.50181  0.27744  0.65954  1.0000
  C   C1565     1.0  0.49935  0.29397  0.66039  1.0000
  C   C1566     1.0  0.51276  0.30754  0.66235  1.0000
  H   H2793     1.0  0.54319  0.28535  0.66572  1.0000
  H   H2794     1.0  0.51966  0.26164  0.66113  1.0000
  H   H2795     1.0  0.48698  0.29628  0.65937  1.0000
  H   H2796     1.0  0.51083  0.32031  0.66242  1.0000
  C   C1567     1.0  0.51031  0.37349  0.78221  1.0000
  C   C1568     1.0  0.52026  0.36613  0.76726  1.0000
  C   C1569     1.0  0.52011  0.36884  0.74350  1.0000
  C   C1570     1.0  0.50984  0.37876  0.73450  1.0000
  C   C1571     1.0  0.49978  0.38603  0.74949  1.0000
  C   C1572     1.0  0.50014  0.38357  0.77325  1.0000
  H   H2797     1.0  0.52810  0.35827  0.77413  1.0000
  H   H2798     1.0  0.52787  0.36315  0.73225  1.0000
  H   H2799     1.0  0.49180  0.39375  0.74267  1.0000
  H   H2800     1.0  0.49236  0.38923  0.78468  1.0000
  C   C1573     1.0  0.53133  0.45161  0.93478  1.0000
  C   C1574     1.0  0.54701  0.45551  0.91861  1.0000
  C   C1575     1.0  0.54832  0.44734  0.89975  1.0000
  C   C1576     1.0  0.53399  0.43529  0.89700  1.0000
  C   C1577     1.0  0.51836  0.43139  0.91325  1.0000
  C   C1578     1.0  0.51704  0.43954  0.93207  1.0000
  H   H2801     1.0  0.55805  0.46489  0.92052  1.0000
  H   H2802     1.0  0.56045  0.45038  0.88722  1.0000
  H   H2803     1.0  0.50734  0.42194  0.91151  1.0000
  H   H2804     1.0  0.50492  0.43641  0.94463  1.0000
  C   C1579     1.0  0.54638  0.08207  0.91644  1.0000
  C   C1580     1.0  0.54721  0.06561  0.92727  1.0000
  C   C1581     1.0  0.53372  0.05502  0.94546  1.0000
  C   C1582     1.0  0.51905  0.06058  0.95250  1.0000
  C   C1583     1.0  0.51793  0.07689  0.94138  1.0000
  C   C1584     1.0  0.53171  0.08774  0.92355  1.0000
  H   H2805     1.0  0.55838  0.06109  0.92195  1.0000
  H   H2806     1.0  0.50655  0.08121  0.94664  1.0000
  H   H2807     1.0  0.53097  0.10046  0.91515  1.0000
  H   H2808     1.0  0.39158  0.16061  0.73897  1.0000
  C   C1585     1.0  0.57068  0.19921  0.65141  1.0000
  C   C1586     1.0  0.56127  0.21167  0.64826  1.0000
  C   C1587     1.0  0.54317  0.20677  0.65508  1.0000
  C   C1588     1.0  0.53438  0.18936  0.66505  1.0000
  C   C1589     1.0  0.54378  0.17691  0.66798  1.0000
  C   C1590     1.0  0.56183  0.18178  0.66111  1.0000
  H   H2809     1.0  0.56801  0.22519  0.64077  1.0000
  H   H2810     1.0  0.53604  0.21647  0.65286  1.0000
  H   H2811     1.0  0.53705  0.16338  0.67537  1.0000
  H   H2812     1.0  0.56890  0.17205  0.66325  1.0000
  Fe  Fe190     1.0  0.58246  0.08149  0.87984  1.0000
  C   C1591     1.0  0.43213  0.45351  0.87457  1.0000
  C   C1592     1.0  0.44035  0.44157  0.88431  1.0000
  C   C1593     1.0  0.45230  0.43574  0.86999  1.0000
  C   C1594     1.0  0.45574  0.44138  0.84581  1.0000
  C   C1595     1.0  0.44765  0.45350  0.83603  1.0000
  C   C1596     1.0  0.43594  0.45966  0.85040  1.0000
  H   H2813     1.0  0.43739  0.43675  0.90299  1.0000
  H   H2814     1.0  0.45856  0.42658  0.87768  1.0000
  H   H2815     1.0  0.45028  0.45797  0.81730  1.0000
  H   H2816     1.0  0.42961  0.46886  0.84273  1.0000
  H   H2817     1.0  0.44145  0.38835  0.94281  1.0000
  C   C1597     1.0  0.42242  0.41206  0.49193  1.0000
  H   H2818     1.0  0.55911  0.42398  0.50764  1.0000
  C   C1598     1.0  0.56797  0.39578  0.73356  1.0000
  H   H2819     1.0  0.42671  0.40078  0.49825  1.0000
  H   H2820     1.0  0.44188  0.99803  0.90973  1.0000
  H   H2821     1.0  0.48332  0.03937  0.54113  1.0000
  C   C1599     1.0  0.44500  0.00721  0.51210  1.0000
  C   C1600     1.0  0.49978  0.00677  0.48718  1.0000
  N   N86       1.0  0.41249  0.21174  0.50748  1.0000
  H   H2822     1.0  0.56630  0.10587  0.72369  1.0000
  C   C1601     1.0  0.42735  0.19084  0.95728  1.0000
  C   C1602     1.0  0.56713  0.40826  0.78531  1.0000
  H   H2823     1.0  0.50306  0.00335  0.84219  1.0000
  H   H2824     1.0  0.49856  0.32029  0.93273  1.0000
  C   C1603     1.0  0.40173  0.09575  0.92857  1.0000
  C   C1604     1.0  0.41703  0.10526  0.91263  1.0000
  C   C1605     1.0  0.43288  0.10619  0.91892  1.0000
  C   C1606     1.0  0.43357  0.09746  0.94105  1.0000
  H   H2825     1.0  0.44713  0.49110  0.88135  1.0000
  C   C1607     1.0  0.40244  0.08723  0.95080  1.0000
  H   H2826     1.0  0.41666  0.11182  0.89541  1.0000
  H   H2827     1.0  0.44466  0.11359  0.90651  1.0000
  C   C1608     1.0  0.42554  0.15630  0.78709  1.0000
  C   C1609     1.0  0.43904  0.15684  0.76861  1.0000
  C   C1610     1.0  0.44137  0.16778  0.74654  1.0000
  C   C1611     1.0  0.43012  0.17815  0.74283  1.0000
  C   C1612     1.0  0.41684  0.17784  0.76145  1.0000
  C   C1613     1.0  0.41468  0.16711  0.78356  1.0000
  H   H2828     1.0  0.44756  0.14858  0.77127  1.0000
  H   H2829     1.0  0.45163  0.16792  0.73230  1.0000
  H   H2830     1.0  0.40820  0.18596  0.75874  1.0000
  H   H2831     1.0  0.40453  0.16711  0.79782  1.0000
  H   H2832     1.0  0.52572  0.19420  0.61993  1.0000
  C   C1614     1.0  0.41993  0.16400  0.57854  1.0000
  C   C1615     1.0  0.43569  0.17079  0.56229  1.0000
  C   C1616     1.0  0.45002  0.18059  0.56859  1.0000
  C   C1617     1.0  0.44880  0.18370  0.59117  1.0000
  C   C1618     1.0  0.43303  0.17699  0.60733  1.0000
  C   C1619     1.0  0.41871  0.16726  0.60101  1.0000
  H   H2833     1.0  0.43685  0.16843  0.54494  1.0000
  H   H2834     1.0  0.46214  0.18575  0.55593  1.0000
  H   H2835     1.0  0.43185  0.17929  0.62472  1.0000
  H   H2836     1.0  0.40660  0.16214  0.61371  1.0000
  C   C1620     1.0  0.43690  0.30711  0.93018  1.0000
  C   C1621     1.0  0.43083  0.31623  0.94616  1.0000
  C   C1622     1.0  0.43723  0.33442  0.94178  1.0000
  C   C1623     1.0  0.44964  0.34357  0.92140  1.0000
  C   C1624     1.0  0.45533  0.33452  0.90511  1.0000
  C   C1625     1.0  0.44903  0.31632  0.90957  1.0000
  C   C1626     1.0  0.46943  0.13824  0.47574  1.0000
  C   C1627     1.0  0.44085  0.46174  0.55389  1.0000
  H   H2837     1.0  0.46487  0.34147  0.88933  1.0000
  H   H2838     1.0  0.45373  0.30932  0.89711  1.0000
  H   H2839     1.0  0.38890  0.12570  0.80214  1.0000
  H   H2840     1.0  0.41248  0.07227  0.50555  1.0000
  H   H2841     1.0  0.46765  0.14822  0.64963  1.0000
  H   H2842     1.0  0.39917  0.09957  0.80864  1.0000
  C   C1628     1.0  0.55021  0.15166  0.76547  1.0000
  H   H2843     1.0  0.48542  0.33298  0.92080  1.0000
  C   C1629     1.0  0.44277  0.48176  0.50217  1.0000
  S   S382      1.0  0.58369  0.07098  0.47192  1.0000
  H   H2844     1.0  0.44221  0.22638  0.55533  1.0000
  C   C1630     1.0  0.39227  0.33735  0.93220  1.0000
  H   H2845     1.0  0.50612  0.26714  0.60750  1.0000
  H   H2846     1.0  0.40414  0.21833  0.55286  1.0000
  H   H2847     1.0  0.41011  0.41247  0.88527  1.0000
  C   C1631     1.0  0.50874  0.15882  0.56888  1.0000
  H   H2848     1.0  0.45690  0.46315  0.51000  1.0000
  H   H2849     1.0  0.40195  0.16325  0.95273  1.0000
  H   H2850     1.0  0.41028  0.23819  0.50356  1.0000
  H   H2851     1.0  0.42459  0.22914  0.57583  1.0000
  H   H2852     1.0  0.43878  0.49401  0.93608  1.0000
  H   H2853     1.0  0.49770  0.47573  0.84074  1.0000
  H   H2854     1.0  0.50560  0.16995  0.53444  1.0000
  S   S383      1.0  0.39282  0.11348  0.53725  1.0000
  H   H2855     1.0  0.49296  0.02298  0.56773  1.0000
  C   C1632     1.0  0.46818  0.04693  0.91177  1.0000
  C   C1633     1.0  0.56068  0.99749  0.83514  1.0000
  H   H2856     1.0  0.40680  0.44332  0.57594  1.0000
  H   H2857     1.0  0.50203  0.34351  0.61996  1.0000
  H   H2858     1.0  0.48908  0.43996  0.50285  1.0000
  S   S384      1.0  0.45362  0.09938  0.94862  1.0000
  H   H2859     1.0  0.54512  0.39034  0.81090  1.0000
  H   H2860     1.0  0.51998  0.05308  0.50886  1.0000
  H   H2861     1.0  0.47495  0.35125  0.62068  1.0000
  H   H2862     1.0  0.42523  0.42825  0.52903  1.0000
  H   H2863     1.0  0.49940  0.06815  0.54477  1.0000
  N   N87       1.0  0.51082  0.03394  0.89125  1.0000
  H   H2864     1.0  0.46900  0.32063  0.75470  1.0000
  H   H2865     1.0  0.50946  0.06466  0.86155  1.0000
  C   C1634     1.0  0.52924  0.00740  0.93721  1.0000
  N   N88       1.0  0.49004  0.31562  0.73185  1.0000
  C   C1635     1.0  0.48384  0.29612  0.74107  1.0000
  C   C1636     1.0  0.48335  0.32456  0.75025  1.0000
  C   C1637     1.0  0.48208  0.32005  0.71141  1.0000
  C   C1638     1.0  0.50941  0.32208  0.72382  1.0000
  C   C1639     1.0  0.52014  0.31213  0.73741  1.0000
  C   C1640     1.0  0.48729  0.28510  0.72283  1.0000
  C   C1641     1.0  0.48510  0.33970  0.70072  1.0000
  C   C1642     1.0  0.53872  0.32288  0.73302  1.0000
  C   C1643     1.0  0.48532  0.26613  0.73440  1.0000
  C   C1644     1.0  0.47964  0.34254  0.67753  1.0000
  H   H2866     1.0  0.46970  0.29221  0.74852  1.0000
  H   H2867     1.0  0.48943  0.29177  0.75588  1.0000
  H   H2868     1.0  0.48724  0.33894  0.74353  1.0000
  H   H2869     1.0  0.46790  0.31415  0.71637  1.0000
  H   H2870     1.0  0.48710  0.31431  0.69697  1.0000
  H   H2871     1.0  0.51375  0.32167  0.70525  1.0000
  H   H2872     1.0  0.51362  0.33611  0.72399  1.0000
  H   H2873     1.0  0.52036  0.29983  0.73172  1.0000
  H   H2874     1.0  0.51492  0.30864  0.75643  1.0000
  H   H2875     1.0  0.47791  0.28513  0.71153  1.0000
  H   H2876     1.0  0.50038  0.29039  0.71146  1.0000
  H   H2877     1.0  0.49884  0.34668  0.69762  1.0000
  H   H2878     1.0  0.47739  0.34572  0.71248  1.0000
  H   H2879     1.0  0.50350  0.32833  0.76980  1.0000
  H   H2880     1.0  0.53917  0.33493  0.73956  1.0000
  H   H2881     1.0  0.54615  0.31521  0.74232  1.0000
  H   H2882     1.0  0.54487  0.32635  0.71415  1.0000
  H   H2883     1.0  0.48730  0.25864  0.72074  1.0000
  H   H2884     1.0  0.49503  0.26519  0.74499  1.0000
  H   H2885     1.0  0.47221  0.26020  0.74565  1.0000
  H   H2886     1.0  0.46573  0.33624  0.68004  1.0000
  H   H2887     1.0  0.48201  0.35672  0.67033  1.0000
  H   H2888     1.0  0.48718  0.33713  0.66474  1.0000
  H   H2889     1.0  0.46008  0.43901  0.54270  1.0000
  H   H2890     1.0  0.44111  0.40404  0.53413  1.0000
  C   C1645     1.0  0.41830  0.08788  0.95695  1.0000
  C   C1646     1.0  0.50143  0.02385  0.49598  1.0000
  C   C1647     1.0  0.39795  0.36861  0.90966  1.0000
  S   S385      1.0  0.57525  0.06437  0.85560  1.0000
  H   H2891     1.0  0.40504  0.03082  0.92219  1.0000
  C   C1648     1.0  0.49251  0.03527  0.89383  1.0000
  H   H2892     1.0  0.52840  0.40771  0.48824  1.0000
  H   H2893     1.0  0.52166  0.05849  0.89938  1.0000
  H   H2894     1.0  0.41298  0.34093  0.49910  1.0000
  C   C1649     1.0  0.48543  0.46802  0.91537  1.0000
  Fe  Fe191     1.0  0.41136  0.26804  0.96888  1.0000
  C   C1650     1.0  0.41147  0.44162  0.47656  1.0000
  H   H2895     1.0  0.49469  0.46138  0.92202  1.0000
  C   C1651     1.0  0.54234  0.41365  0.48628  1.0000
  H   H2896     1.0  0.47272  0.28255  0.96217  1.0000
  C   C1652     1.0  0.43448  0.47701  0.56160  1.0000
  H   H2897     1.0  0.50224  0.01169  0.92059  1.0000
  C   C1653     1.0  0.53603  0.42873  0.70729  1.0000
  H   H2898     1.0  0.54346  0.40493  0.71151  1.0000
  H   H2899     1.0  0.53483  0.43934  0.71646  1.0000
  S   S386      1.0  0.39918  0.13960  0.87721  1.0000
  H   H2900     1.0  0.52303  0.42215  0.70556  1.0000
  H   H2901     1.0  0.39499  0.14358  0.92843  1.0000
  H   H2902     1.0  0.54020  0.03215  0.91304  1.0000
  H   H2903     1.0  0.53681  0.05056  0.88262  1.0000
  H   H2904     1.0  0.54226  0.00559  0.93748  1.0000
  S   S387      1.0  0.52875  0.46212  0.95797  1.0000
  H   H2905     1.0  0.39134  0.37080  0.92628  1.0000
  H   H2906     1.0  0.38753  0.36397  0.90080  1.0000
  H   H2907     1.0  0.56516  0.00101  0.81637  1.0000
  H   H2908     1.0  0.47415  0.15973  0.90913  1.0000
  C   C1654     1.0  0.50787  0.49181  0.88805  1.0000
  C   C1655     1.0  0.39539  0.15912  0.69386  1.0000
  H   H2909     1.0  0.50534  0.99760  0.49745  1.0000
  C   C1656     1.0  0.47927  0.48414  0.87963  1.0000
  C   C1657     1.0  0.49936  0.45128  0.49165  1.0000
  H   H2910     1.0  0.48183  0.14320  0.48033  1.0000
  C   C1658     1.0  0.49250  0.04006  0.52466  1.0000
  C   C1659     1.0  0.44308  0.46279  0.51161  1.0000
  C   C1660     1.0  0.49833  0.15962  0.55012  1.0000
  H   H2911     1.0  0.38828  0.39844  0.92589  1.0000
  H   H2912     1.0  0.39266  0.17669  0.52988  1.0000
  H   H2913     1.0  0.51545  0.02962  0.49392  1.0000
  C   C1661     1.0  0.53855  0.17309  0.59064  1.0000
  C   C1662     1.0  0.50038  0.01238  0.53693  1.0000
  C   C1663     1.0  0.49312  0.01028  0.56331  1.0000
  H   H2914     1.0  0.51534  0.16485  0.63354  1.0000
  C   C1664     1.0  0.46223  0.44613  0.94748  1.0000
  H   H2915     1.0  0.53008  0.42297  0.58286  1.0000
  H   H2916     1.0  0.53435  0.99912  0.54101  1.0000
  H   H2917     1.0  0.40614  0.05384  0.91789  1.0000
  H   H2918     1.0  0.48338  0.02227  0.90168  1.0000
  C   C1665     1.0  0.40093  0.39929  0.88950  1.0000
  H   H2919     1.0  0.44554  0.40783  0.56162  1.0000
  C   C1666     1.0  0.40784  0.99928  0.96769  1.0000
  H   H2920     1.0  0.46731  0.30767  0.95133  1.0000
  C   C1667     1.0  0.46516  0.14912  0.92328  1.0000
  H   H2921     1.0  0.57438  0.18179  0.58523  1.0000
  H   H2922     1.0  0.57464  0.39809  0.71489  1.0000
  H   H2923     1.0  0.51040  0.03160  0.92792  1.0000
  H   H2924     1.0  0.43781  0.00607  0.53012  1.0000
  H   H2925     1.0  0.49127  0.00267  0.88332  1.0000
  C   C1668     1.0  0.51528  0.32991  0.56330  1.0000
  C   C1669     1.0  0.49856  0.32872  0.55413  1.0000
  C   C1670     1.0  0.50263  0.33484  0.52764  1.0000
  H   H2926     1.0  0.52159  0.34413  0.55977  1.0000
  H   H2927     1.0  0.52415  0.32475  0.55175  1.0000
  H   H2928     1.0  0.49110  0.33718  0.56146  1.0000
  H   H2929     1.0  0.49004  0.31536  0.55882  1.0000
  H   H2930     1.0  0.49945  0.34901  0.59069  1.0000
  H   H2931     1.0  0.54871  0.33503  0.56663  1.0000
  H   H2932     1.0  0.49044  0.33406  0.52172  1.0000
  H   H2933     1.0  0.51055  0.34856  0.52203  1.0000
  H   H2934     1.0  0.50958  0.32644  0.51919  1.0000
  C   C1671     1.0  0.50822  0.15811  0.73161  1.0000
  H   H2935     1.0  0.50008  0.14739  0.74633  1.0000
  H   H2936     1.0  0.50252  0.16938  0.73091  1.0000
  N   N89       1.0  0.41023  0.38527  0.89451  1.0000
  H   H2937     1.0  0.55985  0.44627  0.54299  1.0000
  H   H2938     1.0  0.41582  0.35696  0.92660  1.0000
  C   C1672     1.0  0.41744  0.38136  0.87156  1.0000
  C   C1673     1.0  0.42506  0.39161  0.90518  1.0000
  C   C1674     1.0  0.56732  0.18447  0.73176  1.0000
  C   C1675     1.0  0.42953  0.39714  0.85260  1.0000
  H   H2939     1.0  0.39922  0.09723  0.77924  1.0000
  C   C1676     1.0  0.54160  0.43415  0.57533  1.0000
  C   C1677     1.0  0.43313  0.39240  0.82895  1.0000
  C   C1678     1.0  0.45863  0.15105  0.47982  1.0000
  H   H2940     1.0  0.51438  0.01875  0.53292  1.0000
  H   H2941     1.0  0.50994  0.99743  0.89141  1.0000
  H   H2942     1.0  0.51125  0.14980  0.61592  1.0000
  H   H2943     1.0  0.54645  0.16354  0.76855  1.0000
  H   H2944     1.0  0.43312  0.38227  0.90611  1.0000
  H   H2945     1.0  0.43385  0.40372  0.89372  1.0000
  H   H2946     1.0  0.47232  0.99807  0.52479  1.0000
  H   H2947     1.0  0.44205  0.40118  0.85737  1.0000
  H   H2948     1.0  0.42412  0.40856  0.85029  1.0000
  C   C1679     1.0  0.57872  0.19968  0.71228  1.0000
  C   C1680     1.0  0.52299  0.43721  0.50064  1.0000
  H   H2949     1.0  0.46852  0.15021  0.94021  1.0000
  C   C1681     1.0  0.50407  0.00204  0.57775  1.0000
  H   H2950     1.0  0.42115  0.38939  0.82256  1.0000
  H   H2951     1.0  0.51812  0.48189  0.84847  1.0000
  C   C1682     1.0  0.57134  0.11806  0.70987  1.0000
  C   C1683     1.0  0.51250  0.02414  0.91426  1.0000
  H   H2952     1.0  0.43863  0.45510  0.49922  1.0000
  H   H2953     1.0  0.43438  0.48716  0.54667  1.0000
  H   H2954     1.0  0.40198  0.14023  0.76275  1.0000
  H   H2955     1.0  0.48809  0.04773  0.51070  1.0000
  C   C1684     1.0  0.50390  0.27130  0.58985  1.0000
  H   H2956     1.0  0.53475  0.04253  0.95419  1.0000
  C   C1685     1.0  0.52336  0.05171  0.88488  1.0000
  H   H2957     1.0  0.45611  0.15153  0.49851  1.0000
  C   C1686     1.0  0.55980  0.34333  0.59400  1.0000
  H   H2958     1.0  0.40969  0.45055  0.52284  1.0000
  H   H2959     1.0  0.51027  0.19769  0.60390  1.0000
  S   S388      1.0  0.42216  0.14145  0.81399  1.0000
  H   H2960     1.0  0.46865  0.47340  0.87805  1.0000
  H   H2961     1.0  0.39134  0.05024  0.95967  1.0000
  C   C1687     1.0  0.46854  0.00928  0.96958  1.0000
  C   C1688     1.0  0.40322  0.14047  0.94059  1.0000
  H   H2962     1.0  0.48411  0.47771  0.92616  1.0000
  N   N90       1.0  0.42656  0.17050  0.92802  1.0000
  C   C1689     1.0  0.42264  0.17020  0.90439  1.0000
  S   S389      1.0  0.48653  0.36522  0.48778  1.0000
  C   C1690     1.0  0.42696  0.18848  0.93216  1.0000
  C   C1691     1.0  0.44390  0.16731  0.92902  1.0000
  C   C1692     1.0  0.44657  0.14982  0.92417  1.0000
  C   C1693     1.0  0.43501  0.18417  0.88344  1.0000
  H   H2963     1.0  0.40026  0.15464  0.67810  1.0000
  C   C1694     1.0  0.53007  0.02007  0.91457  1.0000
  H   H2964     1.0  0.57885  0.16495  0.72132  1.0000
  C   C1695     1.0  0.47463  0.31889  0.95676  1.0000
  C   C1696     1.0  0.43045  0.18152  0.86043  1.0000
  H   H2965     1.0  0.43268  0.34141  0.95433  1.0000
  H   H2966     1.0  0.40946  0.17182  0.90464  1.0000
  H   H2967     1.0  0.42238  0.15741  0.90014  1.0000
  C   C1697     1.0  0.55892  0.13508  0.73737  1.0000
  C   C1698     1.0  0.39359  0.20438  0.51866  1.0000
  H   H2968     1.0  0.41551  0.19246  0.92781  1.0000
  H   H2969     1.0  0.43839  0.19830  0.92036  1.0000
  H   H2970     1.0  0.45436  0.17807  0.91696  1.0000
  H   H2971     1.0  0.56105  0.40246  0.82318  1.0000
  H   H2972     1.0  0.44375  0.14778  0.90731  1.0000
  H   H2973     1.0  0.50637  0.07682  0.51352  1.0000
  H   H2974     1.0  0.43407  0.19741  0.88495  1.0000
  H   H2975     1.0  0.44851  0.18357  0.88224  1.0000
  C   C1699     1.0  0.54928  0.17407  0.60949  1.0000
  H   H2976     1.0  0.53666  0.14717  0.71530  1.0000
  C   C1700     1.0  0.48730  0.04786  0.90888  1.0000
  C   C1701     1.0  0.40036  0.42794  0.49411  1.0000
  H   H2977     1.0  0.54730  0.08242  0.85833  1.0000
  C   C1702     1.0  0.40153  0.06826  0.52099  1.0000
  H   H2978     1.0  0.56684  0.13685  0.77971  1.0000
  H   H2979     1.0  0.56589  0.15850  0.59669  1.0000
  N   N91       1.0  0.49187  0.02206  0.52063  1.0000
  H   H2980     1.0  0.46071  0.45639  0.95716  1.0000
  H   H2981     1.0  0.41691  0.18183  0.86073  1.0000
  H   H2982     1.0  0.43897  0.19209  0.84583  1.0000
  H   H2983     1.0  0.43221  0.16889  0.85707  1.0000
  H   H2984     1.0  0.49021  0.08064  0.48385  1.0000
  H   H2985     1.0  0.47947  0.01542  0.95434  1.0000
  H   H2986     1.0  0.44606  0.14690  0.47516  1.0000
  H   H2987     1.0  0.52848  0.47812  0.88397  1.0000
  H   H2988     1.0  0.41415  0.11548  0.78459  1.0000
  C   C1703     1.0  0.38767  0.11739  0.78933  1.0000
  C   C1704     1.0  0.43643  0.39999  0.93935  1.0000
  H   H2989     1.0  0.49852  0.00035  0.59659  1.0000
  N   N92       1.0  0.49244  0.47694  0.88998  1.0000
  H   H2990     1.0  0.39963  0.13793  0.71690  1.0000
  H   H2991     1.0  0.42946  0.48293  0.50307  1.0000
  C   C1705     1.0  0.42313  0.21299  0.52555  1.0000
  C   C1706     1.0  0.53882  0.00224  0.52229  1.0000
  H   H2992     1.0  0.43408  0.49051  0.96736  1.0000
  H   H2993     1.0  0.49269  0.26149  0.58787  1.0000
  C   C1707     1.0  0.56592  0.15053  0.77621  1.0000
  H   H2994     1.0  0.54666  0.38864  0.50051  1.0000
  H   H2995     1.0  0.49453  0.06156  0.90059  1.0000
  H   H2996     1.0  0.57544  0.15458  0.80685  1.0000
  C   C1708     1.0  0.57525  0.38262  0.74814  1.0000
  H   H2997     1.0  0.53827  0.44637  0.57782  1.0000
  H   H2998     1.0  0.43805  0.18662  0.96342  1.0000
  H   H2999     1.0  0.53300  0.09066  0.84259  1.0000
  H   H3000     1.0  0.46673  0.13648  0.91976  1.0000
  C   C1709     1.0  0.53546  0.14859  0.73360  1.0000
  H   H3001     1.0  0.38931  0.42736  0.90212  1.0000
  H   H3002     1.0  0.46489  0.04967  0.89452  1.0000
  C   C1710     1.0  0.53366  0.08233  0.85908  1.0000
  H   H3003     1.0  0.42066  0.23724  0.53590  1.0000
  C   C1711     1.0  0.56705  0.17148  0.60090  1.0000
  C   C1712     1.0  0.56003  0.13054  0.71313  1.0000
  H   H3004     1.0  0.40989  0.00415  0.94911  1.0000
  N   N93       1.0  0.43281  0.45388  0.53604  1.0000
  H   H3005     1.0  0.42116  0.47216  0.57246  1.0000
  H   H3006     1.0  0.42316  0.19976  0.53482  1.0000
  H   H3007     1.0  0.48601  0.11044  0.47560  1.0000
  H   H3008     1.0  0.52206  0.45251  0.84890  1.0000
  C   C1713     1.0  0.50877  0.99740  0.85601  1.0000
  H   H3009     1.0  0.45509  0.46621  0.54759  1.0000
  N   N94       1.0  0.53905  0.43760  0.50986  1.0000
  C   C1714     1.0  0.39149  0.12745  0.96227  1.0000
  H   H3010     1.0  0.39182  0.22685  0.47871  1.0000
  Fe  Fe192     1.0  0.39583  0.14127  0.53994  1.0000
  H   H3011     1.0  0.57199  0.13663  0.74088  1.0000
  H   H3012     1.0  0.42529  0.20763  0.57242  1.0000
  H   H3013     1.0  0.51827  0.46214  0.82141  1.0000
  C   C1715     1.0  0.41796  0.22319  0.54408  1.0000
  H   H3014     1.0  0.52258  0.42631  0.54431  1.0000
  H   H3015     1.0  0.54814  0.31784  0.59084  1.0000
  N   N95       1.0  0.52123  0.17673  0.59672  1.0000
  H   H3016     1.0  0.52574  0.16724  0.75189  1.0000
  H   H3017     1.0  0.49468  0.46315  0.49148  1.0000
  H   H3018     1.0  0.42135  0.30926  0.96195  1.0000
  H   H3019     1.0  0.54635  0.23783  0.57920  1.0000
  H   H3020     1.0  0.46019  0.03391  0.92202  1.0000
  H   H3021     1.0  0.42909  0.23618  0.48584  1.0000
  H   H3022     1.0  0.56697  0.37777  0.76600  1.0000
  N   N96       1.0  0.55268  0.15102  0.74008  1.0000
  H   H3023     1.0  0.48586  0.16230  0.55687  1.0000
  H   H3024     1.0  0.43303  0.40391  0.95605  1.0000
  H   H3025     1.0  0.52479  0.01251  0.95256  1.0000
  H   H3026     1.0  0.39559  0.04099  0.90036  1.0000
  Fe  Fe193     1.0  0.39742  0.13581  0.84146  1.0000
  H   H3027     1.0  0.52897  0.08802  0.87375  1.0000
  H   H3028     1.0  0.55166  0.43220  0.58498  1.0000
  C   C1716     1.0  0.50934  0.06926  0.52893  1.0000
  Fe  Fe194     1.0  0.55150  0.47974  0.96596  1.0000
  C   C1717     1.0  0.56428  0.15616  0.79936  1.0000
  C   C1718     1.0  0.55802  0.41036  0.76475  1.0000
  H   H3029     1.0  0.39370  0.34743  0.50849  1.0000
  S   S390      1.0  0.55239  0.03552  0.52686  1.0000
  C   C1719     1.0  0.38876  0.18714  0.53746  1.0000
  C   C1720     1.0  0.40694  0.35197  0.49735  1.0000
  S   S391      1.0  0.42394  0.11077  0.48505  1.0000
  H   H3030     1.0  0.52750  0.13316  0.96170  1.0000
  H   H3031     1.0  0.42521  0.37181  0.87403  1.0000
  C   C1721     1.0  0.55152  0.39927  0.48451  1.0000
  H   H3032     1.0  0.57027  0.42724  0.70562  1.0000
  H   H3033     1.0  0.56411  0.17006  0.79671  1.0000
  C   C1722     1.0  0.41811  0.19970  0.49298  1.0000
  H   H3034     1.0  0.40864  0.19560  0.48252  1.0000
  H   H3035     1.0  0.48622  0.00008  0.48818  1.0000
  H   H3036     1.0  0.54702  0.12404  0.71139  1.0000
  C   C1723     1.0  0.38875  0.14366  0.71489  1.0000
  H   H3037     1.0  0.55055  0.12335  0.75055  1.0000
  H   H3038     1.0  0.56500  0.45360  0.50471  1.0000
  C   C1724     1.0  0.51040  0.05125  0.52534  1.0000
  H   H3039     1.0  0.58066  0.21187  0.71870  1.0000
  C   C1725     1.0  0.48958  0.32179  0.77319  1.0000
  H   H3040     1.0  0.51659  0.29786  0.60905  1.0000
  H   H3041     1.0  0.55226  0.42296  0.54836  1.0000
  H   H3042     1.0  0.39036  0.22164  0.93236  1.0000
  H   H3043     1.0  0.46940  0.02018  0.48913  1.0000
  H   H3044     1.0  0.57332  0.18428  0.74696  1.0000
  C   C1726     1.0  0.50537  0.00491  0.87754  1.0000
  H   H3045     1.0  0.57809  0.15873  0.76423  1.0000
  H   H3046     1.0  0.52046  0.47953  0.91335  1.0000
  H   H3047     1.0  0.41188  0.34911  0.90123  1.0000
  H   H3048     1.0  0.41455  0.36260  0.50364  1.0000
  H   H3049     1.0  0.50811  0.15379  0.71503  1.0000
  H   H3050     1.0  0.46506  0.05690  0.92116  1.0000
  H   H3051     1.0  0.39573  0.39848  0.87363  1.0000
  C   C1727     1.0  0.42817  0.22147  0.56300  1.0000
  S   S392      1.0  0.41701  0.46014  0.89322  1.0000
  H   H3052     1.0  0.44256  0.40359  0.81611  1.0000
  C   C1728     1.0  0.45000  0.41213  0.54238  1.0000
  C   C1729     1.0  0.54867  0.01920  0.51074  1.0000
  H   H3053     1.0  0.41229  0.13399  0.93211  1.0000
  H   H3054     1.0  0.46914  0.44316  0.91251  1.0000
  H   H3055     1.0  0.44962  0.43633  0.95132  1.0000
  H   H3056     1.0  0.56140  0.43644  0.72820  1.0000
  H   H3057     1.0  0.39069  0.08042  0.96348  1.0000
  H   H3058     1.0  0.58619  0.43023  0.66507  1.0000
  H   H3059     1.0  0.52503  0.43590  0.48229  1.0000
  C   C1730     1.0  0.48150  0.14853  0.64588  1.0000
  H   H3060     1.0  0.48672  0.15130  0.66111  1.0000
  H   H3061     1.0  0.46620  0.01194  0.54244  1.0000
  S   S393      1.0  0.57142  0.01723  0.89042  1.0000
  H   H3062     1.0  0.52280  0.99986  0.84902  1.0000
  H   H3063     1.0  0.48579  0.32893  0.80667  1.0000
  H   H3064     1.0  0.49840  0.48616  0.96790  1.0000
  C   C1731     1.0  0.42049  0.39581  0.92933  1.0000
  C   C1732     1.0  0.45103  0.43140  0.53420  1.0000
  C   C1733     1.0  0.55420  0.40325  0.80878  1.0000
  H   H3065     1.0  0.46813  0.33588  0.60368  1.0000
  H   H3066     1.0  0.56561  0.40456  0.48188  1.0000
  C   C1734     1.0  0.48027  0.32995  0.79100  1.0000
  C   C1735     1.0  0.56727  0.00890  0.84853  1.0000
  H   H3067     1.0  0.46636  0.32314  0.79642  1.0000
  H   H3068     1.0  0.52782  0.34534  0.59503  1.0000
  S   S394      1.0  0.48856  0.40635  0.48712  1.0000
  H   H3069     1.0  0.54952  0.46553  0.50298  1.0000
  H   H3070     1.0  0.55231  0.42151  0.76620  1.0000
  H   H3071     1.0  0.41919  0.21489  0.95246  1.0000
  H   H3072     1.0  0.45638  0.43493  0.51507  1.0000
  H   H3073     1.0  0.41748  0.15363  0.96269  1.0000
  H   H3074     1.0  0.54277  0.16371  0.62541  1.0000
  C   C1736     1.0  0.55317  0.45395  0.49820  1.0000
  H   H3075     1.0  0.52169  0.18599  0.56036  1.0000
  C   C1737     1.0  0.54625  0.33105  0.58589  1.0000
  H   H3076     1.0  0.55890  0.35695  0.58923  1.0000
  C   C1738     1.0  0.44573  0.48568  0.57627  1.0000
  C   C1739     1.0  0.55474  0.02294  0.48658  1.0000
  H   H3077     1.0  0.44579  0.47605  0.59198  1.0000
  C   C1740     1.0  0.47579  0.33851  0.61681  1.0000
  C   C1741     1.0  0.56172  0.42384  0.72335  1.0000
  H   H3078     1.0  0.48956  0.17535  0.62727  1.0000
  H   H3079     1.0  0.48508  0.49172  0.86143  1.0000
  C   C1742     1.0  0.48999  0.32877  0.93669  1.0000
  H   H3080     1.0  0.51742  0.01056  0.57350  1.0000
  H   H3081     1.0  0.52516  0.46528  0.49005  1.0000
  H   H3082     1.0  0.47025  0.32824  0.63311  1.0000
  Fe  Fe195     1.0  0.40738  0.48271  0.87790  1.0000
  H   H3083     1.0  0.49500  0.31298  0.62157  1.0000
  C   C1743     1.0  0.46312  0.01916  0.50749  1.0000
  H   H3084     1.0  0.48183  0.34397  0.78363  1.0000
  N   N97       1.0  0.51341  0.32132  0.58858  1.0000
  C   C1744     1.0  0.52783  0.33136  0.59747  1.0000
  C   C1745     1.0  0.49457  0.33915  0.60734  1.0000
  H   H3085     1.0  0.52691  0.30251  0.57896  1.0000
  H   H3086     1.0  0.48458  0.15988  0.60982  1.0000
  H   H3087     1.0  0.43793  0.01266  0.49968  1.0000
  H   H3088     1.0  0.57440  0.17224  0.61474  1.0000
  H   H3089     1.0  0.55233  0.14799  0.81196  1.0000
  C   C1746     1.0  0.56568  0.16692  0.72408  1.0000
  H   H3090     1.0  0.54960  0.20835  0.58417  1.0000
  C   C1747     1.0  0.54829  0.43509  0.54950  1.0000
  H   H3091     1.0  0.53418  0.01407  0.90010  1.0000
  C   C1748     1.0  0.52270  0.06382  0.86201  1.0000
  C   C1749     1.0  0.49104  0.16266  0.62401  1.0000
  H   H3092     1.0  0.40673  0.37520  0.86409  1.0000
  H   H3093     1.0  0.55444  0.38870  0.73491  1.0000
  C   C1750     1.0  0.41435  0.45451  0.53794  1.0000
  H   H3094     1.0  0.49893  0.29275  0.56847  1.0000
  C   C1751     1.0  0.40088  0.10677  0.79041  1.0000
  C   C1752     1.0  0.49663  0.32112  0.60396  1.0000
  C   C1753     1.0  0.51510  0.30287  0.59111  1.0000
  H   H3095     1.0  0.48548  0.31471  0.59763  1.0000
  H   H3096     1.0  0.52072  0.15547  0.56165  1.0000
  H   H3097     1.0  0.55118  0.18682  0.61441  1.0000
  C   C1754     1.0  0.41252  0.15736  0.94690  1.0000
  C   C1755     1.0  0.54331  0.41548  0.72107  1.0000
  H   H3098     1.0  0.57250  0.20146  0.69735  1.0000
  H   H3099     1.0  0.56298  0.16889  0.70642  1.0000
  H   H3100     1.0  0.53409  0.21090  0.56697  1.0000
  H   H3101     1.0  0.53798  0.22675  0.60935  1.0000
  H   H3102     1.0  0.43832  0.13885  0.93844  1.0000
  C   C1756     1.0  0.52658  0.16350  0.73491  1.0000
  H   H3103     1.0  0.44644  0.16751  0.94657  1.0000
  H   H3104     1.0  0.51222  0.45519  0.51902  1.0000
  H   H3105     1.0  0.53443  0.41002  0.73845  1.0000
  H   H3106     1.0  0.50527  0.45656  0.88576  1.0000
  H   H3107     1.0  0.54642  0.18195  0.57393  1.0000
  C   C1757     1.0  0.50026  0.28922  0.58663  1.0000
  H   H3108     1.0  0.52593  0.32641  0.61659  1.0000
  H   H3109     1.0  0.57284  0.34281  0.58560  1.0000
  H   H3110     1.0  0.47170  0.43957  0.95361  1.0000
  C   C1758     1.0  0.45236  0.48825  0.47658  1.0000
  H   H3111     1.0  0.45773  0.45950  0.91597  1.0000
  H   H3112     1.0  0.48965  0.03924  0.87649  1.0000
  C   C1759     1.0  0.49724  0.46377  0.87691  1.0000
  H   H3113     1.0  0.54440  0.43433  0.68956  1.0000
  H   H3114     1.0  0.57155  0.11471  0.69264  1.0000
  C   C1760     1.0  0.51034  0.16302  0.61779  1.0000
  C   C1761     1.0  0.53641  0.20985  0.58476  1.0000
  S   S395      1.0  0.58072  0.11939  0.54174  1.0000
  H   H3115     1.0  0.47984  0.00166  0.56879  1.0000
  H   H3116     1.0  0.48980  0.04471  0.92652  1.0000
  C   C1762     1.0  0.53597  0.22713  0.59144  1.0000
  H   H3117     1.0  0.52345  0.23002  0.59045  1.0000
  C   C1763     1.0  0.42965  0.20992  0.95840  1.0000
  H   H3118     1.0  0.50116  0.18110  0.57901  1.0000
  H   H3119     1.0  0.49729  0.03318  0.48363  1.0000
  H   H3120     1.0  0.57639  0.42071  0.78478  1.0000
  C   C1764     1.0  0.52373  0.48656  0.89486  1.0000
  Fe  Fe196     1.0  0.56972  0.06281  0.50959  1.0000
  H   H3121     1.0  0.52885  0.02598  0.86680  1.0000
  H   H3122     1.0  0.48793  0.28781  0.59895  1.0000
  H   H3123     1.0  0.51538  0.27152  0.57663  1.0000
  H   H3124     1.0  0.41543  0.40749  0.92766  1.0000
  H   H3125     1.0  0.49562  0.14694  0.54497  1.0000
  H   H3126     1.0  0.50126  0.44569  0.84228  1.0000
  H   H3127     1.0  0.54671  0.39884  0.76842  1.0000
  C   C1765     1.0  0.52283  0.19437  0.60245  1.0000
  C   C1766     1.0  0.47333  0.01205  0.52475  1.0000
  C   C1767     1.0  0.50653  0.47106  0.85087  1.0000
  N   N98       1.0  0.56885  0.41297  0.74045  1.0000
  H   H3128     1.0  0.57431  0.39822  0.78488  1.0000
  H   H3129     1.0  0.43867  0.45171  0.57028  1.0000
  C   C1768     1.0  0.51308  0.17652  0.57605  1.0000
  C   C1769     1.0  0.40142  0.44275  0.56029  1.0000
  H   H3130     1.0  0.46756  0.07374  0.48387  1.0000
  H   H3131     1.0  0.44622  0.21102  0.48563  1.0000
  H   H3132     1.0  0.46191  0.03226  0.50937  1.0000
  H   H3133     1.0  0.52640  0.13624  0.74463  1.0000
  H   H3134     1.0  0.48267  0.13553  0.64336  1.0000
  H   H3135     1.0  0.44668  0.41081  0.92707  1.0000
  H   H3136     1.0  0.53091  0.44936  0.53841  1.0000
  C   C1770     1.0  0.51238  0.45696  0.84028  1.0000
  H   H3137     1.0  0.53923  0.14068  0.77618  1.0000
  H   H3138     1.0  0.55472  0.18724  0.73674  1.0000
  H   H3139     1.0  0.40460  0.05917  0.53483  1.0000
  H   H3140     1.0  0.52776  0.05893  0.84672  1.0000
  Fe  Fe197     1.0  0.58206  0.09971  0.51852  1.0000
  S   S396      1.0  0.57934  0.47983  0.96222  1.0000
  H   H3141     1.0  0.46622  0.32774  0.95918  1.0000
  H   H3142     1.0  0.55806  0.33933  0.61318  1.0000
  H   H3143     1.0  0.43864  0.38100  0.83015  1.0000
  H   H3144     1.0  0.53368  0.17506  0.72071  1.0000
  H   H3145     1.0  0.41828  0.18742  0.50458  1.0000
  C   C1771     1.0  0.40573  0.41297  0.50141  1.0000
  H   H3146     1.0  0.54681  0.41312  0.81027  1.0000
  H   H3147     1.0  0.56539  0.14236  0.69885  1.0000
  H   H3148     1.0  0.52187  0.07652  0.53126  1.0000
  H   H3149     1.0  0.50107  0.14805  0.58376  1.0000
  C   C1772     1.0  0.51567  0.45332  0.50108  1.0000
  Fe  Fe198     1.0  0.46222  0.36417  0.47457  1.0000
  H   H3150     1.0  0.44937  0.49051  0.51193  1.0000
  H   H3151     1.0  0.46482  0.48978  0.91095  1.0000
  H   H3152     1.0  0.42685  0.42793  0.55818  1.0000
  H   H3153     1.0  0.51531  0.04516  0.53993  1.0000
  H   H3154     1.0  0.46262  0.12561  0.48811  1.0000
  C   C1773     1.0  0.43305  0.43494  0.53980  1.0000
  H   H3155     1.0  0.45912  0.49155  0.56590  1.0000
  C   C1774     1.0  0.56211  0.00420  0.87281  1.0000
  C   C1775     1.0  0.41513  0.22971  0.49274  1.0000
  H   H3156     1.0  0.55129  0.08935  0.96137  1.0000
  C   C1776     1.0  0.39801  0.04080  0.91804  1.0000
  H   H3157     1.0  0.58602  0.08438  0.96963  1.0000
  H   H3158     1.0  0.49945  0.99899  0.53418  1.0000
  H   H3159     1.0  0.44243  0.99565  0.94995  1.0000
  H   H3160     1.0  0.51901  0.11167  0.95756  1.0000
  H   H3161     1.0  0.45938  0.25136  0.96606  1.0000
  H   H3162     1.0  0.57675  0.02109  0.84007  1.0000
  H   H3163     1.0  0.38825  0.21410  0.52644  1.0000
  H   H3164     1.0  0.46274  0.99734  0.93215  1.0000
  C   C1777     1.0  0.57532  0.36679  0.73753  1.0000
  H   H3165     1.0  0.39718  0.40234  0.51500  1.0000
  H   H3166     1.0  0.56233  0.03586  0.47743  1.0000
  H   H3167     1.0  0.40696  0.38431  0.47552  1.0000
  H   H3168     1.0  0.39108  0.08111  0.48478  1.0000
  H   H3169     1.0  0.40615  0.16897  0.69674  1.0000
  H   H3170     1.0  0.58142  0.44370  0.75315  1.0000
  H   H3171     1.0  0.39989  0.07992  0.52756  1.0000
  Fe  Fe199     1.0  0.46434  0.40227  0.47413  1.0000
  C   C1778     1.0  0.43616  0.20681  0.47618  1.0000
  H   H3172     1.0  0.45872  0.01676  0.96935  1.0000
  C   C1779     1.0  0.55092  0.00993  0.47413  1.0000
  H   H3173     1.0  0.58041  0.35741  0.74834  1.0000
  C   C1780     1.0  0.57772  0.08998  0.95939  1.0000
  C   C1781     1.0  0.48086  0.07724  0.47303  1.0000
  H   H3174     1.0  0.44180  0.18164  0.47720  1.0000
  H   H3175     1.0  0.39839  0.42899  0.55856  1.0000
  H   H3176     1.0  0.58221  0.10442  0.95532  1.0000
  H   H3177     1.0  0.58477  0.12424  0.71043  1.0000
  H   H3178     1.0  0.58505  0.14735  0.56562  1.0000
  H   H3179     1.0  0.57904  0.08573  0.94266  1.0000
  H   H3180     1.0  0.38865  0.21114  0.89603  1.0000
  H   H3181     1.0  0.41513  0.18328  0.96978  1.0000
  H   H3182     1.0  0.39289  0.02858  0.96385  1.0000
  C   C1782     1.0  0.43364  0.42599  0.47482  1.0000
  H   H3183     1.0  0.58360  0.37077  0.71960  1.0000
  H   H3184     1.0  0.54667  0.11510  0.97082  1.0000
  H   H3185     1.0  0.50194  0.44937  0.47358  1.0000
  H   H3186     1.0  0.46581  0.48721  0.47430  1.0000
  Fe  Fe200     1.0  0.58648  0.04567  0.87620  1.0000
  H   H3187     1.0  0.38667  0.46152  0.56672  1.0000
  C   C1783     1.0  0.40599  0.23058  0.47212  1.0000
  H   H3188     1.0  0.38734  0.04788  0.50789  1.0000
  H   H3189     1.0  0.40114  0.95991  0.40278  1.0000
  S   S397      1.0  0.55567  0.85065  0.35159  1.0000
  H   H3190     1.0  0.53369  0.81834  0.23194  1.0000
  Fe  Fe201     1.0  0.57262  0.85491  0.31598  1.0000
  S   S398      1.0  0.56592  0.84458  0.28447  1.0000
  Fe  Fe202     1.0  0.56783  0.87885  0.34967  1.0000
  S   S399      1.0  0.55451  0.89925  0.35924  1.0000
  H   H3191     1.0  0.44925  0.95717  0.97688  1.0000
  S   S400      1.0  0.54072  0.84604  0.04445  1.0000
  H   H3192     1.0  0.51985  0.49722  0.35923  1.0000
  H   H3193     1.0  0.47434  0.85719  0.03900  1.0000
  H   H3194     1.0  0.55343  0.66649  0.98226  1.0000
  H   H3195     1.0  0.41717  0.53854  0.35184  1.0000
  H   H3196     1.0  0.55961  0.83459  0.24260  1.0000
  H   H3197     1.0  0.39321  0.87141  0.26168  1.0000
  H   H3198     1.0  0.47267  0.63334  0.45503  1.0000
  C   C1784     1.0  0.51759  0.51070  0.38784  1.0000
  H   H3199     1.0  0.39718  0.75713  0.20904  1.0000
  H   H3200     1.0  0.41922  0.61890  0.10605  1.0000
  S   S401      1.0  0.40323  0.91928  0.33164  1.0000
  S   S402      1.0  0.42373  0.89950  0.38396  1.0000
  Fe  Fe203     1.0  0.50243  0.62709  0.38101  1.0000
  S   S403      1.0  0.51540  0.61458  0.35469  1.0000
  S   S404      1.0  0.51610  0.65329  0.38719  1.0000
  Fe  Fe204     1.0  0.46874  0.59866  0.39130  1.0000
  S   S405      1.0  0.47913  0.58395  0.36626  1.0000
  S   S406      1.0  0.44112  0.58893  0.41157  1.0000
  Fe  Fe205     1.0  0.50264  0.58943  0.38088  1.0000
  S   S407      1.0  0.51429  0.56774  0.39371  1.0000
  Fe  Fe206     1.0  0.49074  0.61022  0.34198  1.0000
  S   S408      1.0  0.49190  0.61368  0.30301  1.0000
  S   S409      1.0  0.49125  0.60211  0.40816  1.0000
  S   S410      1.0  0.47873  0.62476  0.36610  1.0000
  H   H3201     1.0  0.52049  0.52456  0.38898  1.0000
  S   S411      1.0  0.42061  0.50775  0.45341  1.0000
  S   S412      1.0  0.47953  0.58587  0.00100  1.0000
  Fe  Fe207     1.0  0.47663  0.61283  0.00224  1.0000
  S   S413      1.0  0.46885  0.62693  0.03050  1.0000
  Fe  Fe208     1.0  0.43949  0.61496  0.16492  1.0000
  S   S414      1.0  0.42217  0.63036  0.15203  1.0000
  S   S415      1.0  0.45468  0.60214  0.14086  1.0000
  Fe  Fe209     1.0  0.42837  0.61823  0.21524  1.0000
  S   S416      1.0  0.40973  0.63348  0.20532  1.0000
  S   S417      1.0  0.42880  0.61376  0.25403  1.0000
  Fe  Fe210     1.0  0.40220  0.61390  0.18373  1.0000
  Fe  Fe211     1.0  0.43134  0.64836  0.17469  1.0000
  S   S418      1.0  0.43956  0.67795  0.16015  1.0000
  S   S419      1.0  0.41919  0.59764  0.19590  1.0000
  S   S420      1.0  0.45029  0.63401  0.18536  1.0000
  Fe  Fe212     1.0  0.49346  0.79525  0.22484  1.0000
  S   S421      1.0  0.49738  0.81416  0.19056  1.0000
  S   S422      1.0  0.49821  0.80223  0.25914  1.0000
  Fe  Fe213     1.0  0.47726  0.76370  0.20567  1.0000
  S   S423      1.0  0.48029  0.78032  0.17023  1.0000
  S   S424      1.0  0.46511  0.73427  0.21733  1.0000
  Fe  Fe214     1.0  0.50641  0.79394  0.17405  1.0000
  S   S425      1.0  0.53066  0.79909  0.14560  1.0000
  Fe  Fe215     1.0  0.47089  0.79919  0.18937  1.0000
  S   S426      1.0  0.45280  0.81336  0.17459  1.0000
  S   S427      1.0  0.50419  0.77581  0.20845  1.0000
  S   S428      1.0  0.46609  0.78174  0.22473  1.0000
  H   H3202     1.0  0.53016  0.82932  0.31154  1.0000
  H   H3203     1.0  0.48069  0.86811  0.44421  1.0000
  H   H3204     1.0  0.50426  0.81281  0.30097  1.0000
  C   C1785     1.0  0.44671  0.69350  0.17615  1.0000
  C   C1786     1.0  0.45361  0.71114  0.16461  1.0000
  C   C1787     1.0  0.45928  0.72386  0.17687  1.0000
  C   C1788     1.0  0.45790  0.71906  0.20088  1.0000
  C   C1789     1.0  0.45043  0.70155  0.21249  1.0000
  C   C1790     1.0  0.44507  0.68879  0.20019  1.0000
  H   H3205     1.0  0.45450  0.71494  0.14611  1.0000
  H   H3206     1.0  0.46444  0.73736  0.16787  1.0000
  H   H3207     1.0  0.44865  0.69786  0.23119  1.0000
  H   H3208     1.0  0.43926  0.67536  0.20931  1.0000
  C   C1791     1.0  0.46523  0.61971  0.06107  1.0000
  C   C1792     1.0  0.45887  0.62995  0.07534  1.0000
  C   C1793     1.0  0.45555  0.62469  0.09976  1.0000
  C   C1794     1.0  0.45859  0.60912  0.11018  1.0000
  C   C1795     1.0  0.46503  0.59890  0.09592  1.0000
  C   C1796     1.0  0.46833  0.60415  0.07145  1.0000
  H   H3209     1.0  0.45640  0.64198  0.06746  1.0000
  H   H3210     1.0  0.45077  0.63276  0.11051  1.0000
  H   H3211     1.0  0.46748  0.58687  0.10385  1.0000
  H   H3212     1.0  0.47327  0.59618  0.06064  1.0000
  C   C1797     1.0  0.53431  0.56618  0.37897  1.0000
  C   C1798     1.0  0.54236  0.57575  0.35629  1.0000
  C   C1799     1.0  0.55775  0.57294  0.34475  1.0000
  C   C1800     1.0  0.56496  0.56044  0.35576  1.0000
  C   C1801     1.0  0.55707  0.55131  0.37864  1.0000
  C   C1802     1.0  0.54201  0.55440  0.39027  1.0000
  H   H3213     1.0  0.53654  0.58494  0.34744  1.0000
  H   H3214     1.0  0.56380  0.58011  0.32706  1.0000
  H   H3215     1.0  0.44884  0.76058  0.15025  1.0000
  H   H3216     1.0  0.53608  0.54736  0.40802  1.0000
  C   C1803     1.0  0.47407  0.61306  0.28987  1.0000
  C   C1804     1.0  0.45806  0.61345  0.30228  1.0000
  C   C1805     1.0  0.44441  0.61374  0.29098  1.0000
  C   C1806     1.0  0.44649  0.61333  0.26726  1.0000
  C   C1807     1.0  0.46251  0.61298  0.25482  1.0000
  C   C1808     1.0  0.47623  0.61288  0.26609  1.0000
  H   H3217     1.0  0.45635  0.61384  0.32048  1.0000
  H   H3218     1.0  0.43217  0.61441  0.30060  1.0000
  H   H3219     1.0  0.46434  0.61277  0.23655  1.0000
  H   H3220     1.0  0.48859  0.61264  0.25630  1.0000
  C   C1809     1.0  0.43542  0.56653  0.42433  1.0000
  C   C1810     1.0  0.44787  0.55720  0.42319  1.0000
  C   C1811     1.0  0.44315  0.53921  0.43257  1.0000
  C   C1812     1.0  0.42597  0.53044  0.44314  1.0000
  C   C1813     1.0  0.41356  0.53982  0.44497  1.0000
  C   C1814     1.0  0.41830  0.55788  0.43560  1.0000
  H   H3221     1.0  0.46115  0.56381  0.41491  1.0000
  H   H3222     1.0  0.45282  0.53203  0.43128  1.0000
  H   H3223     1.0  0.41525  0.70768  0.17940  1.0000
  H   H3224     1.0  0.40867  0.56511  0.43675  1.0000
  C   C1815     1.0  0.45520  0.93518  0.42123  1.0000
  C   C1816     1.0  0.45479  0.91752  0.42486  1.0000
  C   C1817     1.0  0.44503  0.90669  0.41338  1.0000
  C   C1818     1.0  0.43574  0.91344  0.39815  1.0000
  C   C1819     1.0  0.43628  0.93113  0.39439  1.0000
  C   C1820     1.0  0.44599  0.94196  0.40589  1.0000
  H   H3225     1.0  0.46179  0.91218  0.43676  1.0000
  H   H3226     1.0  0.44443  0.89296  0.41661  1.0000
  H   H3227     1.0  0.42924  0.93648  0.38258  1.0000
  N   N99       1.0  0.40484  0.73365  0.20441  1.0000
  H   H3228     1.0  0.54303  0.83665  0.41891  1.0000
  C   C1821     1.0  0.40507  0.79270  0.21740  1.0000
  C   C1822     1.0  0.42293  0.79654  0.20835  1.0000
  C   C1823     1.0  0.43054  0.80846  0.18705  1.0000
  C   C1824     1.0  0.42025  0.81683  0.17523  1.0000
  C   C1825     1.0  0.40244  0.81309  0.18432  1.0000
  S   S429      1.0  0.53598  0.51972  0.01441  1.0000
  H   H3229     1.0  0.43087  0.79044  0.21787  1.0000
  H   H3230     1.0  0.42606  0.82612  0.15878  1.0000
  H   H3231     1.0  0.39755  0.81263  0.26189  1.0000
  H   H3232     1.0  0.49685  0.89226  0.41118  1.0000
  H   H3233     1.0  0.41717  0.56925  0.16008  1.0000
  H   H3234     1.0  0.46892  0.54841  0.98607  1.0000
  H   H3235     1.0  0.41363  0.90189  0.11019  1.0000
  C   C1826     1.0  0.54628  0.66467  0.44328  1.0000
  C   C1827     1.0  0.54610  0.67810  0.42513  1.0000
  C   C1828     1.0  0.53666  0.67443  0.40825  1.0000
  C   C1829     1.0  0.52721  0.65735  0.40940  1.0000
  C   C1830     1.0  0.52688  0.64407  0.42805  1.0000
  C   C1831     1.0  0.53646  0.64770  0.44478  1.0000
  H   H3236     1.0  0.55358  0.69123  0.42374  1.0000
  H   H3237     1.0  0.53690  0.68485  0.39400  1.0000
  H   H3238     1.0  0.51939  0.63095  0.42941  1.0000
  H   H3239     1.0  0.45260  0.50212  0.47046  1.0000
  C   C1832     1.0  0.53852  0.83328  0.07256  1.0000
  C   C1833     1.0  0.52426  0.83227  0.09019  1.0000
  C   C1834     1.0  0.52179  0.82197  0.11270  1.0000
  C   C1835     1.0  0.53347  0.81243  0.11767  1.0000
  C   C1836     1.0  0.54768  0.81333  0.09998  1.0000
  C   C1837     1.0  0.55027  0.82380  0.07753  1.0000
  H   H3240     1.0  0.51514  0.83959  0.08650  1.0000
  H   H3241     1.0  0.51082  0.82140  0.12619  1.0000
  H   H3242     1.0  0.55674  0.80590  0.10366  1.0000
  H   H3243     1.0  0.56119  0.82433  0.06400  1.0000
  C   C1838     1.0  0.54353  0.89717  0.38814  1.0000
  C   C1839     1.0  0.53516  0.88083  0.40277  1.0000
  C   C1840     1.0  0.52596  0.87961  0.42548  1.0000
  C   C1841     1.0  0.52507  0.89465  0.43370  1.0000
  C   C1842     1.0  0.53348  0.91097  0.41906  1.0000
  C   C1843     1.0  0.54262  0.91222  0.39633  1.0000
  H   H3244     1.0  0.53569  0.86916  0.39654  1.0000
  H   H3245     1.0  0.51937  0.86697  0.43671  1.0000
  H   H3246     1.0  0.53310  0.92263  0.42533  1.0000
  H   H3247     1.0  0.54908  0.92490  0.38508  1.0000
  H   H3248     1.0  0.52780  0.51531  0.46624  1.0000
  C   C1844     1.0  0.51868  0.85431  0.99046  1.0000
  C   C1845     1.0  0.57599  0.77827  0.43339  1.0000
  C   C1846     1.0  0.57114  0.79382  0.42720  1.0000
  H   H3249     1.0  0.56997  0.76942  0.45012  1.0000
  H   H3250     1.0  0.56136  0.79683  0.43931  1.0000
  C   C1847     1.0  0.51710  0.81442  0.26564  1.0000
  C   C1848     1.0  0.51633  0.81759  0.28816  1.0000
  C   C1849     1.0  0.53101  0.82695  0.29423  1.0000
  C   C1850     1.0  0.54675  0.83314  0.27786  1.0000
  C   C1851     1.0  0.54752  0.82990  0.25541  1.0000
  C   C1852     1.0  0.53282  0.82068  0.24928  1.0000
  C   C1853     1.0  0.52869  0.58651  0.44078  1.0000
  H   H3251     1.0  0.41902  0.95083  0.13645  1.0000
  H   H3252     1.0  0.52908  0.51692  0.42475  1.0000
  C   C1854     1.0  0.42321  0.55158  0.35451  1.0000
  H   H3253     1.0  0.53314  0.91188  0.00937  1.0000
  C   C1855     1.0  0.42303  0.97233  0.35333  1.0000
  H   H3254     1.0  0.53719  0.64616  0.98664  1.0000
  H   H3255     1.0  0.54609  0.52254  0.35118  1.0000
  H   H3256     1.0  0.53505  0.81994  0.44542  1.0000
  C   C1856     1.0  0.52703  0.98866  0.39132  1.0000
  C   C1857     1.0  0.51203  0.99432  0.40479  1.0000
  H   H3257     1.0  0.49941  0.67078  0.31130  1.0000
  Fe  Fe216     1.0  0.58603  0.73389  0.45876  1.0000
  H   H3258     1.0  0.52122  0.59501  0.44801  1.0000
  H   H3259     1.0  0.47739  0.99163  0.38009  1.0000
  H   H3260     1.0  0.54955  0.61785  0.37377  1.0000
  C   C1858     1.0  0.42861  0.76097  0.17915  1.0000
  H   H3261     1.0  0.57023  0.63578  0.44034  1.0000
  H   H3262     1.0  0.41911  0.64885  0.09036  1.0000
  H   H3263     1.0  0.41190  0.88009  0.31347  1.0000
  H   H3264     1.0  0.44091  0.56191  0.37531  1.0000
  H   H3265     1.0  0.54402  0.87994  0.99730  1.0000
  H   H3266     1.0  0.42458  0.58049  0.37370  1.0000
  C   C1859     1.0  0.47993  0.51564  0.38756  1.0000
  H   H3267     1.0  0.46928  0.92447  0.32138  1.0000
  N   N100      1.0  0.47622  0.66967  0.25439  1.0000
  C   C1860     1.0  0.48620  0.66229  0.23671  1.0000
  C   C1861     1.0  0.47935  0.66367  0.27829  1.0000
  C   C1862     1.0  0.45734  0.66256  0.25539  1.0000
  C   C1863     1.0  0.48040  0.68926  0.24743  1.0000
  C   C1864     1.0  0.49920  0.69938  0.24518  1.0000
  C   C1865     1.0  0.48318  0.66607  0.21165  1.0000
  C   C1866     1.0  0.44436  0.66574  0.27546  1.0000
  C   C1867     1.0  0.49755  0.66147  0.27958  1.0000
  C   C1868     1.0  0.49976  0.65887  0.30465  1.0000
  C   C1869     1.0  0.50193  0.71878  0.23511  1.0000
  C   C1870     1.0  0.49406  0.65790  0.19563  1.0000
  C   C1871     1.0  0.42586  0.65802  0.27405  1.0000
  H   H3268     1.0  0.48308  0.64789  0.24287  1.0000
  H   H3269     1.0  0.50024  0.66691  0.23507  1.0000
  H   H3270     1.0  0.47612  0.67249  0.28971  1.0000
  H   H3271     1.0  0.47059  0.65054  0.28696  1.0000
  H   H3272     1.0  0.45431  0.64828  0.25672  1.0000
  H   H3273     1.0  0.45408  0.66817  0.23902  1.0000
  H   H3274     1.0  0.47682  0.69342  0.23072  1.0000
  H   H3275     1.0  0.47251  0.69436  0.26025  1.0000
  H   H3276     1.0  0.50839  0.69475  0.23350  1.0000
  H   H3277     1.0  0.50222  0.69815  0.26263  1.0000
  H   H3278     1.0  0.46959  0.66042  0.21142  1.0000
  H   H3279     1.0  0.48668  0.68027  0.20401  1.0000
  H   H3280     1.0  0.44598  0.67983  0.27453  1.0000
  H   H3281     1.0  0.44585  0.65954  0.29278  1.0000
  H   H3282     1.0  0.49936  0.64977  0.27318  1.0000
  H   H3283     1.0  0.50800  0.67269  0.26887  1.0000
  C   C1872     1.0  0.48864  0.88067  0.40748  1.0000
  H   H3284     1.0  0.49894  0.72078  0.21764  1.0000
  H   H3285     1.0  0.49349  0.72434  0.24664  1.0000
  H   H3286     1.0  0.51551  0.72589  0.23339  1.0000
  H   H3287     1.0  0.49064  0.64354  0.20220  1.0000
  H   H3288     1.0  0.49157  0.66066  0.17789  1.0000
  H   H3289     1.0  0.50797  0.66337  0.19439  1.0000
  H   H3290     1.0  0.42327  0.64370  0.27587  1.0000
  H   H3291     1.0  0.41677  0.66055  0.28834  1.0000
  H   H3292     1.0  0.42347  0.66397  0.25714  1.0000
  C   C1873     1.0  0.58040  0.89800  0.41026  1.0000
  C   C1874     1.0  0.51643  0.51090  0.43707  1.0000
  H   H3293     1.0  0.42816  0.73452  0.18000  1.0000
  H   H3294     1.0  0.51250  0.53229  0.12607  1.0000
  C   C1875     1.0  0.48022  0.64718  0.45039  1.0000
  C   C1876     1.0  0.50659  0.52888  0.11163  1.0000
  H   H3295     1.0  0.47988  0.50657  0.37584  1.0000
  H   H3296     1.0  0.41805  0.59193  0.11853  1.0000
  H   H3297     1.0  0.40334  0.89022  0.29061  1.0000
  H   H3298     1.0  0.44340  0.58891  0.04693  1.0000
  N   N101      1.0  0.49351  0.89611  0.36400  1.0000
  C   C1877     1.0  0.48419  0.90052  0.34498  1.0000
  C   C1878     1.0  0.50460  0.88455  0.35644  1.0000
  C   C1879     1.0  0.50517  0.91234  0.36729  1.0000
  C   C1880     1.0  0.49622  0.92506  0.37778  1.0000
  C   C1881     1.0  0.51737  0.89175  0.33226  1.0000
  C   C1882     1.0  0.46642  0.90420  0.35226  1.0000
  C   C1883     1.0  0.46029  0.91175  0.33100  1.0000
  C   C1884     1.0  0.50910  0.93941  0.38381  1.0000
  C   C1885     1.0  0.52636  0.87811  0.32553  1.0000
  H   H3299     1.0  0.49254  0.91190  0.33121  1.0000
  H   H3300     1.0  0.48155  0.88957  0.33603  1.0000
  H   H3301     1.0  0.49634  0.87162  0.35623  1.0000
  H   H3302     1.0  0.51263  0.88188  0.36908  1.0000
  H   H3303     1.0  0.51402  0.90885  0.37824  1.0000
  H   H3304     1.0  0.51382  0.92003  0.35040  1.0000
  H   H3305     1.0  0.48643  0.91841  0.39405  1.0000
  H   H3306     1.0  0.49016  0.93149  0.36488  1.0000
  H   H3307     1.0  0.52746  0.90334  0.33262  1.0000
  H   H3308     1.0  0.51086  0.89551  0.31821  1.0000
  H   H3309     1.0  0.46658  0.91340  0.36385  1.0000
  H   H3310     1.0  0.45924  0.90262  0.31919  1.0000
  H   H3311     1.0  0.50216  0.94803  0.39174  1.0000
  H   H3312     1.0  0.51566  0.93373  0.39672  1.0000
  H   H3313     1.0  0.51886  0.94729  0.36796  1.0000
  H   H3314     1.0  0.51697  0.86670  0.32317  1.0000
  H   H3315     1.0  0.53617  0.88384  0.30892  1.0000
  H   H3316     1.0  0.53298  0.87367  0.33915  1.0000
  H   H3317     1.0  0.52862  0.83998  0.44329  1.0000
  H   H3318     1.0  0.53420  0.72644  0.44182  1.0000
  C   C1886     1.0  0.48848  0.51125  0.40823  1.0000
  H   H3319     1.0  0.39894  0.97068  0.42671  1.0000
  H   H3320     1.0  0.52592  0.50065  0.06226  1.0000
  H   H3321     1.0  0.47195  0.65538  0.44435  1.0000
  H   H3322     1.0  0.41764  0.54900  0.15165  1.0000
  H   H3323     1.0  0.48553  0.97562  0.39528  1.0000
  H   H3324     1.0  0.49295  0.69802  0.99785  1.0000
  H   H3325     1.0  0.48229  0.98945  0.43882  1.0000
  C   C1887     1.0  0.40453  0.56471  0.13180  1.0000
  H   H3326     1.0  0.47154  0.89314  0.39218  1.0000
  H   H3327     1.0  0.43135  0.76848  0.14155  1.0000
  H   H3328     1.0  0.40644  0.55852  0.11678  1.0000
  C   C1888     1.0  0.43960  0.76837  0.15438  1.0000
  H   H3329     1.0  0.45782  0.65017  0.99175  1.0000
  S   S430      1.0  0.58305  0.88372  0.31279  1.0000
  H   H3330     1.0  0.50180  0.53766  0.36791  1.0000
  H   H3331     1.0  0.52877  0.50603  0.39193  1.0000
  S   S431      1.0  0.39388  0.96620  0.33578  1.0000
  H   H3332     1.0  0.39807  0.52675  0.38663  1.0000
  H   H3333     1.0  0.57355  0.81867  0.31987  1.0000
  C   C1889     1.0  0.47652  0.83742  0.06640  1.0000
  H   H3334     1.0  0.39270  0.55764  0.29612  1.0000
  C   C1890     1.0  0.39561  0.87664  0.12167  1.0000
  N   N102      1.0  0.55277  0.78525  0.34551  1.0000
  C   C1891     1.0  0.54891  0.76680  0.35945  1.0000
  C   C1892     1.0  0.54130  0.78580  0.32849  1.0000
  H   H3335     1.0  0.48968  0.67943  0.45731  1.0000
  C   C1893     1.0  0.54951  0.79751  0.36105  1.0000
  C   C1894     1.0  0.53104  0.79295  0.37655  1.0000
  C   C1895     1.0  0.55755  0.76437  0.38042  1.0000
  H   H3336     1.0  0.43928  0.92561  0.99481  1.0000
  C   C1896     1.0  0.54343  0.77440  0.31046  1.0000
  S   S432      1.0  0.55896  0.66818  0.46401  1.0000
  C   C1897     1.0  0.53007  0.80385  0.39487  1.0000
  C   C1898     1.0  0.55388  0.74515  0.39222  1.0000
  N   N103      1.0  0.50709  0.68180  0.98180  1.0000
  H   H3337     1.0  0.55314  0.75836  0.34805  1.0000
  H   H3338     1.0  0.53482  0.76101  0.36591  1.0000
  H   H3339     1.0  0.52754  0.78124  0.33785  1.0000
  H   H3340     1.0  0.54296  0.79948  0.31913  1.0000
  H   H3341     1.0  0.57278  0.88989  0.40074  1.0000
  H   H3342     1.0  0.50977  0.50295  0.11697  1.0000
  H   H3343     1.0  0.55886  0.79870  0.37241  1.0000
  H   H3344     1.0  0.55193  0.81095  0.35049  1.0000
  H   H3345     1.0  0.52657  0.77912  0.38603  1.0000
  H   H3346     1.0  0.52189  0.79565  0.36566  1.0000
  H   H3347     1.0  0.42267  0.60994  0.37623  1.0000
  H   H3348     1.0  0.55274  0.77110  0.39380  1.0000
  C   C1899     1.0  0.38850  0.53449  0.38610  1.0000
  H   H3349     1.0  0.45453  0.54338  0.35308  1.0000
  H   H3350     1.0  0.56384  0.65773  0.32563  1.0000
  H   H3351     1.0  0.53797  0.76042  0.31918  1.0000
  H   H3352     1.0  0.53506  0.52260  0.32768  1.0000
  H   H3353     1.0  0.43072  0.61671  0.34498  1.0000
  C   C1900     1.0  0.38663  0.90889  0.09614  1.0000
  H   H3354     1.0  0.51656  0.80112  0.40468  1.0000
  H   H3355     1.0  0.53793  0.80051  0.40745  1.0000
  H   H3356     1.0  0.53476  0.81795  0.38657  1.0000
  H   H3357     1.0  0.42945  0.60083  0.07857  1.0000
  H   H3358     1.0  0.54981  0.98048  0.39677  1.0000
  H   H3359     1.0  0.53983  0.73923  0.39856  1.0000
  H   H3360     1.0  0.46711  0.98655  0.42060  1.0000
  H   H3361     1.0  0.39901  0.58814  0.13983  1.0000
  H   H3362     1.0  0.49448  0.52377  0.41235  1.0000
  C   C1901     1.0  0.56714  0.64304  0.35778  1.0000
  C   C1902     1.0  0.41858  0.56297  0.14503  1.0000
  H   H3363     1.0  0.40495  0.89559  0.14080  1.0000
  H   H3364     1.0  0.51232  0.65600  0.30538  1.0000
  H   H3365     1.0  0.40573  0.67642  0.19647  1.0000
  H   H3366     1.0  0.54374  0.89854  0.02629  1.0000
  H   H3367     1.0  0.49876  0.52242  0.98440  1.0000
  C   C1903     1.0  0.52075  0.54661  0.01093  1.0000
  C   C1904     1.0  0.40081  0.57075  0.29555  1.0000
  C   C1905     1.0  0.52096  0.67319  0.98715  1.0000
  C   C1906     1.0  0.38987  0.88650  0.45122  1.0000
  H   H3368     1.0  0.53220  0.59987  0.40540  1.0000
  C   C1907     1.0  0.48958  0.98816  0.38203  1.0000
  C   C1908     1.0  0.55475  0.84207  0.44778  1.0000
  C   C1909     1.0  0.39697  0.68469  0.20066  1.0000
  C   C1910     1.0  0.40213  0.98713  0.01568  1.0000
  H   H3369     1.0  0.52719  0.69406  0.46237  1.0000
  H   H3370     1.0  0.41625  0.62167  0.07654  1.0000
  H   H3371     1.0  0.56490  0.50752  0.06084  1.0000
  H   H3372     1.0  0.48126  0.54257  0.03354  1.0000
  H   H3373     1.0  0.43112  0.58537  0.34309  1.0000
  C   C1911     1.0  0.41028  0.97918  0.34565  1.0000
  C   C1912     1.0  0.40071  0.56155  0.33843  1.0000
  H   H3374     1.0  0.53856  0.77378  0.03821  1.0000
  H   H3375     1.0  0.42916  0.96205  0.97797  1.0000
  H   H3376     1.0  0.44522  0.98927  0.27106  1.0000
  C   C1913     1.0  0.39474  0.80089  0.20535  1.0000
  Fe  Fe217     1.0  0.40268  0.90814  0.36908  1.0000
  C   C1914     1.0  0.58194  0.63752  0.42656  1.0000
  H   H3377     1.0  0.49218  0.86343  0.05217  1.0000
  H   H3378     1.0  0.42179  0.91557  0.44948  1.0000
  H   H3379     1.0  0.55999  0.60807  0.43318  1.0000
  H   H3380     1.0  0.50659  0.51135  0.08874  1.0000
  C   C1915     1.0  0.53943  0.83423  0.43821  1.0000
  C   C1916     1.0  0.57345  0.53132  0.29297  1.0000
  H   H3381     1.0  0.50411  0.98258  0.41828  1.0000
  H   H3382     1.0  0.57975  0.79339  0.34578  1.0000
  C   C1917     1.0  0.40872  0.59383  0.35651  1.0000
  C   C1918     1.0  0.39143  0.90604  0.44144  1.0000
  H   H3383     1.0  0.54491  0.65109  0.34903  1.0000
  H   H3384     1.0  0.54913  0.76768  0.06109  1.0000
  C   C1919     1.0  0.49271  0.66838  0.97738  1.0000
  S   S433      1.0  0.58253  0.51076  0.99271  1.0000
  H   H3385     1.0  0.52794  0.86447  0.97610  1.0000
  H   H3386     1.0  0.50953  0.98183  0.35728  1.0000
  C   C1920     1.0  0.41894  0.61136  0.35918  1.0000
  H   H3387     1.0  0.56228  0.83172  0.15452  1.0000
  H   H3388     1.0  0.42708  0.94037  0.46704  1.0000
  C   C1921     1.0  0.54051  0.59620  0.41710  1.0000
  H   H3389     1.0  0.49088  0.96529  0.33761  1.0000
  H   H3390     1.0  0.39949  0.91280  0.08391  1.0000
  H   H3391     1.0  0.42551  0.88927  0.28469  1.0000
  H   H3392     1.0  0.46701  0.88102  0.43440  1.0000
  H   H3393     1.0  0.53628  0.58217  0.45320  1.0000
  H   H3394     1.0  0.53458  0.53140  0.07650  1.0000
  S   S434      1.0  0.46117  0.61340  0.97478  1.0000
  N   N104      1.0  0.39478  0.58775  0.10523  1.0000
  H   H3395     1.0  0.46859  0.82644  0.06103  1.0000
  H   H3396     1.0  0.55144  0.63535  0.33373  1.0000
  H   H3397     1.0  0.57553  0.78048  0.32560  1.0000
  H   H3398     1.0  0.58509  0.58030  0.38733  1.0000
  C   C1922     1.0  0.51713  0.87621  0.01466  1.0000
  C   C1923     1.0  0.58528  0.86165  0.45839  1.0000
  H   H3399     1.0  0.40922  0.57606  0.27778  1.0000
  C   C1924     1.0  0.49039  0.67510  0.02483  1.0000
  H   H3400     1.0  0.46594  0.86002  0.42716  1.0000
  H   H3401     1.0  0.41971  0.58306  0.31198  1.0000
  H   H3402     1.0  0.45270  0.52138  0.01513  1.0000
  C   C1925     1.0  0.53405  0.52397  0.34595  1.0000
  H   H3403     1.0  0.47234  0.51562  0.01859  1.0000
  H   H3404     1.0  0.48411  0.54364  0.38387  1.0000
  C   C1926     1.0  0.54519  0.54959  0.97967  1.0000
  C   C1927     1.0  0.50997  0.84033  0.97852  1.0000
  C   C1928     1.0  0.41510  0.74730  0.23760  1.0000
  C   C1929     1.0  0.46658  0.52662  0.01430  1.0000
  C   C1930     1.0  0.47463  0.87190  0.42959  1.0000
  S   S435      1.0  0.50951  0.94104  0.44807  1.0000
  C   C1931     1.0  0.46766  0.53705  0.03315  1.0000
  S   S436      1.0  0.55908  0.71678  0.46856  1.0000
  C   C1932     1.0  0.40822  0.87315  0.18739  1.0000
  H   H3405     1.0  0.39004  0.56792  0.34133  1.0000
  C   C1933     1.0  0.41779  0.95273  0.11806  1.0000
  C   C1934     1.0  0.40674  0.63858  0.09603  1.0000
  C   C1935     1.0  0.40010  0.93660  0.44395  1.0000
  H   H3406     1.0  0.50944  0.54073  0.09743  1.0000
  H   H3407     1.0  0.49243  0.52421  0.11834  1.0000
  H   H3408     1.0  0.45670  0.89184  0.36169  1.0000
  S   S437      1.0  0.56261  0.85484  0.97919  1.0000
  C   C1936     1.0  0.56338  0.86135  0.43480  1.0000
  H   H3409     1.0  0.40289  0.88443  0.45060  1.0000
  H   H3410     1.0  0.43332  0.55805  0.33831  1.0000
  C   C1937     1.0  0.52008  0.50428  0.46072  1.0000
  H   H3411     1.0  0.46140  0.54782  0.02992  1.0000
  H   H3412     1.0  0.38949  0.67928  0.21891  1.0000
  H   H3413     1.0  0.40556  0.72018  0.23890  1.0000
  H   H3414     1.0  0.53269  0.53722  0.34671  1.0000
  S   S438      1.0  0.38992  0.92674  0.38368  1.0000
  H   H3415     1.0  0.50538  0.84110  0.03459  1.0000
  H   H3416     1.0  0.56250  0.54180  0.38741  1.0000
  H   H3417     1.0  0.57169  0.76958  0.37463  1.0000
  C   C1938     1.0  0.55351  0.61252  0.41942  1.0000
  H   H3418     1.0  0.39464  0.81936  0.17475  1.0000
  C   C1939     1.0  0.40146  0.89586  0.12362  1.0000
  H   H3419     1.0  0.40487  0.94579  0.45449  1.0000
  H   H3420     1.0  0.39968  0.98245  0.03436  1.0000
  C   C1940     1.0  0.57735  0.63915  0.40232  1.0000
  C   C1941     1.0  0.49655  0.84749  0.02620  1.0000
  Fe  Fe218     1.0  0.55441  0.50803  0.99370  1.0000
  N   N105      1.0  0.39571  0.91795  0.45752  1.0000
  S   S439      1.0  0.46645  0.94903  0.43618  1.0000
  C   C1942     1.0  0.48485  0.85282  0.04558  1.0000
  H   H3421     1.0  0.55708  0.77632  0.30194  1.0000
  S   S440      1.0  0.51347  0.89247  0.46233  1.0000
  C   C1943     1.0  0.58487  0.54076  0.04841  1.0000
  H   H3422     1.0  0.56426  0.83429  0.44538  1.0000
  H   H3423     1.0  0.38850  0.71652  0.18853  1.0000
  N   N106      1.0  0.57526  0.87246  0.44620  1.0000
  C   C1944     1.0  0.53854  0.77326  0.05686  1.0000
  H   H3424     1.0  0.42707  0.59862  0.03858  1.0000
  C   C1945     1.0  0.53927  0.98465  0.40671  1.0000
  N   N107      1.0  0.50377  0.75311  0.11512  1.0000
  C   C1946     1.0  0.49089  0.76308  0.10959  1.0000
  C   C1947     1.0  0.49685  0.73392  0.11611  1.0000
  C   C1948     1.0  0.50629  0.75477  0.13909  1.0000
  C   C1949     1.0  0.52103  0.76060  0.09824  1.0000
  C   C1950     1.0  0.52118  0.76211  0.07209  1.0000
  C   C1951     1.0  0.49677  0.78309  0.10692  1.0000
  C   C1952     1.0  0.51729  0.74358  0.14987  1.0000
  C   C1953     1.0  0.48540  0.72895  0.09904  1.0000
  C   C1954     1.0  0.48153  0.70943  0.09984  1.0000
  C   C1955     1.0  0.48265  0.79171  0.10175  1.0000
  C   C1956     1.0  0.51921  0.74705  0.17363  1.0000
  H   H3425     1.0  0.47872  0.75789  0.12332  1.0000
  H   H3426     1.0  0.48717  0.76122  0.09315  1.0000
  H   H3427     1.0  0.50760  0.72759  0.11374  1.0000
  H   H3428     1.0  0.48859  0.72709  0.13371  1.0000
  H   H3429     1.0  0.49364  0.75143  0.15168  1.0000
  H   H3430     1.0  0.51257  0.76839  0.13895  1.0000
  H   H3431     1.0  0.52726  0.77369  0.10070  1.0000
  H   H3432     1.0  0.53003  0.75259  0.10199  1.0000
  H   H3433     1.0  0.51123  0.76820  0.06678  1.0000
  H   H3434     1.0  0.51916  0.74900  0.06820  1.0000
  H   H3435     1.0  0.49995  0.78640  0.12301  1.0000
  H   H3436     1.0  0.50826  0.78911  0.09240  1.0000
  H   H3437     1.0  0.53042  0.74670  0.13874  1.0000
  H   H3438     1.0  0.51121  0.72946  0.15249  1.0000
  H   H3439     1.0  0.47285  0.73198  0.10411  1.0000
  H   H3440     1.0  0.49145  0.73607  0.08084  1.0000
  H   H3441     1.0  0.47490  0.70173  0.11775  1.0000
  H   H3442     1.0  0.47295  0.70615  0.08797  1.0000
  H   H3443     1.0  0.49357  0.70565  0.09420  1.0000
  H   H3444     1.0  0.47089  0.78637  0.11597  1.0000
  H   H3445     1.0  0.48713  0.80591  0.10053  1.0000
  H   H3446     1.0  0.47953  0.78972  0.08497  1.0000
  H   H3447     1.0  0.52657  0.76074  0.17171  1.0000
  H   H3448     1.0  0.50638  0.74469  0.18534  1.0000
  H   H3449     1.0  0.52627  0.73830  0.18173  1.0000
  N   N108      1.0  0.40437  0.85099  0.25224  1.0000
  C   C1957     1.0  0.39964  0.85506  0.22901  1.0000
  H   H3450     1.0  0.48242  0.53635  0.35747  1.0000
  C   C1958     1.0  0.40498  0.86683  0.26255  1.0000
  C   C1959     1.0  0.42165  0.84691  0.25032  1.0000
  C   C1960     1.0  0.42738  0.83787  0.23058  1.0000
  C   C1961     1.0  0.41086  0.87229  0.21210  1.0000
  C   C1962     1.0  0.40680  0.86453  0.28820  1.0000
  H   H3451     1.0  0.49807  0.69063  0.04933  1.0000
  C   C1963     1.0  0.39439  0.97641  0.00228  1.0000
  C   C1964     1.0  0.44341  0.83180  0.23353  1.0000
  H   H3452     1.0  0.47222  0.68163  0.98637  1.0000
  H   H3453     1.0  0.55632  0.50943  0.11280  1.0000
  H   H3454     1.0  0.39248  0.57958  0.29881  1.0000
  H   H3455     1.0  0.39996  0.84439  0.21975  1.0000
  H   H3456     1.0  0.42076  0.56174  0.30841  1.0000
  H   H3457     1.0  0.52070  0.87052  0.03089  1.0000
  H   H3458     1.0  0.39202  0.55724  0.14368  1.0000
  H   H3459     1.0  0.41592  0.87789  0.25208  1.0000
  H   H3460     1.0  0.43217  0.85900  0.24756  1.0000
  H   H3461     1.0  0.42211  0.83870  0.26712  1.0000
  H   H3462     1.0  0.43062  0.84705  0.21331  1.0000
  H   H3463     1.0  0.41726  0.82646  0.23004  1.0000
  H   H3464     1.0  0.40724  0.88357  0.21784  1.0000
  H   H3465     1.0  0.42472  0.87378  0.21163  1.0000
  H   H3466     1.0  0.41647  0.85729  0.29140  1.0000
  H   H3467     1.0  0.52019  0.77730  0.29879  1.0000
  C   C1965     1.0  0.53307  0.52090  0.09220  1.0000
  H   H3468     1.0  0.51518  0.66076  0.00052  1.0000
  H   H3469     1.0  0.41633  0.70329  0.20964  1.0000
  C   C1966     1.0  0.42549  0.74486  0.25614  1.0000
  H   H3470     1.0  0.39721  0.92108  0.14555  1.0000
  H   H3471     1.0  0.44051  0.82149  0.24972  1.0000
  H   H3472     1.0  0.44789  0.82633  0.21857  1.0000
  H   H3473     1.0  0.45402  0.84286  0.23414  1.0000
  H   H3474     1.0  0.51948  0.57483  0.43878  1.0000
  C   C1967     1.0  0.49737  0.67137  0.46539  1.0000
  C   C1968     1.0  0.41828  0.74191  0.18202  1.0000
  H   H3475     1.0  0.50043  0.82930  0.99129  1.0000
  H   H3476     1.0  0.41132  0.86191  0.18091  1.0000
  C   C1969     1.0  0.55638  0.62906  0.37996  1.0000
  H   H3477     1.0  0.45444  0.50851  0.98586  1.0000
  H   H3478     1.0  0.43754  0.52435  0.36967  1.0000
  H   H3479     1.0  0.41095  0.62078  0.35835  1.0000
  H   H3480     1.0  0.49767  0.66562  0.03015  1.0000
  H   H3481     1.0  0.56830  0.53332  0.31043  1.0000
  H   H3482     1.0  0.47857  0.67339  0.06085  1.0000
  H   H3483     1.0  0.47830  0.69283  0.04099  1.0000
  H   H3484     1.0  0.49637  0.87134  0.40429  1.0000
  H   H3485     1.0  0.48654  0.83295  0.07421  1.0000
  S   S441      1.0  0.58358  0.55614  0.34068  1.0000
  C   C1970     1.0  0.50915  0.71005  0.46178  1.0000
  C   C1971     1.0  0.53385  0.53994  0.00057  1.0000
  H   H3486     1.0  0.46611  0.51425  0.39487  1.0000
  S   S442      1.0  0.53540  0.97775  0.46862  1.0000
  H   H3487     1.0  0.42102  0.87388  0.10737  1.0000
  H   H3488     1.0  0.44566  0.57508  0.46334  1.0000
  C   C1972     1.0  0.50571  0.49575  0.42879  1.0000
  C   C1973     1.0  0.42936  0.58764  0.05054  1.0000
  C   C1974     1.0  0.48760  0.53441  0.37335  1.0000
  H   H3489     1.0  0.42345  0.92891  0.11307  1.0000
  H   H3490     1.0  0.40238  0.74828  0.24651  1.0000
  H   H3491     1.0  0.54097  0.78680  0.05944  1.0000
  H   H3492     1.0  0.41454  0.86793  0.13887  1.0000
  H   H3493     1.0  0.39927  0.78346  0.23387  1.0000
  H   H3494     1.0  0.57041  0.86056  0.41742  1.0000
  H   H3495     1.0  0.39371  0.93562  0.05461  1.0000
  C   C1975     1.0  0.41224  0.88213  0.29453  1.0000
  C   C1976     1.0  0.47589  0.53828  0.98983  1.0000
  H   H3496     1.0  0.41083  0.93883  0.42847  1.0000
  C   C1977     1.0  0.49444  0.86854  0.99277  1.0000
  N   N109      1.0  0.38860  0.90651  0.12104  1.0000
  C   C1978     1.0  0.54433  0.65863  0.97407  1.0000
  C   C1979     1.0  0.55746  0.51667  0.06588  1.0000
  H   H3497     1.0  0.57689  0.86292  0.06818  1.0000
  H   H3498     1.0  0.54726  0.58707  0.41025  1.0000
  C   C1980     1.0  0.53051  0.57268  0.97970  1.0000
  H   H3499     1.0  0.57778  0.63869  0.34850  1.0000
  H   H3500     1.0  0.42656  0.75593  0.26490  1.0000
  C   C1981     1.0  0.39030  0.83613  0.26839  1.0000
  Fe  Fe219     1.0  0.50331  0.59953  0.97285  1.0000
  C   C1982     1.0  0.41004  0.86758  0.12254  1.0000
  H   H3501     1.0  0.42902  0.98295  0.29783  1.0000
  H   H3502     1.0  0.54615  0.63452  0.38834  1.0000
  H   H3503     1.0  0.48791  0.83712  0.02069  1.0000
  H   H3504     1.0  0.48869  0.54541  0.99154  1.0000
  H   H3505     1.0  0.48602  0.87423  0.00411  1.0000
  H   H3506     1.0  0.53004  0.68135  0.99512  1.0000
  H   H3507     1.0  0.54598  0.62088  0.42681  1.0000
  H   H3508     1.0  0.55767  0.88835  0.45294  1.0000
  H   H3509     1.0  0.53323  0.89291  0.98088  1.0000
  H   H3510     1.0  0.43868  0.74455  0.24807  1.0000
  C   C1983     1.0  0.41305  0.73195  0.22514  1.0000
  H   H3511     1.0  0.47264  0.97206  0.35055  1.0000
  H   H3512     1.0  0.55933  0.73792  0.37994  1.0000
  H   H3513     1.0  0.53638  0.63725  0.45889  1.0000
  H   H3514     1.0  0.41876  0.93050  0.00281  1.0000
  H   H3515     1.0  0.57755  0.89473  0.09025  1.0000
  Fe  Fe220     1.0  0.57349  0.49668  0.39076  1.0000
  C   C1984     1.0  0.41192  0.56973  0.31343  1.0000
  H   H3516     1.0  0.50812  0.89534  0.97450  1.0000
  H   H3517     1.0  0.47787  0.50478  0.42388  1.0000
  H   H3518     1.0  0.56436  0.54223  0.07513  1.0000
  H   H3519     1.0  0.42163  0.75986  0.22527  1.0000
  H   H3520     1.0  0.42290  0.57513  0.04688  1.0000
  H   H3521     1.0  0.48943  0.64772  0.31612  1.0000
  H   H3522     1.0  0.57085  0.54123  0.27967  1.0000
  H   H3523     1.0  0.41219  0.74129  0.16686  1.0000
  H   H3524     1.0  0.47283  0.87374  0.38338  1.0000
  H   H3525     1.0  0.51202  0.53922  0.02716  1.0000
  H   H3526     1.0  0.55308  0.52174  0.05011  1.0000
  C   C1985     1.0  0.50084  0.68893  0.00240  1.0000
  H   H3527     1.0  0.42255  0.95877  0.35406  1.0000
  H   H3528     1.0  0.46091  0.52843  0.05046  1.0000
  H   H3529     1.0  0.51195  0.69707  0.00721  1.0000
  H   H3530     1.0  0.43149  0.56919  0.13334  1.0000
  C   C1986     1.0  0.58431  0.87356  0.07474  1.0000
  C   C1987     1.0  0.48466  0.96883  0.35347  1.0000
  C   C1988     1.0  0.46153  0.65928  0.97436  1.0000
  Fe  Fe221     1.0  0.56531  0.85463  0.01596  1.0000
  N   N110      1.0  0.41015  0.56194  0.35784  1.0000
  H   H3531     1.0  0.43753  0.76155  0.19109  1.0000
  C   C1989     1.0  0.42713  0.92630  0.98941  1.0000
  C   C1990     1.0  0.48083  0.88588  0.38636  1.0000
  H   H3532     1.0  0.57380  0.90038  0.04959  1.0000
  H   H3533     1.0  0.50697  0.51240  0.35615  1.0000
  C   C1991     1.0  0.41949  0.58031  0.35770  1.0000
  Fe  Fe222     1.0  0.57853  0.84575  0.36528  1.0000
  H   H3534     1.0  0.46807  0.84144  0.07992  1.0000
  H   H3535     1.0  0.38895  0.87860  0.41853  1.0000
  H   H3536     1.0  0.57199  0.90477  0.41960  1.0000
  C   C1992     1.0  0.54183  0.90316  0.00859  1.0000
  H   H3537     1.0  0.43034  0.96071  0.10667  1.0000
  H   H3538     1.0  0.42689  0.57800  0.08701  1.0000
  H   H3539     1.0  0.50915  0.88499  0.01976  1.0000
  S   S443      1.0  0.57230  0.82494  0.39895  1.0000
  H   H3540     1.0  0.44667  0.97773  0.36487  1.0000
  H   H3541     1.0  0.53918  0.52755  0.10454  1.0000
  C   C1993     1.0  0.51851  0.51015  0.36190  1.0000
  C   C1994     1.0  0.40448  0.58403  0.12392  1.0000
  C   C1995     1.0  0.51901  0.56291  0.00043  1.0000
  H   H3542     1.0  0.48551  0.85753  0.98868  1.0000
  H   H3543     1.0  0.50957  0.52113  0.43886  1.0000
  H   H3544     1.0  0.39818  0.64169  0.08439  1.0000
  H   H3545     1.0  0.56052  0.87491  0.09747  1.0000
  H   H3546     1.0  0.42018  0.76964  0.18237  1.0000
  N   N111      1.0  0.50121  0.50041  0.40547  1.0000
  C   C1996     1.0  0.57133  0.88365  0.08349  1.0000
  H   H3547     1.0  0.56868  0.81726  0.13692  1.0000
  H   H3548     1.0  0.44741  0.91388  0.33672  1.0000
  H   H3549     1.0  0.50901  0.56810  0.00859  1.0000
  H   H3550     1.0  0.40153  0.91012  0.42493  1.0000
  N   N112      1.0  0.50685  0.86195  0.00549  1.0000
  H   H3551     1.0  0.47802  0.66776  0.02212  1.0000
  C   C1997     1.0  0.57706  0.80769  0.31334  1.0000
  H   H3552     1.0  0.51743  0.73752  0.44462  1.0000
  H   H3553     1.0  0.43815  0.59460  0.46197  1.0000
  H   H3554     1.0  0.55451  0.91075  0.99718  1.0000
  H   H3555     1.0  0.57078  0.80582  0.29870  1.0000
  C   C1998     1.0  0.53446  0.88773  0.99866  1.0000
  H   H3556     1.0  0.53235  0.97397  0.42206  1.0000
  C   C1999     1.0  0.41011  0.62088  0.09491  1.0000
  H   H3557     1.0  0.52673  0.84852  0.00108  1.0000
  C   C2000     1.0  0.48612  0.68361  0.04518  1.0000
  Fe  Fe223     1.0  0.48162  0.93880  0.46106  1.0000
  H   H3558     1.0  0.44626  0.95562  0.40302  1.0000
  H   H3559     1.0  0.38806  0.68409  0.18868  1.0000
  H   H3560     1.0  0.48131  0.95740  0.36837  1.0000
  H   H3561     1.0  0.40517  0.85373  0.12194  1.0000
  H   H3562     1.0  0.56002  0.74392  0.40733  1.0000
  H   H3563     1.0  0.50870  0.67232  0.45127  1.0000
  S   S444      1.0  0.58610  0.52278  0.39632  1.0000
  H   H3564     1.0  0.48154  0.50436  0.98603  1.0000
  S   S445      1.0  0.57946  0.88294  0.00806  1.0000
  H   H3565     1.0  0.40033  0.53313  0.45339  1.0000
  H   H3566     1.0  0.55424  0.89804  0.07060  1.0000
  C   C2001     1.0  0.40296  0.58477  0.08207  1.0000
  H   H3567     1.0  0.41209  0.93791  0.09285  1.0000
  C   C2002     1.0  0.39213  0.96076  0.41852  1.0000
  H   H3568     1.0  0.55312  0.86760  0.43126  1.0000
  C   C2003     1.0  0.39720  0.55435  0.38081  1.0000
  C   C2004     1.0  0.42283  0.58813  0.07593  1.0000
  C   C2005     1.0  0.54861  0.49924  0.10586  1.0000
  H   H3569     1.0  0.53480  0.76970  0.27935  1.0000
  C   C2006     1.0  0.39700  0.98256  0.97825  1.0000
  H   H3570     1.0  0.40070  0.63867  0.11416  1.0000
  H   H3571     1.0  0.39422  0.85727  0.30016  1.0000
  C   C2007     1.0  0.56539  0.88106  0.46231  1.0000
  N   N113      1.0  0.54212  0.50743  0.08573  1.0000
  H   H3572     1.0  0.38743  0.74659  0.18971  1.0000
  N   N114      1.0  0.56633  0.62309  0.39742  1.0000
  C   C2008     1.0  0.55608  0.64699  0.34057  1.0000
  C   C2009     1.0  0.41288  0.93520  0.11138  1.0000
  C   C2010     1.0  0.43293  0.54917  0.37428  1.0000
  C   C2011     1.0  0.43679  0.98315  0.35924  1.0000
  C   C2012     1.0  0.39316  0.60618  0.10288  1.0000
  C   C2013     1.0  0.44494  0.53760  0.36987  1.0000
  C   C2014     1.0  0.56358  0.89104  0.06386  1.0000
  H   H3573     1.0  0.57243  0.84273  0.10360  1.0000
  C   C2015     1.0  0.44488  0.58621  0.47155  1.0000
  H   H3574     1.0  0.39437  0.54791  0.33835  1.0000
  H   H3575     1.0  0.41681  0.88536  0.17565  1.0000
  H   H3576     1.0  0.50545  0.70659  0.44595  1.0000
  H   H3577     1.0  0.56909  0.60232  0.37985  1.0000
  H   H3578     1.0  0.57075  0.85800  0.12087  1.0000
  H   H3579     1.0  0.45187  0.53646  0.38412  1.0000
  C   C2016     1.0  0.57155  0.79098  0.33313  1.0000
  H   H3580     1.0  0.56669  0.51808  0.29184  1.0000
  H   H3581     1.0  0.48852  0.65654  0.99184  1.0000
  H   H3582     1.0  0.39780  0.57105  0.08095  1.0000
  S   S446      1.0  0.50168  0.62627  0.97651  1.0000
  H   H3583     1.0  0.55006  0.84043  0.46671  1.0000
  H   H3584     1.0  0.42402  0.54304  0.39146  1.0000
  S   S447      1.0  0.57544  0.50590  0.35258  1.0000
  H   H3585     1.0  0.52972  0.82612  0.97770  1.0000
  H   H3586     1.0  0.42601  0.72973  0.21999  1.0000
  H   H3587     1.0  0.39935  0.59286  0.06763  1.0000
  C   C2017     1.0  0.51337  0.51462  0.10252  1.0000
  C   C2018     1.0  0.58022  0.85232  0.11132  1.0000
  H   H3588     1.0  0.53997  0.79219  0.28095  1.0000
  H   H3589     1.0  0.41914  0.73258  0.26946  1.0000
  C   C2019     1.0  0.57058  0.53212  0.07030  1.0000
  C   C2020     1.0  0.53397  0.77866  0.29130  1.0000
  C   C2021     1.0  0.40753  0.70341  0.19762  1.0000
  C   C2022     1.0  0.39583  0.71564  0.20251  1.0000
  H   H3590     1.0  0.40312  0.55702  0.39558  1.0000
  Fe  Fe224     1.0  0.38859  0.93681  0.34704  1.0000
  H   H3591     1.0  0.40799  0.96002  0.11573  1.0000
  H   H3592     1.0  0.44694  0.78200  0.15282  1.0000
  H   H3593     1.0  0.40501  0.59607  0.33952  1.0000
  C   C2023     1.0  0.57891  0.80554  0.40559  1.0000
  H   H3594     1.0  0.55668  0.88039  0.05687  1.0000
  H   H3595     1.0  0.57848  0.82091  0.16080  1.0000
  H   H3596     1.0  0.57676  0.52760  0.08442  1.0000
  H   H3597     1.0  0.39172  0.87578  0.10506  1.0000
  H   H3598     1.0  0.42034  0.91306  0.98825  1.0000
  H   H3599     1.0  0.52193  0.97659  0.38576  1.0000
  H   H3600     1.0  0.45820  0.59397  0.47009  1.0000
  H   H3601     1.0  0.57943  0.54596  0.03378  1.0000
  C   C2024     1.0  0.52273  0.72753  0.45389  1.0000
  H   H3602     1.0  0.39318  0.83300  0.28586  1.0000
  H   H3603     1.0  0.45033  0.98484  0.98563  1.0000
  C   C2025     1.0  0.39556  0.92357  0.12727  1.0000
  C   C2026     1.0  0.47665  0.67460  0.97324  1.0000
  H   H3604     1.0  0.49137  0.64878  0.43586  1.0000
  C   C2027     1.0  0.48626  0.65220  0.47157  1.0000
  H   H3605     1.0  0.39468  0.87306  0.18704  1.0000
  C   C2028     1.0  0.57332  0.82718  0.14658  1.0000
  H   H3606     1.0  0.57271  0.65550  0.36228  1.0000
  H   H3607     1.0  0.51626  0.50164  0.97296  1.0000
  C   C2029     1.0  0.41169  0.91492  0.46497  1.0000
  H   H3608     1.0  0.57060  0.64973  0.40146  1.0000
  H   H3609     1.0  0.39688  0.58942  0.37062  1.0000
  C   C2030     1.0  0.48931  0.51709  0.97447  1.0000
  C   C2031     1.0  0.49681  0.98447  0.35820  1.0000
  H   H3610     1.0  0.57868  0.59534  0.41914  1.0000
  C   C2032     1.0  0.43606  0.99394  0.28280  1.0000
  H   H3611     1.0  0.52667  0.73196  0.46913  1.0000
  H   H3612     1.0  0.52520  0.71860  0.97433  1.0000
  C   C2033     1.0  0.57714  0.61240  0.38667  1.0000
  C   C2034     1.0  0.39163  0.74400  0.20641  1.0000
  H   H3613     1.0  0.57437  0.89113  0.46793  1.0000
  H   H3614     1.0  0.38661  0.56091  0.38182  1.0000
  C   C2035     1.0  0.38672  0.81864  0.26073  1.0000
  H   H3615     1.0  0.44220  0.57058  0.50563  1.0000
  H   H3616     1.0  0.42926  0.59444  0.72978  1.0000
  Fe  Fe225     1.0  0.56055  0.71701  0.50572  1.0000
  S   S448      1.0  0.57091  0.69359  0.51020  1.0000
  S   S449      1.0  0.53540  0.71735  0.52911  1.0000
  H   H3617     1.0  0.39550  0.50570  0.58793  1.0000
  H   H3618     1.0  0.42616  0.95846  0.92844  1.0000
  Fe  Fe226     1.0  0.55994  0.75286  0.82197  1.0000
  S   S450      1.0  0.55202  0.75246  0.78703  1.0000
  Fe  Fe227     1.0  0.56534  0.73166  0.86615  1.0000
  S   S451      1.0  0.56172  0.70414  0.88621  1.0000
  S   S452      1.0  0.54505  0.74537  0.85945  1.0000
  Fe  Fe228     1.0  0.49668  0.70150  0.66546  1.0000
  S   S453      1.0  0.48747  0.68196  0.70002  1.0000
  S   S454      1.0  0.51992  0.69916  0.64010  1.0000
  Fe  Fe229     1.0  0.46927  0.72014  0.67792  1.0000
  S   S455      1.0  0.45780  0.70172  0.71286  1.0000
  S   S456      1.0  0.46050  0.74353  0.66247  1.0000
  Fe  Fe230     1.0  0.48533  0.70473  0.71622  1.0000
  S   S457      1.0  0.49089  0.70705  0.75214  1.0000
  Fe  Fe231     1.0  0.46081  0.68033  0.69391  1.0000
  S   S458      1.0  0.44133  0.65328  0.70354  1.0000
  S   S459      1.0  0.49657  0.72436  0.68215  1.0000
  S   S460      1.0  0.47026  0.69865  0.65859  1.0000
  Fe  Fe232     1.0  0.43284  0.85467  0.71906  1.0000
  S   S461      1.0  0.45165  0.84209  0.70123  1.0000
  S   S462      1.0  0.43595  0.87240  0.74479  1.0000
  H   H3619     1.0  0.45424  0.95415  0.92205  1.0000
  S   S463      1.0  0.42144  0.82578  0.67484  1.0000
  Fe  Fe233     1.0  0.42951  0.81839  0.70836  1.0000
  S   S464      1.0  0.43119  0.79129  0.72413  1.0000
  Fe  Fe234     1.0  0.44239  0.85054  0.66876  1.0000
  S   S465      1.0  0.46306  0.86096  0.63510  1.0000
  S   S466      1.0  0.41114  0.83017  0.72888  1.0000
  S   S467      1.0  0.42501  0.86468  0.68610  1.0000
  Fe  Fe235     1.0  0.50655  0.90566  0.87220  1.0000
  S   S468      1.0  0.52285  0.91609  0.83597  1.0000
  S   S469      1.0  0.51258  0.88391  0.89596  1.0000
  Fe  Fe236     1.0  0.48230  0.92797  0.86357  1.0000
  S   S470      1.0  0.49659  0.93980  0.82636  1.0000
  S   S471      1.0  0.46039  0.93885  0.87711  1.0000
  Fe  Fe237     1.0  0.49786  0.91256  0.82429  1.0000
  S   S472      1.0  0.49703  0.89920  0.79363  1.0000
  Fe  Fe238     1.0  0.52009  0.94224  0.84134  1.0000
  S   S473      1.0  0.54216  0.96681  0.82842  1.0000
  S   S474      1.0  0.48165  0.90054  0.86048  1.0000
  S   S475      1.0  0.50570  0.93203  0.87860  1.0000
  H   H3620     1.0  0.41839  0.93800  0.96061  1.0000
  Fe  Fe239     1.0  0.48275  0.92568  0.51185  1.0000
  S   S476      1.0  0.48604  0.95243  0.48980  1.0000
  S   S477      1.0  0.46406  0.91900  0.54726  1.0000
  H   H3621     1.0  0.55182  0.65555  0.95870  1.0000
  H   H3622     1.0  0.39142  0.85336  0.82247  1.0000
  H   H3623     1.0  0.40830  0.75387  0.63765  1.0000
  S   S478      1.0  0.51102  0.92696  0.50272  1.0000
  H   H3624     1.0  0.44294  0.91942  0.80972  1.0000
  H   H3625     1.0  0.41736  0.53879  0.70626  1.0000
  H   H3626     1.0  0.53519  0.64959  0.51357  1.0000
  H   H3627     1.0  0.44839  0.86401  0.86860  1.0000
  H   H3628     1.0  0.42680  0.90845  0.50375  1.0000
  H   H3629     1.0  0.47831  0.78346  0.75342  1.0000
  S   S479      1.0  0.48886  0.64930  0.92113  1.0000
  C   C2036     1.0  0.41574  0.56114  0.77963  1.0000
  H   H3630     1.0  0.46387  0.75469  0.76987  1.0000
  S   S480      1.0  0.49006  0.59976  0.94311  1.0000
  C   C2037     1.0  0.42643  0.60108  0.76291  1.0000
  C   C2038     1.0  0.38818  0.55365  0.52553  1.0000
  S   S481      1.0  0.43500  0.54573  0.87338  1.0000
  H   H3631     1.0  0.40555  0.58293  0.58157  1.0000
  Fe  Fe240     1.0  0.39893  0.50458  0.83641  1.0000
  C   C2039     1.0  0.38849  0.77056  0.72478  1.0000
  C   C2040     1.0  0.46609  0.90474  0.65615  1.0000
  H   H3632     1.0  0.41012  0.53285  0.49678  1.0000
  H   H3633     1.0  0.49973  0.95877  0.61301  1.0000
  H   H3634     1.0  0.51676  0.82298  0.95674  1.0000
  C   C2041     1.0  0.54978  0.98831  0.88354  1.0000
  H   H3635     1.0  0.47162  0.95353  0.95463  1.0000
  C   C2042     1.0  0.51175  0.66555  0.49724  1.0000
  H   H3636     1.0  0.48413  0.92815  0.61537  1.0000
  C   C2043     1.0  0.44258  0.55959  0.94265  1.0000
  C   C2044     1.0  0.45364  0.56930  0.92154  1.0000
  C   C2045     1.0  0.45122  0.56487  0.90045  1.0000
  C   C2046     1.0  0.43772  0.55073  0.90028  1.0000
  C   C2047     1.0  0.42673  0.54099  0.92140  1.0000
  C   C2048     1.0  0.42916  0.54541  0.94248  1.0000
  H   H3637     1.0  0.46398  0.58027  0.92140  1.0000
  H   H3638     1.0  0.45974  0.57250  0.88418  1.0000
  H   H3639     1.0  0.41622  0.53016  0.92150  1.0000
  H   H3640     1.0  0.52633  0.72997  0.93214  1.0000
  H   H3641     1.0  0.50310  0.80677  0.72060  1.0000
  S   S482      1.0  0.57113  0.90455  0.94974  1.0000
  H   H3642     1.0  0.53307  0.84307  0.95192  1.0000
  H   H3643     1.0  0.56699  0.82366  0.83558  1.0000
  H   H3644     1.0  0.56303  0.90709  0.84679  1.0000
  H   H3645     1.0  0.47904  0.66661  0.51049  1.0000
  H   H3646     1.0  0.48508  0.82715  0.71594  1.0000
  H   H3647     1.0  0.40892  0.90156  0.47599  1.0000
  S   S483      1.0  0.39661  0.89257  0.95652  1.0000
  H   H3648     1.0  0.54524  0.81027  0.84622  1.0000
  C   C2049     1.0  0.40467  0.89671  0.87359  1.0000
  H   H3649     1.0  0.51879  0.65985  0.48416  1.0000
  H   H3650     1.0  0.43932  0.93409  0.95314  1.0000
  C   C2050     1.0  0.54870  0.98143  0.84585  1.0000
  H   H3651     1.0  0.53380  0.96470  0.87860  1.0000
  C   C2051     1.0  0.44303  0.92574  0.89943  1.0000
  C   C2052     1.0  0.42843  0.93183  0.90475  1.0000
  C   C2053     1.0  0.41425  0.92182  0.92243  1.0000
  C   C2054     1.0  0.41450  0.90554  0.93477  1.0000
  C   C2055     1.0  0.42912  0.89940  0.92938  1.0000
  C   C2056     1.0  0.44343  0.90952  0.91179  1.0000
  H   H3652     1.0  0.42803  0.94430  0.89502  1.0000
  H   H3653     1.0  0.40307  0.92665  0.92637  1.0000
  H   H3654     1.0  0.42936  0.88679  0.93886  1.0000
  H   H3655     1.0  0.45470  0.90477  0.90777  1.0000
  C   C2057     1.0  0.45301  0.87904  0.75864  1.0000
  C   C2058     1.0  0.46911  0.87588  0.75228  1.0000
  C   C2059     1.0  0.48240  0.88209  0.76322  1.0000
  C   C2060     1.0  0.47972  0.89133  0.78078  1.0000
  C   C2061     1.0  0.46358  0.89434  0.78724  1.0000
  C   C2062     1.0  0.45037  0.88837  0.77608  1.0000
  H   H3656     1.0  0.47137  0.86881  0.73883  1.0000
  H   H3657     1.0  0.49485  0.87971  0.75805  1.0000
  H   H3658     1.0  0.46142  0.90145  0.80062  1.0000
  H   H3659     1.0  0.43807  0.89111  0.78079  1.0000
  C   C2063     1.0  0.46276  0.87663  0.61052  1.0000
  C   C2064     1.0  0.47702  0.88208  0.59147  1.0000
  C   C2065     1.0  0.47749  0.89481  0.57178  1.0000
  C   C2066     1.0  0.46375  0.90234  0.57111  1.0000
  C   C2067     1.0  0.44951  0.89691  0.59021  1.0000
  C   C2068     1.0  0.44894  0.88401  0.60975  1.0000
  H   H3660     1.0  0.48776  0.87640  0.59189  1.0000
  H   H3661     1.0  0.48853  0.89889  0.55722  1.0000
  H   H3662     1.0  0.43880  0.90263  0.58979  1.0000
  H   H3663     1.0  0.43783  0.87978  0.62420  1.0000
  C   C2069     1.0  0.42982  0.64019  0.68733  1.0000
  C   C2070     1.0  0.43072  0.64596  0.66359  1.0000
  C   C2071     1.0  0.42179  0.63489  0.65141  1.0000
  C   C2072     1.0  0.41187  0.61787  0.66267  1.0000
  C   C2073     1.0  0.41071  0.61219  0.68652  1.0000
  C   C2074     1.0  0.41954  0.62332  0.69873  1.0000
  H   H3664     1.0  0.43814  0.65902  0.65470  1.0000
  H   H3665     1.0  0.42256  0.63956  0.63308  1.0000
  Fe  Fe241     1.0  0.48646  0.62542  0.94910  1.0000
  H   H3666     1.0  0.41831  0.61890  0.71719  1.0000
  C   C2075     1.0  0.45242  0.75665  0.67991  1.0000
  C   C2076     1.0  0.45403  0.77418  0.66987  1.0000
  C   C2077     1.0  0.44795  0.78505  0.68336  1.0000
  C   C2078     1.0  0.43968  0.77831  0.70681  1.0000
  C   C2079     1.0  0.43793  0.76075  0.71680  1.0000
  C   C2080     1.0  0.44435  0.74997  0.70345  1.0000
  H   H3667     1.0  0.46038  0.77946  0.65170  1.0000
  H   H3668     1.0  0.44969  0.79865  0.67565  1.0000
  H   H3669     1.0  0.43151  0.75546  0.73494  1.0000
  H   H3670     1.0  0.44290  0.73645  0.71127  1.0000
  C   C2081     1.0  0.50911  0.66450  0.91141  1.0000
  C   C2082     1.0  0.52409  0.65949  0.91357  1.0000
  C   C2083     1.0  0.54014  0.67179  0.90558  1.0000
  C   C2084     1.0  0.54134  0.68911  0.89521  1.0000
  C   C2085     1.0  0.52636  0.69407  0.89267  1.0000
  C   C2086     1.0  0.51027  0.68177  0.90076  1.0000
  H   H3671     1.0  0.52332  0.64616  0.92157  1.0000
  H   H3672     1.0  0.55170  0.66788  0.90759  1.0000
  H   H3673     1.0  0.52716  0.70740  0.88473  1.0000
  H   H3674     1.0  0.49869  0.68569  0.89901  1.0000
  C   C2087     1.0  0.53501  0.73932  0.77788  1.0000
  C   C2088     1.0  0.53657  0.73983  0.75393  1.0000
  C   C2089     1.0  0.52330  0.73006  0.74568  1.0000
  C   C2090     1.0  0.50817  0.71972  0.76130  1.0000
  C   C2091     1.0  0.50654  0.71933  0.78521  1.0000
  C   C2092     1.0  0.51986  0.72896  0.79350  1.0000
  H   H3675     1.0  0.54816  0.74785  0.74163  1.0000
  H   H3676     1.0  0.52480  0.73054  0.72724  1.0000
  H   H3677     1.0  0.49480  0.71160  0.79739  1.0000
  H   H3678     1.0  0.51833  0.72855  0.81192  1.0000
  C   C2093     1.0  0.53181  0.71352  0.55993  1.0000
  C   C2094     1.0  0.51620  0.71475  0.57291  1.0000
  C   C2095     1.0  0.51269  0.71126  0.59746  1.0000
  C   C2096     1.0  0.52471  0.70631  0.60929  1.0000
  C   C2097     1.0  0.54037  0.70526  0.59628  1.0000
  C   C2098     1.0  0.54393  0.70886  0.57174  1.0000
  H   H3679     1.0  0.50679  0.71847  0.56393  1.0000
  H   H3680     1.0  0.50062  0.71219  0.60725  1.0000
  H   H3681     1.0  0.54975  0.70141  0.60524  1.0000
  H   H3682     1.0  0.55602  0.70790  0.56199  1.0000
  C   C2099     1.0  0.55485  0.89867  0.93486  1.0000
  C   C2100     1.0  0.55044  0.88203  0.93054  1.0000
  C   C2101     1.0  0.53730  0.87762  0.91882  1.0000
  C   C2102     1.0  0.52887  0.88993  0.91072  1.0000
  C   C2103     1.0  0.53329  0.90660  0.91500  1.0000
  C   C2104     1.0  0.54613  0.91087  0.92726  1.0000
  H   H3683     1.0  0.55726  0.87261  0.93601  1.0000
  H   H3684     1.0  0.53376  0.86469  0.91583  1.0000
  H   H3685     1.0  0.52665  0.91610  0.90916  1.0000
  H   H3686     1.0  0.54913  0.92356  0.93117  1.0000
  H   H3687     1.0  0.54366  0.80776  0.91870  1.0000
  H   H3688     1.0  0.54083  0.66316  0.53315  1.0000
  C   C2105     1.0  0.39081  0.51427  0.75664  1.0000
  C   C2106     1.0  0.41381  0.89212  0.83343  1.0000
  N   N115      1.0  0.40735  0.55863  0.52364  1.0000
  S   S484      1.0  0.40027  0.49955  0.90207  1.0000
  C   C2107     1.0  0.53189  0.66874  0.96625  1.0000
  S   S485      1.0  0.39129  0.52319  0.85733  1.0000
  H   H3689     1.0  0.48016  0.94296  0.91924  1.0000
  C   C2108     1.0  0.40182  0.55955  0.56757  1.0000
  H   H3690     1.0  0.41694  0.86446  0.87728  1.0000
  Fe  Fe242     1.0  0.57070  0.69423  0.47253  1.0000
  C   C2109     1.0  0.54361  0.56600  0.96940  1.0000
  H   H3691     1.0  0.40963  0.58104  0.49628  1.0000
  H   H3692     1.0  0.51201  0.50028  0.87015  1.0000
  H   H3693     1.0  0.46353  0.51867  0.93225  1.0000
  H   H3694     1.0  0.39844  0.88270  0.88122  1.0000
  H   H3695     1.0  0.56375  0.93855  0.83607  1.0000
  C   C2110     1.0  0.42723  0.91875  0.84413  1.0000
  C   C2111     1.0  0.41397  0.54264  0.52838  1.0000
  H   H3696     1.0  0.44422  0.62324  0.73712  1.0000
  S   S486      1.0  0.38826  0.55231  0.67007  1.0000
  H   H3697     1.0  0.50296  0.98310  0.86061  1.0000
  C   C2112     1.0  0.42698  0.87456  0.88089  1.0000
  H   H3698     1.0  0.50613  0.93200  0.65230  1.0000
  H   H3699     1.0  0.45223  0.51124  0.89059  1.0000
  H   H3700     1.0  0.42456  0.57295  0.54133  1.0000
  H   H3701     1.0  0.42519  0.54526  0.53656  1.0000
  H   H3702     1.0  0.39246  0.58465  0.78133  1.0000
  H   H3703     1.0  0.39980  0.58248  0.73728  1.0000
  C   C2113     1.0  0.53038  0.65776  0.52491  1.0000
  H   H3704     1.0  0.43196  0.51014  0.94968  1.0000
  H   H3705     1.0  0.40827  0.87060  0.80251  1.0000
  C   C2114     1.0  0.53641  0.72412  0.93770  1.0000
  H   H3706     1.0  0.56477  0.96462  0.94519  1.0000
  H   H3707     1.0  0.42049  0.53787  0.95872  1.0000
  H   H3708     1.0  0.41075  0.56810  0.79254  1.0000
  Fe  Fe243     1.0  0.51373  0.95279  0.47867  1.0000
  H   H3709     1.0  0.40638  0.54807  0.78415  1.0000
  C   C2115     1.0  0.47557  0.96306  0.93764  1.0000
  C   C2116     1.0  0.52349  0.86046  0.84486  1.0000
  H   H3710     1.0  0.47465  0.65018  0.48552  1.0000
  H   H3711     1.0  0.38880  0.54904  0.48992  1.0000
  C   C2117     1.0  0.47940  0.81393  0.72739  1.0000
  H   H3712     1.0  0.41501  0.56355  0.48582  1.0000
  H   H3713     1.0  0.52186  0.70118  0.48821  1.0000
  H   H3714     1.0  0.55603  0.88676  0.50737  1.0000
  H   H3715     1.0  0.48340  0.97560  0.93950  1.0000
  C   C2118     1.0  0.43153  0.97131  0.93200  1.0000
  C   C2119     1.0  0.40691  0.78597  0.63830  1.0000
  H   H3716     1.0  0.55880  0.80566  0.80847  1.0000
  H   H3717     1.0  0.54298  0.50979  0.87348  1.0000
  H   H3718     1.0  0.47068  0.98323  0.97030  1.0000
  H   H3719     1.0  0.53677  0.86328  0.87228  1.0000
  H   H3720     1.0  0.50115  0.70142  0.51557  1.0000
  H   H3721     1.0  0.51626  0.87149  0.81352  1.0000
  H   H3722     1.0  0.47962  0.81477  0.74564  1.0000
  H   H3723     1.0  0.58050  0.97605  0.88011  1.0000
  H   H3724     1.0  0.58146  0.68552  0.83135  1.0000
  C   C2120     1.0  0.58193  0.79800  0.90616  1.0000
  S   S487      1.0  0.55678  0.50876  0.95578  1.0000
  H   H3725     1.0  0.46534  0.97622  0.91158  1.0000
  C   C2121     1.0  0.48768  0.67972  0.50183  1.0000
  C   C2122     1.0  0.43058  0.54984  0.81049  1.0000
  H   H3726     1.0  0.50353  0.70294  0.95707  1.0000
  Fe  Fe244     1.0  0.41453  0.52199  0.87215  1.0000
  H   H3727     1.0  0.41239  0.50792  0.52600  1.0000
  H   H3728     1.0  0.44425  0.98091  0.89481  1.0000
  N   N116      1.0  0.41952  0.89934  0.85315  1.0000
  H   H3729     1.0  0.56103  0.93822  0.88352  1.0000
  C   C2123     1.0  0.53027  0.82762  0.87453  1.0000
  C   C2124     1.0  0.51904  0.83195  0.89530  1.0000
  H   H3730     1.0  0.40403  0.53200  0.54150  1.0000
  H   H3731     1.0  0.39977  0.79621  0.63880  1.0000
  C   C2125     1.0  0.45849  0.50947  0.94950  1.0000
  H   H3732     1.0  0.43980  0.93046  0.49884  1.0000
  C   C2126     1.0  0.50633  0.81547  0.91111  1.0000
  H   H3733     1.0  0.46489  0.65214  0.96079  1.0000
  H   H3734     1.0  0.40309  0.71269  0.68072  1.0000
  H   H3735     1.0  0.55075  0.87043  0.84471  1.0000
  C   C2127     1.0  0.54729  0.83832  0.83425  1.0000
  H   H3736     1.0  0.39956  0.78986  0.67888  1.0000
  H   H3737     1.0  0.45130  0.52767  0.96933  1.0000
  H   H3738     1.0  0.55682  0.84946  0.82131  1.0000
  H   H3739     1.0  0.58510  0.84281  0.89202  1.0000
  H   H3740     1.0  0.52106  0.82134  0.86499  1.0000
  H   H3741     1.0  0.53589  0.81708  0.88175  1.0000
  H   H3742     1.0  0.51137  0.84076  0.88912  1.0000
  H   H3743     1.0  0.52690  0.83826  0.90606  1.0000
  H   H3744     1.0  0.55536  0.54456  0.97163  1.0000
  H   H3745     1.0  0.51536  0.86697  0.85532  1.0000
  C   C2128     1.0  0.46065  0.99033  0.96946  1.0000
  H   H3746     1.0  0.49513  0.89668  0.94075  1.0000
  H   H3747     1.0  0.50385  0.92170  0.61492  1.0000
  C   C2129     1.0  0.43087  0.93884  0.96569  1.0000
  H   H3748     1.0  0.51921  0.64958  0.53885  1.0000
  C   C2130     1.0  0.57319  0.95740  0.91271  1.0000
  C   C2131     1.0  0.43316  0.92068  0.49032  1.0000
  H   H3749     1.0  0.49770  0.80886  0.90120  1.0000
  H   H3750     1.0  0.51327  0.80632  0.91861  1.0000
  H   H3751     1.0  0.49832  0.81896  0.92562  1.0000
  H   H3752     1.0  0.54110  0.86155  0.47889  1.0000
  C   C2132     1.0  0.52927  0.71124  0.96133  1.0000
  H   H3753     1.0  0.53535  0.88468  0.81863  1.0000
  Fe  Fe245     1.0  0.40454  0.83919  0.69476  1.0000
  H   H3754     1.0  0.53718  0.68097  0.49784  1.0000
  H   H3755     1.0  0.38799  0.87465  0.81445  1.0000
  S   S488      1.0  0.47616  0.91208  0.48369  1.0000
  C   C2133     1.0  0.50179  0.55656  0.94718  1.0000
  H   H3756     1.0  0.44284  0.57103  0.78109  1.0000
  H   H3757     1.0  0.52354  0.66063  0.95763  1.0000
  H   H3758     1.0  0.44056  0.49618  0.58208  1.0000
  C   C2134     1.0  0.56108  0.84451  0.86561  1.0000
  C   C2135     1.0  0.43320  0.89140  0.86107  1.0000
  C   C2136     1.0  0.42603  0.79452  0.63746  1.0000
  S   S489      1.0  0.40177  0.60420  0.64590  1.0000
  H   H3759     1.0  0.50446  0.98907  0.57429  1.0000
  H   H3760     1.0  0.42253  0.72957  0.66714  1.0000
  C   C2137     1.0  0.54300  0.97703  0.87013  1.0000
  C   C2138     1.0  0.43287  0.81170  0.61917  1.0000
  N   N117      1.0  0.47784  0.52904  0.97006  1.0000
  C   C2139     1.0  0.51070  0.56688  0.92240  1.0000
  H   H3761     1.0  0.41128  0.77449  0.68567  1.0000
  H   H3762     1.0  0.54566  0.98460  0.90232  1.0000
  H   H3763     1.0  0.52040  0.99453  0.93839  1.0000
  Fe  Fe246     1.0  0.50466  0.91530  0.47271  1.0000
  H   H3764     1.0  0.50443  0.50049  0.89953  1.0000
  H   H3765     1.0  0.42059  0.76064  0.65730  1.0000
  S   S490      1.0  0.52902  0.59334  0.96641  1.0000
  H   H3766     1.0  0.41251  0.97231  0.89811  1.0000
  C   C2140     1.0  0.38785  0.51464  0.78036  1.0000
  H   H3767     1.0  0.40543  0.89953  0.82581  1.0000
  H   H3768     1.0  0.43421  0.78585  0.63281  1.0000
  H   H3769     1.0  0.42769  0.79733  0.65441  1.0000
  H   H3770     1.0  0.53945  0.88892  0.49159  1.0000
  H   H3771     1.0  0.47962  0.68338  0.95570  1.0000
  H   H3772     1.0  0.42084  0.97393  0.94387  1.0000
  C   C2141     1.0  0.43552  0.57956  0.49713  1.0000
  H   H3773     1.0  0.53475  0.51134  0.90300  1.0000
  H   H3774     1.0  0.41813  0.92487  0.83616  1.0000
  H   H3775     1.0  0.42485  0.59546  0.78167  1.0000
  C   C2142     1.0  0.44174  0.61720  0.75597  1.0000
  H   H3776     1.0  0.52672  0.97643  0.51874  1.0000
  C   C2143     1.0  0.41058  0.56897  0.54186  1.0000
  H   H3777     1.0  0.43224  0.80952  0.60152  1.0000
  H   H3778     1.0  0.42538  0.82111  0.62315  1.0000
  H   H3779     1.0  0.57180  0.85296  0.85106  1.0000
  H   H3780     1.0  0.49730  0.66367  0.96172  1.0000
  H   H3781     1.0  0.40837  0.56544  0.71127  1.0000
  H   H3782     1.0  0.46356  0.50963  0.86273  1.0000
  H   H3783     1.0  0.44298  0.54791  0.81391  1.0000
  C   C2144     1.0  0.49104  0.68895  0.52178  1.0000
  C   C2145     1.0  0.41922  0.98538  0.89993  1.0000
  H   H3784     1.0  0.57115  0.98248  0.91995  1.0000
  C   C2146     1.0  0.52539  0.67265  0.51052  1.0000
  H   H3785     1.0  0.43047  0.57779  0.70469  1.0000
  C   C2147     1.0  0.47487  0.69318  0.53366  1.0000
  H   H3786     1.0  0.54806  0.91324  0.86733  1.0000
  H   H3787     1.0  0.55812  0.85984  0.49410  1.0000
  C   C2148     1.0  0.53951  0.85966  0.85525  1.0000
  H   H3788     1.0  0.56500  0.95645  0.86095  1.0000
  H   H3789     1.0  0.44157  0.88878  0.84597  1.0000
  C   C2149     1.0  0.39010  0.90527  0.86886  1.0000
  H   H3790     1.0  0.43973  0.55093  0.69989  1.0000
  H   H3791     1.0  0.41038  0.98987  0.91240  1.0000
  C   C2150     1.0  0.57063  0.94576  0.86731  1.0000
  C   C2151     1.0  0.58553  0.96544  0.88846  1.0000
  H   H3792     1.0  0.39278  0.78486  0.72298  1.0000
  H   H3793     1.0  0.49475  0.68026  0.53537  1.0000
  H   H3794     1.0  0.51724  0.69140  0.94461  1.0000
  C   C2152     1.0  0.58211  0.81659  0.93450  1.0000
  H   H3795     1.0  0.56777  0.90976  0.87443  1.0000
  H   H3796     1.0  0.43670  0.85418  0.89824  1.0000
  C   C2153     1.0  0.56507  0.79825  0.90512  1.0000
  H   H3797     1.0  0.52107  0.68063  0.52231  1.0000
  H   H3798     1.0  0.44198  0.90083  0.86795  1.0000
  C   C2154     1.0  0.54052  0.99320  0.48553  1.0000
  C   C2155     1.0  0.40463  0.87249  0.83893  1.0000
  H   H3799     1.0  0.53965  0.68066  0.95313  1.0000
  H   H3800     1.0  0.57665  0.85054  0.47206  1.0000
  H   H3801     1.0  0.47792  0.70018  0.54736  1.0000
  H   H3802     1.0  0.39491  0.91967  0.86405  1.0000
  H   H3803     1.0  0.44650  0.81758  0.61915  1.0000
  C   C2156     1.0  0.42228  0.55921  0.73900  1.0000
  H   H3804     1.0  0.52208  0.57715  0.92291  1.0000
  C   C2157     1.0  0.48506  0.54283  0.94771  1.0000
  H   H3805     1.0  0.47541  0.55016  0.94423  1.0000
  H   H3806     1.0  0.40096  0.50891  0.74930  1.0000
  H   H3807     1.0  0.42948  0.92501  0.85881  1.0000
  C   C2158     1.0  0.50844  0.49860  0.96012  1.0000
  H   H3808     1.0  0.42606  0.55805  0.82199  1.0000
  C   C2159     1.0  0.45776  0.50243  0.88107  1.0000
  H   H3809     1.0  0.41450  0.54546  0.74564  1.0000
  N   N118      1.0  0.44626  0.97092  0.94384  1.0000
  H   H3810     1.0  0.42113  0.53691  0.81496  1.0000
  H   H3811     1.0  0.48377  0.87403  0.95028  1.0000
  C   C2160     1.0  0.43296  0.55844  0.78485  1.0000
  C   C2161     1.0  0.58088  0.85499  0.89115  1.0000
  H   H3812     1.0  0.45477  0.91993  0.83232  1.0000
  N   N119      1.0  0.41646  0.57029  0.75503  1.0000
  C   C2162     1.0  0.50030  0.51338  0.95287  1.0000
  C   C2163     1.0  0.43918  0.95779  0.96686  1.0000
  H   H3813     1.0  0.40699  0.78251  0.62116  1.0000
  H   H3814     1.0  0.44121  0.94951  0.80897  1.0000
  H   H3815     1.0  0.58181  0.71284  0.72449  1.0000
  H   H3816     1.0  0.39363  0.86870  0.85423  1.0000
  C   C2164     1.0  0.44177  0.86665  0.88495  1.0000
  H   H3817     1.0  0.54138  0.71751  0.92426  1.0000
  H   H3818     1.0  0.53529  0.83642  0.82771  1.0000
  H   H3819     1.0  0.40435  0.54659  0.57190  1.0000
  C   C2165     1.0  0.48717  0.95596  0.92095  1.0000
  H   H3820     1.0  0.49386  0.85458  0.67660  1.0000
  H   H3821     1.0  0.55971  0.95367  0.91081  1.0000
  H   H3822     1.0  0.41023  0.92961  0.49280  1.0000
  H   H3823     1.0  0.39887  0.76463  0.72901  1.0000
  H   H3824     1.0  0.39155  0.55968  0.74818  1.0000
  C   C2166     1.0  0.52820  0.87107  0.81969  1.0000
  C   C2167     1.0  0.55369  0.82174  0.83289  1.0000
  C   C2168     1.0  0.45993  0.96597  0.92794  1.0000
  H   H3825     1.0  0.50184  0.65436  0.50948  1.0000
  H   H3826     1.0  0.47034  0.70182  0.52093  1.0000
  C   C2169     1.0  0.57079  0.93408  0.84921  1.0000
  C   C2170     1.0  0.53452  0.98935  0.50973  1.0000
  C   C2171     1.0  0.39874  0.57171  0.75238  1.0000
  H   H3827     1.0  0.51514  0.84737  0.84602  1.0000
  H   H3828     1.0  0.38770  0.55783  0.57098  1.0000
  H   H3829     1.0  0.56411  0.83168  0.86948  1.0000
  H   H3830     1.0  0.45347  0.61373  0.75982  1.0000
  H   H3831     1.0  0.48749  0.53697  0.93250  1.0000
  H   H3832     1.0  0.46446  0.68107  0.54186  1.0000
  C   C2172     1.0  0.51611  0.69572  0.47481  1.0000
  H   H3833     1.0  0.50182  0.57325  0.91430  1.0000
  H   H3834     1.0  0.46314  0.94804  0.80453  1.0000
  C   C2173     1.0  0.45061  0.94432  0.81739  1.0000
  S   S491      1.0  0.57673  0.77758  0.82700  1.0000
  N   N120      1.0  0.48956  0.65355  0.62022  1.0000
  C   C2174     1.0  0.47973  0.66727  0.62103  1.0000
  C   C2175     1.0  0.49286  0.64726  0.64401  1.0000
  C   C2176     1.0  0.50679  0.66212  0.60360  1.0000
  C   C2177     1.0  0.48065  0.63850  0.61133  1.0000
  C   C2178     1.0  0.46185  0.62923  0.62430  1.0000
  C   C2179     1.0  0.47496  0.67474  0.59808  1.0000
  C   C2180     1.0  0.51924  0.65039  0.60028  1.0000
  C   C2181     1.0  0.47895  0.64657  0.66576  1.0000
  C   C2182     1.0  0.48280  0.63760  0.68816  1.0000
  C   C2183     1.0  0.45348  0.61592  0.61179  1.0000
  C   C2184     1.0  0.46340  0.68688  0.60213  1.0000
  C   C2185     1.0  0.53733  0.66130  0.58739  1.0000
  H   H3835     1.0  0.48721  0.67841  0.62676  1.0000
  H   H3836     1.0  0.46748  0.66228  0.63434  1.0000
  H   H3837     1.0  0.49520  0.63411  0.64563  1.0000
  H   H3838     1.0  0.50486  0.65591  0.64627  1.0000
  H   H3839     1.0  0.51350  0.67345  0.60954  1.0000
  H   H3840     1.0  0.50534  0.66745  0.58587  1.0000
  H   H3841     1.0  0.48102  0.64275  0.59249  1.0000
  H   H3842     1.0  0.48771  0.62823  0.61232  1.0000
  H   H3843     1.0  0.45396  0.63861  0.62538  1.0000
  H   H3844     1.0  0.46139  0.62203  0.64206  1.0000
  H   H3845     1.0  0.48659  0.68244  0.58460  1.0000
  H   H3846     1.0  0.46786  0.66421  0.59115  1.0000
  H   H3847     1.0  0.51472  0.64106  0.58975  1.0000
  H   H3848     1.0  0.52025  0.64291  0.61715  1.0000
  H   H3849     1.0  0.47870  0.66000  0.66724  1.0000
  H   H3850     1.0  0.46592  0.63963  0.66493  1.0000
  H   H3851     1.0  0.48248  0.62382  0.68809  1.0000
  H   H3852     1.0  0.49560  0.64452  0.69017  1.0000
  H   H3853     1.0  0.47293  0.63785  0.70336  1.0000
  H   H3854     1.0  0.44011  0.60928  0.62181  1.0000
  H   H3855     1.0  0.45291  0.62244  0.59410  1.0000
  H   H3856     1.0  0.46070  0.60590  0.61044  1.0000
  H   H3857     1.0  0.47031  0.69837  0.60760  1.0000
  H   H3858     1.0  0.45955  0.69158  0.58583  1.0000
  H   H3859     1.0  0.45151  0.67998  0.61571  1.0000
  H   H3860     1.0  0.54562  0.65265  0.58302  1.0000
  H   H3861     1.0  0.53701  0.67004  0.57101  1.0000
  H   H3862     1.0  0.54317  0.66939  0.59855  1.0000
  H   H3863     1.0  0.43434  0.51942  0.52483  1.0000
  N   N121      1.0  0.49219  0.76960  0.73249  1.0000
  C   C2186     1.0  0.50309  0.77269  0.70822  1.0000
  C   C2187     1.0  0.50370  0.76963  0.74956  1.0000
  C   C2188     1.0  0.48010  0.75155  0.73797  1.0000
  C   C2189     1.0  0.48166  0.78263  0.73488  1.0000
  C   C2190     1.0  0.48964  0.80147  0.71977  1.0000
  C   C2191     1.0  0.49294  0.77012  0.68905  1.0000
  C   C2192     1.0  0.46925  0.74457  0.76337  1.0000
  C   C2193     1.0  0.51705  0.78702  0.74756  1.0000
  C   C2194     1.0  0.52959  0.78452  0.76313  1.0000
  C   C2195     1.0  0.50445  0.77748  0.66463  1.0000
  C   C2196     1.0  0.45424  0.72888  0.76527  1.0000
  H   H3864     1.0  0.51160  0.76368  0.70787  1.0000
  H   H3865     1.0  0.51198  0.78593  0.70267  1.0000
  H   H3866     1.0  0.49601  0.76623  0.76778  1.0000
  H   H3867     1.0  0.51065  0.75935  0.74824  1.0000
  H   H3868     1.0  0.48735  0.74187  0.73404  1.0000
  H   H3869     1.0  0.47082  0.75107  0.72653  1.0000
  H   H3870     1.0  0.46903  0.77814  0.73039  1.0000
  H   H3871     1.0  0.48955  0.80180  0.70121  1.0000
  H   H3872     1.0  0.48734  0.75605  0.69059  1.0000
  H   H3873     1.0  0.48224  0.77641  0.69072  1.0000
  H   H3874     1.0  0.47736  0.74019  0.77499  1.0000
  H   H3875     1.0  0.52485  0.79260  0.72957  1.0000
  H   H3876     1.0  0.51036  0.79653  0.75345  1.0000
  H   H3877     1.0  0.53811  0.79734  0.76293  1.0000
  H   H3878     1.0  0.52263  0.77815  0.78141  1.0000
  H   H3879     1.0  0.53781  0.77642  0.75654  1.0000
  H   H3880     1.0  0.50975  0.79178  0.66162  1.0000
  H   H3881     1.0  0.51516  0.77116  0.66218  1.0000
  H   H3882     1.0  0.49676  0.77485  0.65153  1.0000
  H   H3883     1.0  0.45895  0.71841  0.75870  1.0000
  H   H3884     1.0  0.44730  0.72364  0.78378  1.0000
  H   H3885     1.0  0.44506  0.73271  0.75512  1.0000
  N   N122      1.0  0.50475  0.66385  0.83969  1.0000
  C   C2197     1.0  0.51871  0.68076  0.83253  1.0000
  C   C2198     1.0  0.48880  0.66598  0.85490  1.0000
  C   C2199     1.0  0.51135  0.65054  0.85407  1.0000
  C   C2200     1.0  0.50053  0.65700  0.81899  1.0000
  C   C2201     1.0  0.49560  0.66948  0.80018  1.0000
  C   C2202     1.0  0.53611  0.68037  0.81764  1.0000
  C   C2203     1.0  0.49821  0.63261  0.86558  1.0000
  C   C2204     1.0  0.48494  0.68406  0.85029  1.0000
  C   C2205     1.0  0.46746  0.68345  0.86504  1.0000
  C   C2206     1.0  0.49313  0.66127  0.77950  1.0000
  C   C2207     1.0  0.54857  0.69853  0.80992  1.0000
  C   C2208     1.0  0.50614  0.62074  0.88061  1.0000
  H   H3886     1.0  0.52142  0.68529  0.84834  1.0000
  H   H3887     1.0  0.51449  0.69129  0.82248  1.0000
  H   H3888     1.0  0.47718  0.65598  0.85429  1.0000
  H   H3889     1.0  0.48957  0.66351  0.87350  1.0000
  H   H3890     1.0  0.51631  0.65590  0.86817  1.0000
  H   H3891     1.0  0.52242  0.64762  0.84331  1.0000
  H   H3892     1.0  0.51139  0.65254  0.81027  1.0000
  H   H3893     1.0  0.48950  0.64517  0.82482  1.0000
  H   H3894     1.0  0.50568  0.68194  0.79332  1.0000
  H   H3895     1.0  0.48323  0.67207  0.80732  1.0000
  H   H3896     1.0  0.54241  0.67188  0.82779  1.0000
  H   H3897     1.0  0.53432  0.67569  0.80171  1.0000
  H   H3898     1.0  0.49414  0.62583  0.85217  1.0000
  H   H3899     1.0  0.48658  0.63399  0.87700  1.0000
  H   H3900     1.0  0.49479  0.69382  0.85509  1.0000
  H   H3901     1.0  0.48494  0.68877  0.83184  1.0000
  H   H3902     1.0  0.45700  0.67435  0.86035  1.0000
  H   H3903     1.0  0.46704  0.67917  0.88388  1.0000
  H   H3904     1.0  0.46523  0.69663  0.86189  1.0000
  H   H3905     1.0  0.48304  0.64871  0.78523  1.0000
  H   H3906     1.0  0.48902  0.67012  0.76653  1.0000
  H   H3907     1.0  0.50537  0.65909  0.77080  1.0000
  H   H3908     1.0  0.54324  0.70764  0.79911  1.0000
  H   H3909     1.0  0.55125  0.70365  0.82530  1.0000
  H   H3910     1.0  0.56084  0.69788  0.79924  1.0000
  H   H3911     1.0  0.50987  0.62662  0.89497  1.0000
  H   H3912     1.0  0.49657  0.60799  0.88844  1.0000
  H   H3913     1.0  0.51764  0.61845  0.86999  1.0000
  C   C2209     1.0  0.55398  0.81740  0.80902  1.0000
  C   C2210     1.0  0.55235  0.86896  0.48415  1.0000
  H   H3914     1.0  0.42611  0.55629  0.68072  1.0000
  H   H3915     1.0  0.40298  0.59925  0.69553  1.0000
  C   C2211     1.0  0.45365  0.91641  0.65954  1.0000
  C   C2212     1.0  0.47836  0.92679  0.69612  1.0000
  C   C2213     1.0  0.47270  0.92317  0.72264  1.0000
  C   C2214     1.0  0.43904  0.91213  0.64712  1.0000
  H   H3916     1.0  0.47004  0.89891  0.69830  1.0000
  H   H3917     1.0  0.45894  0.89157  0.66685  1.0000
  H   H3918     1.0  0.46015  0.93040  0.65256  1.0000
  H   H3919     1.0  0.44776  0.91416  0.67840  1.0000
  H   H3920     1.0  0.49071  0.93711  0.69064  1.0000
  H   H3921     1.0  0.46865  0.93204  0.68874  1.0000
  H   H3922     1.0  0.47188  0.93542  0.72812  1.0000
  H   H3923     1.0  0.45980  0.91375  0.72881  1.0000
  H   H3924     1.0  0.48202  0.91779  0.73106  1.0000
  H   H3925     1.0  0.43196  0.89817  0.65305  1.0000
  H   H3926     1.0  0.42985  0.92001  0.65098  1.0000
  H   H3927     1.0  0.44419  0.91525  0.62797  1.0000
  H   H3928     1.0  0.40653  0.58127  0.53814  1.0000
  C   C2215     1.0  0.56517  0.81672  0.93364  1.0000
  H   H3929     1.0  0.53609  0.86527  0.80789  1.0000
  C   C2216     1.0  0.43564  0.98471  0.90838  1.0000
  H   H3930     1.0  0.46586  0.80950  0.72603  1.0000
  C   C2217     1.0  0.42651  0.55188  0.69921  1.0000
  H   H3931     1.0  0.40960  0.90184  0.88785  1.0000
  C   C2218     1.0  0.40711  0.75628  0.65551  1.0000
  H   H3932     1.0  0.42505  0.89400  0.81893  1.0000
  N   N123      1.0  0.39797  0.77032  0.65809  1.0000
  C   C2219     1.0  0.48094  0.91017  0.68802  1.0000
  N   N124      1.0  0.50327  0.67828  0.48530  1.0000
  H   H3933     1.0  0.44257  0.58656  0.74663  1.0000
  H   H3934     1.0  0.51511  0.55820  0.91161  1.0000
  C   C2220     1.0  0.41617  0.57051  0.50006  1.0000
  H   H3935     1.0  0.50884  0.95039  0.58917  1.0000
  H   H3936     1.0  0.41493  0.60555  0.76022  1.0000
  H   H3937     1.0  0.55397  0.84303  0.90315  1.0000
  Fe  Fe247     1.0  0.56359  0.76893  0.86517  1.0000
  S   S492      1.0  0.55409  0.78756  0.88624  1.0000
  H   H3938     1.0  0.43676  0.59096  0.50528  1.0000
  H   H3939     1.0  0.46794  0.90299  0.63796  1.0000
  H   H3940     1.0  0.47424  0.87331  0.67346  1.0000
  N   N125      1.0  0.48324  0.91057  0.66224  1.0000
  H   H3941     1.0  0.48712  0.93865  0.65198  1.0000
  H   H3942     1.0  0.49254  0.90795  0.69408  1.0000
  H   H3943     1.0  0.43786  0.54975  0.77452  1.0000
  H   H3944     1.0  0.54083  0.81459  0.80573  1.0000
  C   C2221     1.0  0.39906  0.77578  0.68083  1.0000
  C   C2222     1.0  0.49365  0.89795  0.65661  1.0000
  H   H3945     1.0  0.57632  0.94580  0.92195  1.0000
  H   H3946     1.0  0.51095  0.52506  0.94375  1.0000
  H   H3947     1.0  0.41393  0.86474  0.84198  1.0000
  H   H3948     1.0  0.43582  0.55896  0.73877  1.0000
  H   H3949     1.0  0.48877  0.87998  0.69116  1.0000
  C   C2223     1.0  0.42925  0.58793  0.74775  1.0000
  H   H3950     1.0  0.49868  0.56598  0.95757  1.0000
  C   C2224     1.0  0.40859  0.57011  0.58434  1.0000
  C   C2225     1.0  0.49336  0.92842  0.64782  1.0000
  C   C2226     1.0  0.48773  0.87952  0.67306  1.0000
  H   H3951     1.0  0.42860  0.51302  0.49935  1.0000
  C   C2227     1.0  0.42147  0.56483  0.71307  1.0000
  H   H3952     1.0  0.48121  0.50823  0.89258  1.0000
  C   C2228     1.0  0.41993  0.53510  0.50715  1.0000
  C   C2229     1.0  0.55673  0.80760  0.91908  1.0000
  C   C2230     1.0  0.42406  0.51779  0.51496  1.0000
  H   H3953     1.0  0.51232  0.87312  0.66520  1.0000
  H   H3954     1.0  0.55861  0.82387  0.94416  1.0000
  C   C2231     1.0  0.44444  0.92449  0.82543  1.0000
  H   H3955     1.0  0.49867  0.95456  0.92771  1.0000
  C   C2232     1.0  0.49649  0.93065  0.62096  1.0000
  H   H3956     1.0  0.49352  0.89588  0.63873  1.0000
  H   H3957     1.0  0.49786  0.86647  0.64693  1.0000
  C   C2233     1.0  0.50679  0.94919  0.60830  1.0000
  C   C2234     1.0  0.49867  0.86777  0.66488  1.0000
  H   H3958     1.0  0.50739  0.90336  0.65671  1.0000
  H   H3959     1.0  0.51957  0.95230  0.61271  1.0000
  H   H3960     1.0  0.54721  0.73477  0.93887  1.0000
  H   H3961     1.0  0.44298  0.91815  0.47695  1.0000
  H   H3962     1.0  0.49155  0.96487  0.90340  1.0000
  H   H3963     1.0  0.58135  0.85905  0.90785  1.0000
  H   H3964     1.0  0.50345  0.84616  0.96565  1.0000
  S   S493      1.0  0.40128  0.50687  0.79739  1.0000
  H   H3965     1.0  0.49375  0.64306  0.47742  1.0000
  C   C2235     1.0  0.43970  0.50051  0.95082  1.0000
  H   H3966     1.0  0.43179  0.54412  0.49534  1.0000
  C   C2236     1.0  0.51379  0.69651  0.96041  1.0000
  H   H3967     1.0  0.45114  0.87557  0.89157  1.0000
  N   N126      1.0  0.54423  0.84251  0.85801  1.0000
  H   H3968     1.0  0.45244  0.95037  0.83230  1.0000
  H   H3969     1.0  0.51099  0.55043  0.95475  1.0000
  H   H3970     1.0  0.47976  0.68637  0.49198  1.0000
  C   C2237     1.0  0.57418  0.97047  0.92827  1.0000
  H   H3971     1.0  0.40241  0.56295  0.60258  1.0000
  H   H3972     1.0  0.42148  0.87758  0.89755  1.0000
  H   H3973     1.0  0.43896  0.62699  0.76593  1.0000
  H   H3974     1.0  0.46532  0.49910  0.95081  1.0000
  H   H3975     1.0  0.56263  0.82836  0.79503  1.0000
  H   H3976     1.0  0.47844  0.88943  0.96713  1.0000
  C   C2238     1.0  0.39767  0.86756  0.81829  1.0000
  C   C2239     1.0  0.56192  0.91487  0.86023  1.0000
  H   H3977     1.0  0.58489  0.96928  0.82635  1.0000
  H   H3978     1.0  0.42246  0.99462  0.88271  1.0000
  S   S494      1.0  0.57917  0.73778  0.82862  1.0000
  C   C2240     1.0  0.56259  0.85215  0.88732  1.0000
  C   C2241     1.0  0.45296  0.98898  0.94776  1.0000
  C   C2242     1.0  0.54549  0.87952  0.50065  1.0000
  H   H3979     1.0  0.58322  0.92896  0.89834  1.0000
  H   H3980     1.0  0.53558  0.87064  0.51567  1.0000
  H   H3981     1.0  0.55255  0.57353  0.95337  1.0000
  H   H3982     1.0  0.49786  0.71207  0.47317  1.0000
  H   H3983     1.0  0.49279  0.50985  0.94006  1.0000
  S   S495      1.0  0.42329  0.50513  0.84907  1.0000
  H   H3984     1.0  0.58383  0.93500  0.83933  1.0000
  H   H3985     1.0  0.42269  0.57211  0.58208  1.0000
  Fe  Fe248     1.0  0.58448  0.50909  0.95513  1.0000
  C   C2243     1.0  0.46005  0.51888  0.96967  1.0000
  H   H3986     1.0  0.55971  0.86499  0.88550  1.0000
  C   C2244     1.0  0.40865  0.72510  0.66738  1.0000
  C   C2245     1.0  0.53862  0.50256  0.89198  1.0000
  C   C2246     1.0  0.42002  0.92759  0.47893  1.0000
  C   C2247     1.0  0.48907  0.88587  0.95636  1.0000
  H   H3987     1.0  0.40099  0.74031  0.69095  1.0000
  H   H3988     1.0  0.51266  0.87932  0.95860  1.0000
  H   H3989     1.0  0.40725  0.72256  0.65011  1.0000
  S   S496      1.0  0.44537  0.56438  0.96964  1.0000
  H   H3990     1.0  0.51704  0.49684  0.94468  1.0000
  C   C2248     1.0  0.39935  0.73869  0.67342  1.0000
  H   H3991     1.0  0.53992  0.70610  0.96614  1.0000
  Fe  Fe249     1.0  0.46610  0.58771  0.97117  1.0000
  C   C2249     1.0  0.52323  0.83272  0.96544  1.0000
  S   S497      1.0  0.58278  0.75444  0.87442  1.0000
  H   H3992     1.0  0.54957  0.49835  0.89753  1.0000
  H   H3993     1.0  0.44557  0.99405  0.50958  1.0000
  C   C2250     1.0  0.47125  0.49641  0.89265  1.0000
  H   H3994     1.0  0.45028  0.66410  0.97126  1.0000
  S   S498      1.0  0.38652  0.97014  0.96086  1.0000
  H   H3995     1.0  0.50789  0.49839  0.47412  1.0000
  C   C2251     1.0  0.50253  0.88283  0.97016  1.0000
  Fe  Fe250     1.0  0.57853  0.88246  0.97092  1.0000
  Fe  Fe251     1.0  0.74922  0.15845  0.38196  1.0000
  S   S499      1.0  0.73115  0.17115  0.36509  1.0000
  H   H3996     1.0  0.72994  0.37720  0.18505  1.0000
  Fe  Fe252     1.0  0.73986  0.12638  0.35991  1.0000
  S   S500      1.0  0.72108  0.13674  0.34237  1.0000
  S   S501      1.0  0.74702  0.10136  0.35478  1.0000
  Fe  Fe253     1.0  0.74104  0.16229  0.33287  1.0000
  S   S502      1.0  0.74851  0.17808  0.29532  1.0000
  Fe  Fe254     1.0  0.71249  0.14453  0.37588  1.0000
  S   S503      1.0  0.68417  0.14268  0.38806  1.0000
  S   S504      1.0  0.76068  0.15161  0.34868  1.0000
  S   S505      1.0  0.72968  0.13207  0.39448  1.0000
  H   H3997     1.0  0.61565  0.44734  0.32731  1.0000
  S   S506      1.0  0.69618  0.12194  0.00220  1.0000
  C   C2252     1.0  0.71521  0.40877  0.20994  1.0000
  Fe  Fe255     1.0  0.70587  0.14848  0.00880  1.0000
  S   S507      1.0  0.69456  0.15176  0.04496  1.0000
  S   S508      1.0  0.73349  0.15124  0.99254  1.0000
  Fe  Fe256     1.0  0.71756  0.02659  0.28845  1.0000
  S   S509      1.0  0.74214  0.02449  0.26672  1.0000
  S   S510      1.0  0.71137  0.05156  0.29613  1.0000
  S   S511      1.0  0.61132  0.48504  0.32123  1.0000
  S   S512      1.0  0.69606  0.02788  0.04794  1.0000
  C   C2253     1.0  0.71903  0.99845  0.15072  1.0000
  H   H3998     1.0  0.59337  0.17457  0.25076  1.0000
  C   C2254     1.0  0.58692  0.45908  0.09363  1.0000
  H   H3999     1.0  0.65241  0.40689  0.21576  1.0000
  H   H4000     1.0  0.74263  0.14912  0.19576  1.0000
  H   H4001     1.0  0.76908  0.02852  0.31104  1.0000
  Fe  Fe257     1.0  0.71170  0.20349  0.14237  1.0000
  S   S513      1.0  0.70092  0.22687  0.13791  1.0000
  S   S514      1.0  0.72727  0.19681  0.11111  1.0000
  Fe  Fe258     1.0  0.69867  0.19446  0.19499  1.0000
  S   S515      1.0  0.68642  0.21670  0.19381  1.0000
  S   S516      1.0  0.69472  0.17643  0.23050  1.0000
  Fe  Fe259     1.0  0.67703  0.20901  0.16317  1.0000
  S   S517      1.0  0.65065  0.21148  0.15713  1.0000
  Fe  Fe260     1.0  0.71120  0.23282  0.16898  1.0000
  S   S518      1.0  0.72068  0.26024  0.17554  1.0000
  S   S519      1.0  0.68740  0.18538  0.16603  1.0000
  S   S520      1.0  0.72389  0.21076  0.17172  1.0000
  H   H4002     1.0  0.60302  0.19884  0.20205  1.0000
  Fe  Fe261     1.0  0.62457  0.45224  0.17072  1.0000
  S   S521      1.0  0.61217  0.47408  0.17380  1.0000
  S   S522      1.0  0.65364  0.45816  0.15610  1.0000
  H   H4003     1.0  0.74173  0.44464  0.14070  1.0000
  H   H4004     1.0  0.75691  0.99860  0.13787  1.0000
  H   H4005     1.0  0.75800  0.45571  0.24753  1.0000
  C   C2255     1.0  0.71653  0.44655  0.25413  1.0000
  C   C2256     1.0  0.77701  0.02187  0.31989  1.0000
  S   S523      1.0  0.60849  0.44197  0.14677  1.0000
  S   S524      1.0  0.60642  0.43378  0.20294  1.0000
  H   H4006     1.0  0.67113  0.07442  0.31084  1.0000
  H   H4007     1.0  0.64219  0.08579  0.37571  1.0000
  C   C2257     1.0  0.71776  0.39769  0.19157  1.0000
  C   C2258     1.0  0.67069  0.46682  0.16891  1.0000
  C   C2259     1.0  0.66793  0.46731  0.19248  1.0000
  H   H4008     1.0  0.69208  0.47607  0.02190  1.0000
  C   C2260     1.0  0.69898  0.47834  0.18879  1.0000
  C   C2261     1.0  0.70170  0.47832  0.16507  1.0000
  C   C2262     1.0  0.68764  0.47242  0.15527  1.0000
  H   H4009     1.0  0.65500  0.46296  0.20324  1.0000
  H   H4010     1.0  0.71746  0.04423  0.98491  1.0000
  H   H4011     1.0  0.68993  0.47206  0.13705  1.0000
  H   H4012     1.0  0.69501  0.49183  0.03964  1.0000
  C   C2263     1.0  0.60624  0.46884  0.26169  1.0000
  H   H4013     1.0  0.68835  0.14020  0.47009  1.0000
  H   H4014     1.0  0.65985  0.05131  0.39952  1.0000
  H   H4015     1.0  0.61862  0.14979  0.46829  1.0000
  H   H4016     1.0  0.61348  0.46319  0.24960  1.0000
  H   H4017     1.0  0.72813  0.41416  0.21284  1.0000
  H   H4018     1.0  0.74185  0.43413  0.18199  1.0000
  H   H4019     1.0  0.62518  0.04448  0.43481  1.0000
  H   H4020     1.0  0.68549  0.02885  0.00334  1.0000
  C   C2264     1.0  0.77327  0.99940  0.16193  1.0000
  C   C2265     1.0  0.75011  0.22932  0.04452  1.0000
  H   H4021     1.0  0.72265  0.37654  0.21550  1.0000
  C   C2266     1.0  0.58830  0.47609  0.09636  1.0000
  H   H4022     1.0  0.65869  0.40869  0.18463  1.0000
  C   C2267     1.0  0.65594  0.00828  0.01490  1.0000
  H   H4023     1.0  0.68175  0.40387  0.21844  1.0000
  H   H4024     1.0  0.76581  0.47394  0.26001  1.0000
  H   H4025     1.0  0.69001  0.09695  0.37430  1.0000
  C   C2268     1.0  0.77582  0.44100  0.19025  1.0000
  C   C2269     1.0  0.77219  0.42301  0.19996  1.0000
  H   H4026     1.0  0.76684  0.44830  0.19555  1.0000
  H   H4027     1.0  0.76039  0.41648  0.21283  1.0000
  C   C2270     1.0  0.77217  0.29862  0.17474  1.0000
  C   C2271     1.0  0.75652  0.30284  0.18035  1.0000
  C   C2272     1.0  0.74098  0.29103  0.18021  1.0000
  C   C2273     1.0  0.74083  0.27495  0.17416  1.0000
  C   C2274     1.0  0.75653  0.27093  0.16798  1.0000
  C   C2275     1.0  0.77203  0.28257  0.16859  1.0000
  H   H4028     1.0  0.62461  0.47087  0.28346  1.0000
  H   H4029     1.0  0.72894  0.29433  0.18498  1.0000
  H   H4030     1.0  0.75666  0.25874  0.16303  1.0000
  H   H4031     1.0  0.58863  0.41819  0.36439  1.0000
  C   C2276     1.0  0.60022  0.17121  0.15939  1.0000
  C   C2277     1.0  0.61423  0.16564  0.16555  1.0000
  C   C2278     1.0  0.62964  0.17773  0.16538  1.0000
  C   C2279     1.0  0.63124  0.19560  0.15897  1.0000
  C   C2280     1.0  0.61706  0.20117  0.15336  1.0000
  C   C2281     1.0  0.60159  0.18906  0.15370  1.0000
  H   H4032     1.0  0.61322  0.15187  0.17028  1.0000
  H   H4033     1.0  0.64036  0.17324  0.16993  1.0000
  H   H4034     1.0  0.61812  0.21497  0.14851  1.0000
  C   C2282     1.0  0.58839  0.48909  0.07739  1.0000
  C   C2283     1.0  0.76933  0.01545  0.06298  1.0000
  H   H4035     1.0  0.63525  0.47787  0.12423  1.0000
  H   H4036     1.0  0.75800  0.26942  0.21734  1.0000
  C   C2284     1.0  0.70423  0.16442  0.06278  1.0000
  C   C2285     1.0  0.72185  0.17249  0.05771  1.0000
  C   C2286     1.0  0.72875  0.18208  0.07293  1.0000
  C   C2287     1.0  0.71809  0.18416  0.09288  1.0000
  C   C2288     1.0  0.70051  0.17595  0.09797  1.0000
  C   C2289     1.0  0.69374  0.16591  0.08320  1.0000
  H   H4037     1.0  0.73014  0.17113  0.04233  1.0000
  H   H4038     1.0  0.74243  0.18794  0.06929  1.0000
  H   H4039     1.0  0.69219  0.17715  0.11346  1.0000
  H   H4040     1.0  0.68030  0.15914  0.08761  1.0000
  C   C2290     1.0  0.72615  0.08296  0.00668  1.0000
  C   C2291     1.0  0.73507  0.07116  0.01517  1.0000
  C   C2292     1.0  0.72614  0.05406  0.02758  1.0000
  C   C2293     1.0  0.70822  0.04877  0.03169  1.0000
  C   C2294     1.0  0.69935  0.06055  0.02310  1.0000
  C   C2295     1.0  0.70828  0.07748  0.01039  1.0000
  H   H4041     1.0  0.74893  0.07527  0.01217  1.0000
  H   H4042     1.0  0.73308  0.04506  0.03411  1.0000
  H   H4043     1.0  0.68548  0.05654  0.02613  1.0000
  H   H4044     1.0  0.70131  0.08628  0.00344  1.0000
  C   C2296     1.0  0.77693  0.08257  0.38201  1.0000
  C   C2297     1.0  0.66513  0.10333  0.44608  1.0000
  C   C2298     1.0  0.67667  0.11599  0.42735  1.0000
  C   C2299     1.0  0.67055  0.12763  0.41302  1.0000
  C   C2300     1.0  0.65302  0.12709  0.41822  1.0000
  C   C2301     1.0  0.64151  0.11450  0.43697  1.0000
  C   C2302     1.0  0.64749  0.10241  0.45075  1.0000
  H   H4045     1.0  0.69020  0.11650  0.42371  1.0000
  H   H4046     1.0  0.64825  0.13626  0.40743  1.0000
  H   H4047     1.0  0.62795  0.11393  0.44045  1.0000
  C   C2303     1.0  0.70978  0.17766  0.24836  1.0000
  C   C2304     1.0  0.70420  0.16937  0.27211  1.0000
  C   C2305     1.0  0.71590  0.16946  0.28671  1.0000
  C   C2306     1.0  0.73336  0.17768  0.27760  1.0000
  C   C2307     1.0  0.73898  0.18584  0.25380  1.0000
  C   C2308     1.0  0.72723  0.18593  0.23926  1.0000
  H   H4048     1.0  0.69073  0.16287  0.27928  1.0000
  H   H4049     1.0  0.71138  0.16321  0.30502  1.0000
  H   H4050     1.0  0.75250  0.19194  0.24654  1.0000
  H   H4051     1.0  0.73167  0.19194  0.22090  1.0000
  C   C2309     1.0  0.73654  0.08709  0.33941  1.0000
  C   C2310     1.0  0.72104  0.08842  0.33358  1.0000
  C   C2311     1.0  0.71338  0.07720  0.32068  1.0000
  C   C2312     1.0  0.72090  0.06435  0.31387  1.0000
  C   C2313     1.0  0.73617  0.06273  0.32021  1.0000
  C   C2314     1.0  0.74402  0.07416  0.33275  1.0000
  H   H4052     1.0  0.71508  0.09817  0.33882  1.0000
  H   H4053     1.0  0.70165  0.07856  0.31566  1.0000
  H   H4054     1.0  0.74215  0.05299  0.31485  1.0000
  H   H4055     1.0  0.75610  0.07318  0.33692  1.0000
  H   H4056     1.0  0.64710  0.44481  0.07147  1.0000
  H   H4057     1.0  0.70524  0.38955  0.19046  1.0000
  H   H4058     1.0  0.76497  0.17536  0.02621  1.0000
  H   H4059     1.0  0.65472  0.15075  0.46865  1.0000
  H   H4060     1.0  0.73430  0.02101  0.15907  1.0000
  H   H4061     1.0  0.67071  0.04058  0.97454  1.0000
  H   H4062     1.0  0.71465  0.48249  0.15440  1.0000
  H   H4063     1.0  0.77987  0.02425  0.09053  1.0000
  H   H4064     1.0  0.73644  0.46408  0.14735  1.0000
  C   C2315     1.0  0.70041  0.02492  0.97259  1.0000
  H   H4065     1.0  0.59091  0.19358  0.14907  1.0000
  H   H4066     1.0  0.65900  0.13158  0.33989  1.0000
  C   C2316     1.0  0.60590  0.20205  0.09099  1.0000
  N   N127      1.0  0.73397  0.23970  0.24837  1.0000
  C   C2317     1.0  0.71777  0.24496  0.24567  1.0000
  C   C2318     1.0  0.74625  0.25461  0.25360  1.0000
  C   C2319     1.0  0.74154  0.23523  0.22603  1.0000
  C   C2320     1.0  0.73029  0.22390  0.26806  1.0000
  C   C2321     1.0  0.72129  0.22556  0.29234  1.0000
  C   C2322     1.0  0.70237  0.23018  0.24466  1.0000
  C   C2323     1.0  0.76013  0.23312  0.22344  1.0000
  C   C2324     1.0  0.75232  0.27168  0.23434  1.0000
  H   H4067     1.0  0.63399  0.00530  0.05763  1.0000
  H   H4068     1.0  0.72766  0.20316  0.31154  1.0000
  C   C2325     1.0  0.68710  0.23732  0.24074  1.0000
  H   H4069     1.0  0.70302  0.44576  0.21696  1.0000
  H   H4070     1.0  0.72035  0.25513  0.22930  1.0000
  H   H4071     1.0  0.71338  0.25125  0.25987  1.0000
  H   H4072     1.0  0.74017  0.25819  0.26954  1.0000
  H   H4073     1.0  0.75773  0.25065  0.25776  1.0000
  H   H4074     1.0  0.74145  0.24513  0.21059  1.0000
  H   H4075     1.0  0.73330  0.22291  0.22402  1.0000
  C   C2326     1.0  0.63737  0.04858  0.44045  1.0000
  H   H4076     1.0  0.74238  0.22046  0.27036  1.0000
  H   H4077     1.0  0.70945  0.22992  0.29176  1.0000
  H   H4078     1.0  0.73010  0.23498  0.29905  1.0000
  H   H4079     1.0  0.70594  0.22384  0.23024  1.0000
  H   H4080     1.0  0.69794  0.22006  0.26116  1.0000
  H   H4081     1.0  0.72623  0.44685  0.26491  1.0000
  H   H4082     1.0  0.65419  0.02067  0.05647  1.0000
  Fe  Fe262     1.0  0.72346  0.12528  0.98398  1.0000
  H   H4083     1.0  0.74138  0.27734  0.23224  1.0000
  C   C2327     1.0  0.64906  0.06525  0.42380  1.0000
  H   H4084     1.0  0.68091  0.14826  0.44486  1.0000
  C   C2328     1.0  0.76584  0.22713  0.20121  1.0000
  N   N128      1.0  0.64209  0.47966  0.07344  1.0000
  H   H4085     1.0  0.77986  0.24719  0.46482  1.0000
  H   H4086     1.0  0.68931  0.46875  0.05290  1.0000
  H   H4087     1.0  0.68303  0.24379  0.25483  1.0000
  H   H4088     1.0  0.69051  0.24679  0.22364  1.0000
  H   H4089     1.0  0.67609  0.22647  0.24071  1.0000
  H   H4090     1.0  0.78290  0.20571  0.00802  1.0000
  H   H4091     1.0  0.74804  0.14395  0.03658  1.0000
  C   C2329     1.0  0.77476  0.00399  0.32157  1.0000
  H   H4092     1.0  0.59309  0.39822  0.05347  1.0000
  H   H4093     1.0  0.68888  0.40751  0.18767  1.0000
  Fe  Fe263     1.0  0.73816  0.99975  0.29352  1.0000
  H   H4094     1.0  0.78396  0.27897  0.16460  1.0000
  H   H4095     1.0  0.66880  0.99770  0.25426  1.0000
  C   C2330     1.0  0.71912  0.43479  0.23718  1.0000
  H   H4096     1.0  0.75565  0.02176  0.36962  1.0000
  H   H4097     1.0  0.77035  0.16925  0.99864  1.0000
  H   H4098     1.0  0.62337  0.41809  0.08364  1.0000
  C   C2331     1.0  0.74281  0.45372  0.15259  1.0000
  C   C2332     1.0  0.68201  0.47287  0.20237  1.0000
  N   N129      1.0  0.76231  0.21983  0.98245  1.0000
  H   H4099     1.0  0.77348  0.01834  0.13183  1.0000
  H   H4100     1.0  0.75980  0.19427  0.97508  1.0000
  C   C2333     1.0  0.70731  0.08266  0.40427  1.0000
  H   H4101     1.0  0.68156  0.43558  0.18101  1.0000
  C   C2334     1.0  0.78160  0.45549  0.25929  1.0000
  C   C2335     1.0  0.76197  0.03111  0.05754  1.0000
  H   H4102     1.0  0.68673  0.16247  0.46366  1.0000
  H   H4103     1.0  0.59407  0.19112  0.09788  1.0000
  C   C2336     1.0  0.72869  0.38532  0.19807  1.0000
  S   S525      1.0  0.71431  0.00265  0.31621  1.0000
  H   H4104     1.0  0.76288  0.23693  0.04570  1.0000
  Fe  Fe264     1.0  0.59502  0.46265  0.15203  1.0000
  H   H4105     1.0  0.63249  0.13642  0.15179  1.0000
  C   C2337     1.0  0.63382  0.44614  0.07618  1.0000
  S   S526      1.0  0.59012  0.48174  0.12301  1.0000
  H   H4106     1.0  0.77913  0.22572  0.19988  1.0000
  C   C2338     1.0  0.66407  0.01282  0.97265  1.0000
  C   C2339     1.0  0.77481  0.17821  0.00967  1.0000
  C   C2340     1.0  0.72618  0.00790  0.16595  1.0000
  H   H4107     1.0  0.70791  0.39965  0.22680  1.0000
  H   H4108     1.0  0.77010  0.08084  0.24987  1.0000
  H   H4109     1.0  0.59332  0.15763  0.22167  1.0000
  H   H4110     1.0  0.69237  0.00970  0.00828  1.0000
  H   H4111     1.0  0.73200  0.44043  0.22544  1.0000
  H   H4112     1.0  0.68050  0.08347  0.34551  1.0000
  Fe  Fe265     1.0  0.59307  0.45534  0.20448  1.0000
  H   H4113     1.0  0.66531  0.10336  0.33977  1.0000
  H   H4114     1.0  0.75633  0.31505  0.18523  1.0000
  H   H4115     1.0  0.78333  0.14154  0.30732  1.0000
  C   C2341     1.0  0.65395  0.06247  0.39875  1.0000
  H   H4116     1.0  0.70355  0.44166  0.26597  1.0000
  S   S527      1.0  0.70058  0.16177  0.97566  1.0000
  H   H4117     1.0  0.78216  0.04345  0.37202  1.0000
  N   N130      1.0  0.70986  0.10131  0.07745  1.0000
  C   C2342     1.0  0.69162  0.10040  0.07526  1.0000
  C   C2343     1.0  0.71237  0.10806  0.09885  1.0000
  C   C2344     1.0  0.72198  0.11328  0.05569  1.0000
  C   C2345     1.0  0.71341  0.08365  0.07992  1.0000
  C   C2346     1.0  0.70160  0.06936  0.10096  1.0000
  C   C2347     1.0  0.68516  0.08995  0.05781  1.0000
  C   C2348     1.0  0.74141  0.11700  0.05583  1.0000
  C   C2349     1.0  0.71228  0.12740  0.09739  1.0000
  C   C2350     1.0  0.71419  0.13265  0.12025  1.0000
  C   C2351     1.0  0.70497  0.05162  0.10008  1.0000
  C   C2352     1.0  0.66737  0.09162  0.05506  1.0000
  C   C2353     1.0  0.75224  0.13192  0.03564  1.0000
  H   H4118     1.0  0.69009  0.11376  0.06977  1.0000
  H   H4119     1.0  0.68238  0.09475  0.09242  1.0000
  H   H4120     1.0  0.70205  0.10026  0.11424  1.0000
  H   H4121     1.0  0.72447  0.10621  0.10358  1.0000
  H   H4122     1.0  0.71855  0.12589  0.05176  1.0000
  H   H4123     1.0  0.72059  0.10775  0.04020  1.0000
  H   H4124     1.0  0.71293  0.07889  0.06362  1.0000
  H   H4125     1.0  0.72676  0.08453  0.08205  1.0000
  H   H4126     1.0  0.68780  0.06809  0.10139  1.0000
  H   H4127     1.0  0.70413  0.07244  0.11756  1.0000
  H   H4128     1.0  0.69402  0.09476  0.04053  1.0000
  H   H4129     1.0  0.68419  0.07589  0.06366  1.0000
  H   H4130     1.0  0.74606  0.10530  0.05404  1.0000
  H   H4131     1.0  0.74407  0.12068  0.07200  1.0000
  H   H4132     1.0  0.72305  0.13628  0.08348  1.0000
  H   H4133     1.0  0.70004  0.12963  0.09377  1.0000
  H   H4134     1.0  0.71429  0.14657  0.11857  1.0000
  H   H4135     1.0  0.70328  0.12472  0.13475  1.0000
  H   H4136     1.0  0.72647  0.13099  0.12446  1.0000
  H   H4137     1.0  0.69666  0.04164  0.11552  1.0000
  H   H4138     1.0  0.70193  0.04760  0.08420  1.0000
  H   H4139     1.0  0.71861  0.05204  0.10009  1.0000
  H   H4140     1.0  0.66769  0.10549  0.04868  1.0000
  H   H4141     1.0  0.66328  0.08428  0.04213  1.0000
  H   H4142     1.0  0.65781  0.08621  0.07192  1.0000
  H   H4143     1.0  0.76115  0.22342  0.23832  1.0000
  C   C2354     1.0  0.77144  0.01200  0.08849  1.0000
  H   H4144     1.0  0.76598  0.13447  0.03648  1.0000
  H   H4145     1.0  0.74900  0.05627  0.37865  1.0000
  C   C2355     1.0  0.58979  0.17972  0.23441  1.0000
  S   S528      1.0  0.72352  0.99614  0.07708  1.0000
  H   H4146     1.0  0.76211  0.08134  0.27968  1.0000
  C   C2356     1.0  0.74975  0.03285  0.36685  1.0000
  H   H4147     1.0  0.63243  0.20692  0.07436  1.0000
  H   H4148     1.0  0.64272  0.00267  0.01285  1.0000
  H   H4149     1.0  0.64807  0.99952  0.07592  1.0000
  H   H4150     1.0  0.75112  0.12850  0.01875  1.0000
  H   H4151     1.0  0.65247  0.05643  0.31547  1.0000
  H   H4152     1.0  0.62414  0.15743  0.07268  1.0000
  H   H4153     1.0  0.68138  0.11075  0.29721  1.0000
  C   C2357     1.0  0.68069  0.14883  0.46329  1.0000
  C   C2358     1.0  0.77275  0.23312  0.43958  1.0000
  H   H4154     1.0  0.69263  0.42580  0.23727  1.0000
  H   H4155     1.0  0.65350  0.09724  0.39313  1.0000
  H   H4156     1.0  0.78186  0.01855  0.05035  1.0000
  H   H4157     1.0  0.66131  0.46524  0.04099  1.0000
  H   H4158     1.0  0.64810  0.07490  0.34366  1.0000
  Fe  Fe266     1.0  0.70371  0.00265  0.05777  1.0000
  H   H4159     1.0  0.78389  0.02487  0.26857  1.0000
  H   H4160     1.0  0.64809  0.03049  0.98038  1.0000
  H   H4161     1.0  0.67801  0.09195  0.40319  1.0000
  H   H4162     1.0  0.64732  0.16025  0.02506  1.0000
  H   H4163     1.0  0.73658  0.45354  0.18884  1.0000
  C   C2359     1.0  0.71532  0.43543  0.18112  1.0000
  C   C2360     1.0  0.68132  0.08599  0.38831  1.0000
  C   C2361     1.0  0.58746  0.48317  0.29359  1.0000
  C   C2362     1.0  0.72920  0.21157  0.98573  1.0000
  C   C2363     1.0  0.58655  0.48504  0.05599  1.0000
  H   H4164     1.0  0.72244  0.21227  0.26381  1.0000
  N   N131      1.0  0.66928  0.00668  0.99495  1.0000
  H   H4165     1.0  0.75077  0.12913  0.22749  1.0000
  C   C2364     1.0  0.60315  0.48035  0.29695  1.0000
  H   H4166     1.0  0.74233  0.23837  0.03939  1.0000
  S   S529      1.0  0.70120  0.01188  0.26816  1.0000
  C   C2365     1.0  0.73471  0.44393  0.17782  1.0000
  H   H4167     1.0  0.70685  0.10194  0.28071  1.0000
  N   N132      1.0  0.66533  0.07818  0.38069  1.0000
  C   C2366     1.0  0.76324  0.13172  0.29023  1.0000
  H   H4168     1.0  0.61940  0.47821  0.05958  1.0000
  H   H4169     1.0  0.74734  0.15760  0.23271  1.0000
  H   H4170     1.0  0.74290  0.10088  0.28796  1.0000
  H   H4171     1.0  0.72850  0.11899  0.23720  1.0000
  H   H4172     1.0  0.62419  0.13746  0.10357  1.0000
  N   N133      1.0  0.74138  0.12405  0.26480  1.0000
  C   C2367     1.0  0.75949  0.08337  0.26199  1.0000
  H   H4173     1.0  0.70931  0.44643  0.17832  1.0000
  C   C2368     1.0  0.69418  0.11757  0.29928  1.0000
  H   H4174     1.0  0.64741  0.05310  0.35775  1.0000
  C   C2369     1.0  0.71620  0.20810  0.31001  1.0000
  H   H4175     1.0  0.70563  0.12184  0.26309  1.0000
  C   C2370     1.0  0.77619  0.23336  0.46379  1.0000
  H   H4176     1.0  0.72659  0.13901  0.28252  1.0000
  H   H4177     1.0  0.63982  0.11399  0.35239  1.0000
  H   H4178     1.0  0.70246  0.08662  0.42049  1.0000
  C   C2371     1.0  0.70820  0.11598  0.27986  1.0000
  C   C2372     1.0  0.67651  0.42640  0.19828  1.0000
  H   H4179     1.0  0.76555  0.05715  0.41919  1.0000
  H   H4180     1.0  0.78493  0.26827  0.10099  1.0000
  C   C2373     1.0  0.73580  0.14716  0.23327  1.0000
  H   H4181     1.0  0.72441  0.40603  0.17409  1.0000
  H   H4182     1.0  0.72725  0.11953  0.30033  1.0000
  H   H4183     1.0  0.73117  0.09656  0.26682  1.0000
  C   C2374     1.0  0.75841  0.10204  0.25398  1.0000
  H   H4184     1.0  0.72226  0.02325  0.98831  1.0000
  H   H4185     1.0  0.71989  0.14023  0.20907  1.0000
  H   H4186     1.0  0.75667  0.45985  0.15081  1.0000
  H   H4187     1.0  0.71809  0.46006  0.24447  1.0000
  H   H4188     1.0  0.66060  0.06912  0.43086  1.0000
  H   H4189     1.0  0.75305  0.03901  0.34796  1.0000
  H   H4190     1.0  0.77654  0.15828  0.29019  1.0000
  H   H4191     1.0  0.59365  0.41277  0.02640  1.0000
  C   C2375     1.0  0.78280  0.99723  0.11981  1.0000
  H   H4192     1.0  0.62844  0.44770  0.06048  1.0000
  C   C2376     1.0  0.68735  0.47878  0.03909  1.0000
  H   H4193     1.0  0.61392  0.14645  0.12587  1.0000
  H   H4194     1.0  0.65026  0.42517  0.19551  1.0000
  H   H4195     1.0  0.64391  0.03792  0.44131  1.0000
  C   C2377     1.0  0.76182  0.20083  0.98961  1.0000
  H   H4196     1.0  0.61065  0.44652  0.35820  1.0000
  H   H4197     1.0  0.75668  0.24039  0.99874  1.0000
  C   C2378     1.0  0.59048  0.47154  0.25841  1.0000
  C   C2379     1.0  0.72629  0.12520  0.28248  1.0000
  H   H4198     1.0  0.72479  0.14870  0.24564  1.0000
  C   C2380     1.0  0.63359  0.48256  0.05322  1.0000
  S   S530      1.0  0.59791  0.48829  0.38562  1.0000
  C   C2381     1.0  0.65839  0.41606  0.19860  1.0000
  N   N134      1.0  0.63939  0.17426  0.09005  1.0000
  C   C2382     1.0  0.63713  0.16658  0.06927  1.0000
  C   C2383     1.0  0.62388  0.18067  0.09794  1.0000
  C   C2384     1.0  0.65568  0.18891  0.08300  1.0000
  C   C2385     1.0  0.64090  0.16090  0.11009  1.0000
  C   C2386     1.0  0.62617  0.14382  0.11815  1.0000
  C   C2387     1.0  0.65081  0.15717  0.06072  1.0000
  C   C2388     1.0  0.65882  0.20025  0.10095  1.0000
  C   C2389     1.0  0.78371  0.41338  0.19288  1.0000
  C   C2390     1.0  0.75733  0.13650  0.26725  1.0000
  C   C2391     1.0  0.63019  0.13072  0.13672  1.0000
  C   C2392     1.0  0.64710  0.14972  0.03989  1.0000
  C   C2393     1.0  0.67578  0.21438  0.09196  1.0000
  H   H4199     1.0  0.63759  0.17697  0.05409  1.0000
  C   C2394     1.0  0.65542  0.09175  0.37737  1.0000
  H   H4200     1.0  0.61192  0.16988  0.10220  1.0000
  H   H4201     1.0  0.62441  0.18490  0.11450  1.0000
  H   H4202     1.0  0.65627  0.19771  0.06617  1.0000
  H   H4203     1.0  0.66710  0.18370  0.07958  1.0000
  H   H4204     1.0  0.65329  0.15744  0.10611  1.0000
  H   H4205     1.0  0.64138  0.16647  0.12567  1.0000
  H   H4206     1.0  0.74181  0.39276  0.19818  1.0000
  H   H4207     1.0  0.71536  0.09440  0.39103  1.0000
  H   H4208     1.0  0.66379  0.16639  0.05504  1.0000
  H   H4209     1.0  0.65110  0.14621  0.07454  1.0000
  H   H4210     1.0  0.65953  0.19227  0.11766  1.0000
  H   H4211     1.0  0.64848  0.20689  0.10450  1.0000
  H   H4212     1.0  0.75062  0.19372  0.00409  1.0000
  H   H4213     1.0  0.70277  0.20569  0.98211  1.0000
  H   H4214     1.0  0.59341  0.41979  0.33322  1.0000
  H   H4215     1.0  0.77115  0.04321  0.05847  1.0000
  H   H4216     1.0  0.61914  0.11896  0.14304  1.0000
  H   H4217     1.0  0.61110  0.20288  0.22712  1.0000
  H   H4218     1.0  0.63439  0.13998  0.04471  1.0000
  C   C2395     1.0  0.76200  0.22893  0.00246  1.0000
  H   H4219     1.0  0.65714  0.14317  0.03409  1.0000
  H   H4220     1.0  0.68682  0.20848  0.08979  1.0000
  H   H4221     1.0  0.67592  0.22280  0.07509  1.0000
  H   H4222     1.0  0.67730  0.22268  0.10475  1.0000
  H   H4223     1.0  0.64201  0.07545  0.42410  1.0000
  H   H4224     1.0  0.76965  0.29755  0.22673  1.0000
  H   H4225     1.0  0.73916  0.21010  0.02719  1.0000
  S   S531      1.0  0.76371  0.48535  0.20572  1.0000
  H   H4226     1.0  0.64159  0.05784  0.39371  1.0000
  C   C2396     1.0  0.65684  0.99935  0.03967  1.0000
  C   C2397     1.0  0.76593  0.28531  0.24043  1.0000
  C   C2398     1.0  0.63374  0.46152  0.08829  1.0000
  H   H4227     1.0  0.77530  0.23451  0.00425  1.0000
  H   H4228     1.0  0.75860  0.01041  0.09972  1.0000
  H   H4229     1.0  0.64175  0.12673  0.12935  1.0000
  H   H4230     1.0  0.77519  0.39372  0.11227  1.0000
  C   C2399     1.0  0.61249  0.47317  0.28093  1.0000
  H   H4231     1.0  0.72962  0.16315  0.20450  1.0000
  H   H4232     1.0  0.71551  0.07378  0.40810  1.0000
  C   C2400     1.0  0.77068  0.00394  0.13717  1.0000
  N   N135      1.0  0.70632  0.42293  0.20416  1.0000
  H   H4233     1.0  0.67655  0.11476  0.35808  1.0000
  H   H4234     1.0  0.69794  0.06892  0.37980  1.0000
  C   C2401     1.0  0.68840  0.41419  0.20236  1.0000
  H   H4235     1.0  0.74730  0.07387  0.26226  1.0000
  H   H4236     1.0  0.77070  0.11086  0.25461  1.0000
  H   H4237     1.0  0.62457  0.49168  0.09219  1.0000
  H   H4238     1.0  0.73556  0.02769  0.37251  1.0000
  C   C2402     1.0  0.73908  0.12900  0.24031  1.0000
  H   H4239     1.0  0.65686  0.02225  0.01476  1.0000
  H   H4240     1.0  0.76650  0.11903  0.29211  1.0000
  H   H4241     1.0  0.77912  0.44122  0.26103  1.0000
  H   H4242     1.0  0.69452  0.13146  0.29854  1.0000
  H   H4243     1.0  0.75933  0.20863  0.03354  1.0000
  C   C2403     1.0  0.73178  0.15001  0.20915  1.0000
  S   S532      1.0  0.73215  0.01305  0.20850  1.0000
  C   C2404     1.0  0.68672  0.01738  0.99593  1.0000
  H   H4244     1.0  0.67975  0.47281  0.22074  1.0000
  H   H4245     1.0  0.71354  0.42900  0.16646  1.0000
  H   H4246     1.0  0.75721  0.10380  0.23560  1.0000
  H   H4247     1.0  0.61616  0.18583  0.21378  1.0000
  H   H4248     1.0  0.75532  0.14977  0.26629  1.0000
  S   S533      1.0  0.73760  0.10450  0.99184  1.0000
  H   H4249     1.0  0.77763  0.28068  0.24134  1.0000
  C   C2405     1.0  0.78114  0.18456  0.43776  1.0000
  C   C2406     1.0  0.66378  0.10756  0.35644  1.0000
  H   H4250     1.0  0.76087  0.28825  0.25734  1.0000
  S   S534      1.0  0.71624  0.48379  0.20275  1.0000
  H   H4251     1.0  0.66611  0.47513  0.07969  1.0000
  H   H4252     1.0  0.59131  0.38990  0.02777  1.0000
  C   C2407     1.0  0.60599  0.19254  0.21832  1.0000
  H   H4253     1.0  0.74956  0.02935  0.06993  1.0000
  H   H4254     1.0  0.72794  0.19754  0.99235  1.0000
  C   C2408     1.0  0.66134  0.48259  0.06591  1.0000
  C   C2409     1.0  0.77763  0.03339  0.44474  1.0000
  C   C2410     1.0  0.77928  0.14537  0.29085  1.0000
  C   C2411     1.0  0.75212  0.21785  0.02706  1.0000
  C   C2412     1.0  0.77574  0.05420  0.37232  1.0000
  H   H4255     1.0  0.71025  0.20967  0.32741  1.0000
  H   H4256     1.0  0.76370  0.10928  0.39533  1.0000
  H   H4257     1.0  0.63648  0.47438  0.04082  1.0000
  C   C2413     1.0  0.61066  0.43852  0.34491  1.0000
  C   C2414     1.0  0.77818  0.19712  0.99673  1.0000
  H   H4258     1.0  0.76233  0.23942  0.43681  1.0000
  H   H4259     1.0  0.58689  0.44898  0.10816  1.0000
  C   C2415     1.0  0.74276  0.10552  0.26941  1.0000
  H   H4260     1.0  0.75727  0.21436  0.20138  1.0000
  S   S535      1.0  0.76227  0.16735  0.41074  1.0000
  C   C2416     1.0  0.64764  0.00671  0.05851  1.0000
  H   H4261     1.0  0.69594  0.11162  0.31656  1.0000
  H   H4262     1.0  0.72582  0.21763  0.00050  1.0000
  H   H4263     1.0  0.76830  0.13817  0.25236  1.0000
  H   H4264     1.0  0.75308  0.13100  0.30560  1.0000
  C   C2417     1.0  0.62097  0.19559  0.08022  1.0000
  C   C2418     1.0  0.77829  0.18487  0.41516  1.0000
  H   H4265     1.0  0.65094  0.12544  0.37093  1.0000
  H   H4266     1.0  0.66984  0.09407  0.45682  1.0000
  H   H4267     1.0  0.74338  0.22106  0.06207  1.0000
  C   C2419     1.0  0.77768  0.11328  0.38715  1.0000
  H   H4268     1.0  0.71894  0.42194  0.24770  1.0000
  H   H4269     1.0  0.68475  0.06193  0.40899  1.0000
  Fe  Fe267     1.0  0.77983  0.48962  0.16993  1.0000
  C   C2420     1.0  0.62295  0.42895  0.09255  1.0000
  H   H4270     1.0  0.72155  0.00434  0.13234  1.0000
  Fe  Fe268     1.0  0.72540  0.00766  0.24856  1.0000
  C   C2421     1.0  0.66829  0.47824  0.04238  1.0000
  C   C2422     1.0  0.66320  0.06212  0.32312  1.0000
  C   C2423     1.0  0.67068  0.07262  0.35839  1.0000
  C   C2424     1.0  0.58777  0.39947  0.03761  1.0000
  H   H4271     1.0  0.70670  0.19833  0.30472  1.0000
  H   H4272     1.0  0.67534  0.43403  0.21186  1.0000
  C   C2425     1.0  0.65263  0.12036  0.35488  1.0000
  S   S536      1.0  0.77854  0.39067  0.20429  1.0000
  C   C2426     1.0  0.70459  0.43258  0.22361  1.0000
  H   H4273     1.0  0.76481  0.00481  0.17365  1.0000
  C   C2427     1.0  0.76422  0.45975  0.26141  1.0000
  H   H4274     1.0  0.67122  0.05276  0.32513  1.0000
  H   H4275     1.0  0.67721  0.06202  0.36149  1.0000
  C   C2428     1.0  0.65598  0.06559  0.34669  1.0000
  C   C2429     1.0  0.69237  0.07346  0.39512  1.0000
  C   C2430     1.0  0.64397  0.48977  0.11194  1.0000
  H   H4276     1.0  0.77776  0.08756  0.36316  1.0000
  H   H4277     1.0  0.62013  0.46052  0.09642  1.0000
  H   H4278     1.0  0.64006  0.45881  0.10302  1.0000
  H   H4279     1.0  0.75971  0.03265  0.03963  1.0000
  H   H4280     1.0  0.61788  0.19096  0.06473  1.0000
  H   H4281     1.0  0.62797  0.42631  0.10850  1.0000
  H   H4282     1.0  0.60933  0.42931  0.09764  1.0000
  H   H4283     1.0  0.77793  0.06088  0.35373  1.0000
  H   H4284     1.0  0.75568  0.45263  0.27860  1.0000
  H   H4285     1.0  0.76944  0.24564  0.22246  1.0000
  C   C2431     1.0  0.71800  0.03299  0.97679  1.0000
  H   H4286     1.0  0.63413  0.05096  0.45821  1.0000
  C   C2432     1.0  0.59255  0.42725  0.34700  1.0000
  H   H4287     1.0  0.76574  0.23680  0.18564  1.0000
  C   C2433     1.0  0.75604  0.04607  0.38082  1.0000
  H   H4288     1.0  0.60901  0.20825  0.10536  1.0000
  H   H4289     1.0  0.78460  0.24036  0.42610  1.0000
  H   H4290     1.0  0.66699  0.48792  0.02762  1.0000
  C   C2434     1.0  0.72271  0.00062  0.19006  1.0000
  H   H4291     1.0  0.76058  0.00398  0.05984  1.0000
  C   C2435     1.0  0.63854  0.49231  0.08829  1.0000
  H   H4292     1.0  0.77361  0.17381  0.45194  1.0000
  H   H4293     1.0  0.78254  0.40101  0.13640  1.0000
  H   H4294     1.0  0.67029  0.00087  0.04132  1.0000
  H   H4295     1.0  0.61946  0.43010  0.34758  1.0000
  N   N136      1.0  0.77875  0.99691  0.09616  1.0000
  H   H4296     1.0  0.75239  0.03913  0.39940  1.0000
  H   H4297     1.0  0.76295  0.07912  0.39021  1.0000
  H   H4298     1.0  0.76909  0.21955  0.43729  1.0000
  H   H4299     1.0  0.60332  0.21191  0.07759  1.0000
  H   H4300     1.0  0.65735  0.48853  0.10974  1.0000
  H   H4301     1.0  0.76690  0.00255  0.01765  1.0000
  Fe  Fe269     1.0  0.58923  0.42521  0.17892  1.0000
  H   H4302     1.0  0.77958  0.11836  0.36812  1.0000
  H   H4303     1.0  0.58716  0.13653  0.20389  1.0000
  H   H4304     1.0  0.77620  0.03074  0.41021  1.0000
  N   N137      1.0  0.78374  0.06666  0.38573  1.0000
  C   C2436     1.0  0.77932  0.05850  0.41147  1.0000
  H   H4305     1.0  0.76357  0.03145  0.45092  1.0000
  H   H4306     1.0  0.78466  0.04244  0.45387  1.0000
  C   C2437     1.0  0.78315  0.04054  0.41838  1.0000
  H   H4307     1.0  0.78060  0.02063  0.44922  1.0000
  H   H4308     1.0  0.78596  0.42567  0.10332  1.0000
  H   H4309     1.0  0.78399  0.09395  0.41093  1.0000
  H   H4310     1.0  0.78392  0.12398  0.39462  1.0000
  H   H4311     1.0  0.58664  0.49514  0.04143  1.0000
  C   C2438     1.0  0.78561  0.09796  0.39181  1.0000
  H   H4312     1.0  0.78636  0.19938  0.37956  1.0000
  C   C2439     1.0  0.78533  0.99561  0.33292  1.0000
  C   C2440     1.0  0.71969  0.18495  0.53849  1.0000
  H   H4313     1.0  0.78600  0.41481  0.67550  1.0000
  S   S537      1.0  0.74232  0.18830  0.93289  1.0000
  C   C2441     1.0  0.76938  0.22961  0.78556  1.0000
  Fe  Fe270     1.0  0.72772  0.16262  0.95864  1.0000
  S   S538      1.0  0.71990  0.13693  0.94853  1.0000
  Fe  Fe271     1.0  0.60911  0.18676  0.65229  1.0000
  S   S539      1.0  0.59928  0.15797  0.66716  1.0000
  Fe  Fe272     1.0  0.64684  0.18728  0.65270  1.0000
  S   S540      1.0  0.63982  0.15823  0.66717  1.0000
  S   S541      1.0  0.67412  0.20582  0.64098  1.0000
  Fe  Fe273     1.0  0.62232  0.15607  0.64176  1.0000
  S   S542      1.0  0.62125  0.13470  0.62111  1.0000
  Fe  Fe274     1.0  0.61726  0.16220  0.69123  1.0000
  S   S543      1.0  0.60865  0.15441  0.73080  1.0000
  S   S544      1.0  0.63114  0.18473  0.62543  1.0000
  S   S545      1.0  0.62532  0.19129  0.67817  1.0000
  C   C2442     1.0  0.76432  0.23927  0.83286  1.0000
  S   S546      1.0  0.76017  0.29536  0.65483  1.0000
  H   H4314     1.0  0.69214  0.48620  0.57728  1.0000
  S   S547      1.0  0.76185  0.28091  0.70871  1.0000
  H   H4315     1.0  0.63574  0.22159  0.73430  1.0000
  Fe  Fe275     1.0  0.75116  0.26941  0.68082  1.0000
  S   S548      1.0  0.72347  0.25159  0.69207  1.0000
  Fe  Fe276     1.0  0.77282  0.30619  0.68166  1.0000
  S   S549      1.0  0.77130  0.33097  0.69473  1.0000
  Fe  Fe277     1.0  0.60539  0.08601  0.48461  1.0000
  H   H4316     1.0  0.75791  0.21344  0.76390  1.0000
  N   N138      1.0  0.65502  0.25223  0.65489  1.0000
  C   C2443     1.0  0.64276  0.11915  0.53287  1.0000
  H   H4317     1.0  0.78176  0.20537  0.82329  1.0000
  H   H4318     1.0  0.71860  0.34409  0.73814  1.0000
  H   H4319     1.0  0.73230  0.16375  0.87337  1.0000
  H   H4320     1.0  0.77845  0.24848  0.50149  1.0000
  Fe  Fe278     1.0  0.61775  0.07493  0.87770  1.0000
  S   S550      1.0  0.60862  0.09569  0.85705  1.0000
  S   S551      1.0  0.64365  0.08022  0.88804  1.0000
  H   H4321     1.0  0.62969  0.13054  0.49436  1.0000
  Fe  Fe279     1.0  0.60223  0.07682  0.83458  1.0000
  S   S552      1.0  0.60900  0.08298  0.79496  1.0000
  S   S553      1.0  0.61313  0.05672  0.85355  1.0000
  Fe  Fe280     1.0  0.69631  0.47675  0.69282  1.0000
  S   S554      1.0  0.67162  0.47446  0.71861  1.0000
  S   S555      1.0  0.71250  0.45758  0.68893  1.0000
  Fe  Fe281     1.0  0.66114  0.48156  0.68689  1.0000
  S   S556      1.0  0.63387  0.47159  0.68179  1.0000
  H   H4322     1.0  0.70189  0.01497  0.96250  1.0000
  H   H4323     1.0  0.74172  0.34962  0.72967  1.0000
  H   H4324     1.0  0.69794  0.39763  0.72314  1.0000
  H   H4325     1.0  0.65767  0.05144  0.94254  1.0000
  S   S557      1.0  0.59581  0.39715  0.66833  1.0000
  C   C2444     1.0  0.62356  0.45080  0.67803  1.0000
  C   C2445     1.0  0.60724  0.44822  0.67272  1.0000
  C   C2446     1.0  0.59862  0.43197  0.66944  1.0000
  C   C2447     1.0  0.60611  0.41802  0.67182  1.0000
  C   C2448     1.0  0.62239  0.42060  0.67722  1.0000
  C   C2449     1.0  0.63111  0.43689  0.68020  1.0000
  H   H4326     1.0  0.60123  0.45885  0.67110  1.0000
  H   H4327     1.0  0.77197  0.24358  0.78581  1.0000
  H   H4328     1.0  0.62832  0.40990  0.67904  1.0000
  H   H4329     1.0  0.64363  0.43865  0.68430  1.0000
  C   C2450     1.0  0.76202  0.45903  0.71453  1.0000
  C   C2451     1.0  0.74755  0.46122  0.72899  1.0000
  C   C2452     1.0  0.73252  0.46160  0.72093  1.0000
  C   C2453     1.0  0.73183  0.45957  0.69843  1.0000
  C   C2454     1.0  0.74636  0.45754  0.68386  1.0000
  C   C2455     1.0  0.76152  0.45755  0.69177  1.0000
  H   H4330     1.0  0.61774  0.27614  0.68108  1.0000
  C   C2456     1.0  0.67302  0.25955  0.65766  1.0000
  H   H4331     1.0  0.74582  0.45583  0.66648  1.0000
  C   C2457     1.0  0.59169  0.13830  0.57283  1.0000
  H   H4332     1.0  0.78172  0.22608  0.78131  1.0000
  C   C2458     1.0  0.65540  0.16196  0.56838  1.0000
  H   H4333     1.0  0.74064  0.49263  0.66648  1.0000
  H   H4334     1.0  0.76596  0.18742  0.52559  1.0000
  C   C2459     1.0  0.62611  0.15540  0.49988  1.0000
  C   C2460     1.0  0.60797  0.13405  0.74810  1.0000
  C   C2461     1.0  0.61336  0.12115  0.73838  1.0000
  C   C2462     1.0  0.61330  0.10541  0.75295  1.0000
  C   C2463     1.0  0.60779  0.10242  0.77727  1.0000
  C   C2464     1.0  0.60206  0.11518  0.78693  1.0000
  H   H4335     1.0  0.78283  0.26813  0.52747  1.0000
  H   H4336     1.0  0.61777  0.12336  0.71970  1.0000
  H   H4337     1.0  0.61771  0.09556  0.74536  1.0000
  H   H4338     1.0  0.70132  0.49006  0.60165  1.0000
  H   H4339     1.0  0.72131  0.46294  0.73237  1.0000
  C   C2465     1.0  0.60926  0.13044  0.59974  1.0000
  C   C2466     1.0  0.60908  0.11523  0.59133  1.0000
  C   C2467     1.0  0.60022  0.11153  0.57389  1.0000
  H   H4340     1.0  0.62930  0.14409  0.54954  1.0000
  C   C2468     1.0  0.76054  0.22720  0.76553  1.0000
  H   H4341     1.0  0.63843  0.16493  0.49032  1.0000
  H   H4342     1.0  0.61579  0.10620  0.59845  1.0000
  H   H4343     1.0  0.60009  0.09970  0.56779  1.0000
  H   H4344     1.0  0.64203  0.46977  0.63098  1.0000
  C   C2469     1.0  0.68815  0.21729  0.65606  1.0000
  C   C2470     1.0  0.68349  0.21648  0.67998  1.0000
  C   C2471     1.0  0.69453  0.22692  0.69067  1.0000
  C   C2472     1.0  0.71055  0.23800  0.67782  1.0000
  C   C2473     1.0  0.71544  0.23837  0.65408  1.0000
  C   C2474     1.0  0.70426  0.22822  0.64329  1.0000
  H   H4345     1.0  0.67130  0.20800  0.69016  1.0000
  H   H4346     1.0  0.69062  0.22642  0.70905  1.0000
  H   H4347     1.0  0.72771  0.24675  0.64393  1.0000
  H   H4348     1.0  0.70808  0.22893  0.62483  1.0000
  H   H4349     1.0  0.72630  0.42003  0.68090  1.0000
  C   C2475     1.0  0.66126  0.11497  0.93732  1.0000
  C   C2476     1.0  0.64474  0.11308  0.93278  1.0000
  C   C2477     1.0  0.63914  0.10251  0.91780  1.0000
  C   C2478     1.0  0.65002  0.09366  0.90716  1.0000
  C   C2479     1.0  0.66653  0.09551  0.91173  1.0000
  C   C2480     1.0  0.67213  0.10610  0.92670  1.0000
  H   H4350     1.0  0.63622  0.11986  0.94089  1.0000
  H   H4351     1.0  0.62642  0.10121  0.91449  1.0000
  H   H4352     1.0  0.67504  0.08872  0.90362  1.0000
  H   H4353     1.0  0.62241  0.47066  0.62334  1.0000
  C   C2481     1.0  0.67507  0.48007  0.80451  1.0000
  C   C2482     1.0  0.76485  0.19745  0.92385  1.0000
  C   C2483     1.0  0.77104  0.21413  0.90901  1.0000
  H   H4354     1.0  0.69542  0.41057  0.69680  1.0000
  H   H4355     1.0  0.77200  0.17617  0.94317  1.0000
  H   H4356     1.0  0.76199  0.22090  0.90347  1.0000
  H   H4357     1.0  0.77519  0.35952  0.71729  1.0000
  H   H4358     1.0  0.64892  0.08646  0.54331  1.0000
  C   C2484     1.0  0.64130  0.10495  0.51863  1.0000
  C   C2485     1.0  0.76653  0.24350  0.85654  1.0000
  H   H4359     1.0  0.61660  0.43968  0.61988  1.0000
  H   H4360     1.0  0.68485  0.10740  0.93002  1.0000
  H   H4361     1.0  0.67326  0.04033  0.93239  1.0000
  H   H4362     1.0  0.77330  0.19448  0.49424  1.0000
  S   S558      1.0  0.68494  0.48169  0.66161  1.0000
  C   C2486     1.0  0.60045  0.14196  0.59041  1.0000
  H   H4363     1.0  0.66542  0.15953  0.50127  1.0000
  C   C2487     1.0  0.76288  0.24359  0.53619  1.0000
  H   H4364     1.0  0.63145  0.11475  0.54789  1.0000
  C   C2488     1.0  0.58750  0.42226  0.73773  1.0000
  H   H4365     1.0  0.78289  0.43243  0.63877  1.0000
  C   C2489     1.0  0.78126  0.41815  0.64143  1.0000
  Fe  Fe282     1.0  0.78612  0.27411  0.69484  1.0000
  H   H4366     1.0  0.68015  0.24933  0.65812  1.0000
  H   H4367     1.0  0.72754  0.40181  0.72965  1.0000
  H   H4368     1.0  0.70202  0.28380  0.66040  1.0000
  C   C2490     1.0  0.77107  0.40684  0.75708  1.0000
  H   H4369     1.0  0.67377  0.46601  0.80525  1.0000
  S   S559      1.0  0.59201  0.06207  0.90212  1.0000
  H   H4370     1.0  0.62329  0.28706  0.65052  1.0000
  C   C2491     1.0  0.64710  0.23566  0.67346  1.0000
  H   H4371     1.0  0.60974  0.44164  0.76092  1.0000
  S   S560      1.0  0.59341  0.20587  0.64350  1.0000
  H   H4372     1.0  0.78033  0.27081  0.84234  1.0000
  C   C2492     1.0  0.74485  0.21206  0.52469  1.0000
  C   C2493     1.0  0.76013  0.22272  0.48309  1.0000
  C   C2494     1.0  0.77550  0.40941  0.66737  1.0000
  H   H4373     1.0  0.75618  0.38527  0.74732  1.0000
  N   N139      1.0  0.64374  0.49267  0.60464  1.0000
  H   H4374     1.0  0.78338  0.27760  0.74925  1.0000
  H   H4375     1.0  0.72459  0.18165  0.88108  1.0000
  H   H4376     1.0  0.61735  0.48881  0.64613  1.0000
  H   H4377     1.0  0.62259  0.21642  0.71410  1.0000
  C   C2495     1.0  0.63645  0.47354  0.61582  1.0000
  C   C2496     1.0  0.60897  0.44834  0.74342  1.0000
  H   H4378     1.0  0.63241  0.43306  0.60105  1.0000
  H   H4379     1.0  0.78040  0.22112  0.95063  1.0000
  H   H4380     1.0  0.75736  0.26693  0.85210  1.0000
  H   H4381     1.0  0.78236  0.21243  0.84946  1.0000
  H   H4382     1.0  0.77022  0.23638  0.54620  1.0000
  H   H4383     1.0  0.67875  0.28701  0.63899  1.0000
  C   C2497     1.0  0.73440  0.19583  0.51810  1.0000
  C   C2498     1.0  0.76508  0.24106  0.51076  1.0000
  N   N140      1.0  0.75019  0.40303  0.70355  1.0000
  C   C2499     1.0  0.75819  0.21781  0.80905  1.0000
  H   H4384     1.0  0.61167  0.46255  0.74253  1.0000
  H   H4385     1.0  0.76769  0.26423  0.55482  1.0000
  H   H4386     1.0  0.75712  0.20942  0.47988  1.0000
  H   H4387     1.0  0.71598  0.22645  0.96447  1.0000
  C   C2500     1.0  0.64311  0.23323  0.60212  1.0000
  H   H4388     1.0  0.74918  0.23899  0.54568  1.0000
  C   C2501     1.0  0.77646  0.21557  0.51340  1.0000
  H   H4389     1.0  0.74909  0.22795  0.47977  1.0000
  H   H4390     1.0  0.72918  0.34918  0.70773  1.0000
  H   H4391     1.0  0.66340  0.16040  0.58135  1.0000
  H   H4392     1.0  0.59056  0.44977  0.72232  1.0000
  H   H4393     1.0  0.78504  0.25572  0.61501  1.0000
  H   H4394     1.0  0.74932  0.21680  0.95457  1.0000
  H   H4395     1.0  0.77421  0.39527  0.66913  1.0000
  H   H4396     1.0  0.71214  0.17375  0.53310  1.0000
  H   H4397     1.0  0.63738  0.07699  0.52375  1.0000
  H   H4398     1.0  0.61897  0.44613  0.72997  1.0000
  H   H4399     1.0  0.77173  0.41262  0.63186  1.0000
  H   H4400     1.0  0.74710  0.20796  0.54242  1.0000
  C   C2502     1.0  0.66054  0.03854  0.94410  1.0000
  H   H4401     1.0  0.74788  0.46239  0.74663  1.0000
  H   H4402     1.0  0.74450  0.17824  0.88753  1.0000
  C   C2503     1.0  0.77880  0.22870  0.96425  1.0000
  C   C2504     1.0  0.66115  0.14521  0.50291  1.0000
  H   H4403     1.0  0.75746  0.37883  0.70570  1.0000
  H   H4404     1.0  0.74306  0.38119  0.68750  1.0000
  H   H4405     1.0  0.60336  0.27046  0.66254  1.0000
  H   H4406     1.0  0.64780  0.48260  0.86927  1.0000
  N   N141      1.0  0.64400  0.13743  0.52017  1.0000
  H   H4407     1.0  0.65437  0.22587  0.67039  1.0000
  H   H4408     1.0  0.59148  0.19739  0.70625  1.0000
  C   C2505     1.0  0.72151  0.40863  0.69600  1.0000
  C   C2506     1.0  0.62272  0.49194  0.89824  1.0000
  H   H4409     1.0  0.77743  0.21574  0.53161  1.0000
  C   C2507     1.0  0.78633  0.35180  0.68671  1.0000
  H   H4410     1.0  0.63680  0.43865  0.62754  1.0000
  H   H4411     1.0  0.65341  0.10726  0.50545  1.0000
  H   H4412     1.0  0.72448  0.47651  0.64084  1.0000
  C   C2508     1.0  0.73053  0.37167  0.72353  1.0000
  C   C2509     1.0  0.78499  0.36354  0.70127  1.0000
  H   H4413     1.0  0.63537  0.49148  0.57260  1.0000
  H   H4414     1.0  0.61939  0.49316  0.59547  1.0000
  H   H4415     1.0  0.67133  0.14003  0.50946  1.0000
  H   H4416     1.0  0.62590  0.08362  0.54763  1.0000
  H   H4417     1.0  0.75215  0.24224  0.82979  1.0000
  H   H4418     1.0  0.65925  0.24044  0.70250  1.0000
  H   H4419     1.0  0.72480  0.17979  0.55347  1.0000
  H   H4420     1.0  0.70910  0.27078  0.64102  1.0000
  C   C2510     1.0  0.62888  0.13726  0.50896  1.0000
  H   H4421     1.0  0.73093  0.37418  0.74098  1.0000
  H   H4422     1.0  0.76070  0.42712  0.67728  1.0000
  H   H4423     1.0  0.63037  0.10440  0.51004  1.0000
  C   C2511     1.0  0.60219  0.13093  0.77238  1.0000
  H   H4424     1.0  0.75649  0.24790  0.50256  1.0000
  N   N142      1.0  0.76403  0.22084  0.83089  1.0000
  C   C2512     1.0  0.70243  0.28116  0.64276  1.0000
  H   H4425     1.0  0.62431  0.25903  0.63969  1.0000
  H   H4426     1.0  0.65558  0.23104  0.59433  1.0000
  H   H4427     1.0  0.64220  0.16114  0.57792  1.0000
  C   C2513     1.0  0.74597  0.38374  0.70425  1.0000
  C   C2514     1.0  0.76884  0.26285  0.85585  1.0000
  H   H4428     1.0  0.65414  0.11878  0.54046  1.0000
  H   H4429     1.0  0.68972  0.49255  0.90614  1.0000
  C   C2515     1.0  0.70402  0.40952  0.70906  1.0000
  H   H4430     1.0  0.71004  0.29316  0.62963  1.0000
  H   H4431     1.0  0.77500  0.40418  0.71195  1.0000
  H   H4432     1.0  0.71094  0.19288  0.54410  1.0000
  H   H4433     1.0  0.59328  0.41547  0.75071  1.0000
  C   C2516     1.0  0.64191  0.23342  0.62781  1.0000
  C   C2517     1.0  0.68429  0.27572  0.63867  1.0000
  H   H4434     1.0  0.59522  0.42191  0.72058  1.0000
  H   H4435     1.0  0.77221  0.24784  0.93892  1.0000
  C   C2518     1.0  0.65512  0.14763  0.55479  1.0000
  H   H4436     1.0  0.74237  0.18725  0.51269  1.0000
  C   C2519     1.0  0.61711  0.27443  0.66324  1.0000
  H   H4437     1.0  0.63237  0.46329  0.58492  1.0000
  H   H4438     1.0  0.66089  0.17501  0.55645  1.0000
  H   H4439     1.0  0.77728  0.33301  0.74336  1.0000
  H   H4440     1.0  0.66842  0.14927  0.54493  1.0000
  H   H4441     1.0  0.65047  0.02971  0.93838  1.0000
  C   C2520     1.0  0.64617  0.23727  0.69905  1.0000
  C   C2521     1.0  0.75749  0.39948  0.74441  1.0000
  H   H4442     1.0  0.74527  0.40189  0.75262  1.0000
  C   C2522     1.0  0.63821  0.08694  0.53440  1.0000
  C   C2523     1.0  0.78111  0.21671  0.83122  1.0000
  C   C2524     1.0  0.59109  0.44167  0.73911  1.0000
  C   C2525     1.0  0.67469  0.49078  0.60619  1.0000
  H   H4443     1.0  0.72766  0.03778  0.95995  1.0000
  H   H4444     1.0  0.61885  0.24815  0.67023  1.0000
  C   C2526     1.0  0.73457  0.40920  0.71184  1.0000
  H   H4445     1.0  0.61680  0.12939  0.52160  1.0000
  H   H4446     1.0  0.65090  0.13496  0.56776  1.0000
  C   C2527     1.0  0.64257  0.14822  0.53828  1.0000
  H   H4447     1.0  0.64651  0.27052  0.67349  1.0000
  H   H4448     1.0  0.65091  0.27749  0.64292  1.0000
  H   H4449     1.0  0.65625  0.47424  0.83658  1.0000
  H   H4450     1.0  0.71967  0.39663  0.68918  1.0000
  C   C2528     1.0  0.64520  0.26577  0.65741  1.0000
  C   C2529     1.0  0.63604  0.22013  0.71616  1.0000
  H   H4451     1.0  0.67374  0.01272  0.95720  1.0000
  S   S561      1.0  0.59230  0.07601  0.52270  1.0000
  H   H4452     1.0  0.73854  0.42293  0.71362  1.0000
  C   C2530     1.0  0.76306  0.40790  0.71801  1.0000
  H   H4453     1.0  0.70544  0.42114  0.71677  1.0000
  H   H4454     1.0  0.71824  0.37360  0.71968  1.0000
  C   C2531     1.0  0.75833  0.41287  0.67864  1.0000
  H   H4455     1.0  0.63386  0.22952  0.67231  1.0000
  C   C2532     1.0  0.77594  0.19675  0.51107  1.0000
  C   C2533     1.0  0.73002  0.35250  0.72478  1.0000
  H   H4456     1.0  0.74940  0.40967  0.66713  1.0000
  H   H4457     1.0  0.64466  0.16216  0.52979  1.0000
  H   H4458     1.0  0.64319  0.22066  0.63664  1.0000
  H   H4459     1.0  0.58865  0.38836  0.74900  1.0000
  N   N143      1.0  0.65277  0.13833  0.79058  1.0000
  C   C2534     1.0  0.64676  0.11962  0.80422  1.0000
  C   C2535     1.0  0.63951  0.14815  0.79697  1.0000
  C   C2536     1.0  0.65463  0.13814  0.76505  1.0000
  C   C2537     1.0  0.67001  0.14748  0.79397  1.0000
  C   C2538     1.0  0.67139  0.14721  0.81946  1.0000
  C   C2539     1.0  0.65894  0.10791  0.79896  1.0000
  C   C2540     1.0  0.65905  0.15621  0.74788  1.0000
  C   C2541     1.0  0.62814  0.14236  0.82212  1.0000
  C   C2542     1.0  0.61719  0.15491  0.82683  1.0000
  C   C2543     1.0  0.68983  0.15544  0.82064  1.0000
  C   C2544     1.0  0.65254  0.09009  0.81587  1.0000
  C   C2545     1.0  0.65940  0.15425  0.72290  1.0000
  H   H4460     1.0  0.63410  0.11328  0.80114  1.0000
  H   H4461     1.0  0.64434  0.11874  0.82326  1.0000
  H   H4462     1.0  0.64571  0.16237  0.79347  1.0000
  H   H4463     1.0  0.63013  0.14698  0.78565  1.0000
  H   H4464     1.0  0.64255  0.13002  0.76232  1.0000
  H   H4465     1.0  0.66493  0.13194  0.75909  1.0000
  H   H4466     1.0  0.68032  0.14217  0.78556  1.0000
  H   H4467     1.0  0.67365  0.16146  0.78486  1.0000
  H   H4468     1.0  0.66761  0.13377  0.83036  1.0000
  H   H4469     1.0  0.66320  0.15491  0.82715  1.0000
  H   H4470     1.0  0.65955  0.10564  0.78114  1.0000
  H   H4471     1.0  0.67210  0.11379  0.80067  1.0000
  H   H4472     1.0  0.67192  0.16419  0.74799  1.0000
  H   H4473     1.0  0.64947  0.16356  0.75230  1.0000
  H   H4474     1.0  0.61916  0.12939  0.82439  1.0000
  H   H4475     1.0  0.63580  0.14144  0.83551  1.0000
  H   H4476     1.0  0.60886  0.15580  0.81416  1.0000
  H   H4477     1.0  0.60880  0.15008  0.84466  1.0000
  H   H4478     1.0  0.62549  0.16807  0.82563  1.0000
  H   H4479     1.0  0.69426  0.16916  0.81049  1.0000
  H   H4480     1.0  0.69039  0.15530  0.83906  1.0000
  H   H4481     1.0  0.69862  0.14795  0.81375  1.0000
  H   H4482     1.0  0.65182  0.09141  0.83414  1.0000
  H   H4483     1.0  0.63964  0.08326  0.81419  1.0000
  H   H4484     1.0  0.66148  0.08198  0.81186  1.0000
  H   H4485     1.0  0.66911  0.14733  0.71716  1.0000
  H   H4486     1.0  0.64658  0.14693  0.72152  1.0000
  H   H4487     1.0  0.66277  0.16731  0.71096  1.0000
  H   H4488     1.0  0.72862  0.20005  0.50335  1.0000
  H   H4489     1.0  0.68556  0.27306  0.62099  1.0000
  H   H4490     1.0  0.76691  0.40048  0.77593  1.0000
  C   C2546     1.0  0.75073  0.20859  0.85148  1.0000
  H   H4491     1.0  0.77066  0.26542  0.87297  1.0000
  H   H4492     1.0  0.75620  0.48687  0.63200  1.0000
  C   C2547     1.0  0.62586  0.26043  0.65733  1.0000
  C   C2548     1.0  0.74631  0.18900  0.85087  1.0000
  Fe  Fe283     1.0  0.78448  0.28703  0.64433  1.0000
  H   H4493     1.0  0.67272  0.26353  0.67454  1.0000
  H   H4494     1.0  0.76966  0.49215  0.66722  1.0000
  H   H4495     1.0  0.65247  0.46210  0.59245  1.0000
  C   C2549     1.0  0.73629  0.17753  0.87467  1.0000
  H   H4496     1.0  0.76695  0.42232  0.71581  1.0000
  H   H4497     1.0  0.60050  0.15373  0.59661  1.0000
  N   N144      1.0  0.76162  0.22245  0.50792  1.0000
  H   H4498     1.0  0.77699  0.25557  0.96411  1.0000
  H   H4499     1.0  0.73843  0.21252  0.85355  1.0000
  H   H4500     1.0  0.75507  0.20937  0.86795  1.0000
  H   H4501     1.0  0.73575  0.22037  0.52659  1.0000
  H   H4502     1.0  0.73346  0.48239  0.60994  1.0000
  C   C2550     1.0  0.69259  0.49399  0.59078  1.0000
  H   H4503     1.0  0.64176  0.24569  0.59235  1.0000
  H   H4504     1.0  0.63255  0.22250  0.60055  1.0000
  H   H4505     1.0  0.59770  0.11296  0.80562  1.0000
  H   H4506     1.0  0.75809  0.18469  0.84578  1.0000
  H   H4507     1.0  0.73812  0.18660  0.83826  1.0000
  H   H4508     1.0  0.71820  0.20643  0.95627  1.0000
  H   H4509     1.0  0.62889  0.23433  0.63527  1.0000
  C   C2551     1.0  0.65641  0.24828  0.63094  1.0000
  C   C2552     1.0  0.74751  0.22136  0.97109  1.0000
  H   H4510     1.0  0.62044  0.47762  0.90062  1.0000
  H   H4511     1.0  0.78358  0.40438  0.75004  1.0000
  C   C2553     1.0  0.77659  0.18900  0.93168  1.0000
  H   H4512     1.0  0.63975  0.24744  0.70302  1.0000
  H   H4513     1.0  0.66843  0.24419  0.62574  1.0000
  H   H4514     1.0  0.65757  0.26025  0.61762  1.0000
  C   C2554     1.0  0.78061  0.24771  0.95157  1.0000
  H   H4515     1.0  0.75489  0.23645  0.87042  1.0000
  S   S562      1.0  0.66754  0.12851  0.95639  1.0000
  C   C2555     1.0  0.66944  0.48280  0.82903  1.0000
  H   H4516     1.0  0.67020  0.47675  0.61482  1.0000
  H   H4517     1.0  0.75771  0.20430  0.80714  1.0000
  H   H4518     1.0  0.76132  0.27051  0.52791  1.0000
  H   H4519     1.0  0.59815  0.14089  0.78005  1.0000
  H   H4520     1.0  0.77466  0.24895  0.81920  1.0000
  H   H4521     1.0  0.66701  0.48468  0.79294  1.0000
  C   C2556     1.0  0.59159  0.12312  0.56437  1.0000
  C   C2557     1.0  0.63061  0.44194  0.61289  1.0000
  H   H4522     1.0  0.66321  0.49091  0.57607  1.0000
  C   C2558     1.0  0.73144  0.48755  0.62589  1.0000
  H   H4523     1.0  0.76906  0.23556  0.74891  1.0000
  Fe  Fe284     1.0  0.69306  0.13532  0.96757  1.0000
  H   H4524     1.0  0.67822  0.47845  0.83948  1.0000
  S   S563      1.0  0.77493  0.26065  0.66890  1.0000
  H   H4525     1.0  0.77271  0.45608  0.68049  1.0000
  H   H4526     1.0  0.67569  0.48856  0.87359  1.0000
  H   H4527     1.0  0.74830  0.23111  0.76823  1.0000
  C   C2559     1.0  0.63868  0.46084  0.59962  1.0000
  H   H4528     1.0  0.74481  0.21913  0.81041  1.0000
  C   C2560     1.0  0.78244  0.32412  0.75479  1.0000
  H   H4529     1.0  0.77223  0.31176  0.76229  1.0000
  H   H4530     1.0  0.77782  0.23970  0.86138  1.0000
  H   H4531     1.0  0.68874  0.48724  0.79689  1.0000
  S   S564      1.0  0.59645  0.11038  0.48106  1.0000
  H   H4532     1.0  0.77284  0.42108  0.75522  1.0000
  C   C2561     1.0  0.76905  0.26281  0.53651  1.0000
  H   H4533     1.0  0.62050  0.16039  0.51480  1.0000
  H   H4534     1.0  0.69681  0.03536  0.96140  1.0000
  S   S565      1.0  0.78012  0.45741  0.72592  1.0000
  H   H4535     1.0  0.64222  0.20953  0.71332  1.0000
  H   H4536     1.0  0.60086  0.14570  0.49326  1.0000
  H   H4537     1.0  0.65684  0.12917  0.47691  1.0000
  C   C2562     1.0  0.66213  0.14284  0.47756  1.0000
  H   H4538     1.0  0.78580  0.33003  0.76928  1.0000
  C   C2563     1.0  0.66079  0.03122  0.96935  1.0000
  H   H4539     1.0  0.61839  0.49482  0.91545  1.0000
  H   H4540     1.0  0.74731  0.23521  0.96599  1.0000
  C   C2564     1.0  0.61362  0.15452  0.48377  1.0000
  S   S566      1.0  0.63326  0.08562  0.47328  1.0000
  H   H4541     1.0  0.61191  0.16768  0.47770  1.0000
  C   C2565     1.0  0.71578  0.21267  0.97118  1.0000
  H   H4542     1.0  0.65203  0.00357  0.97168  1.0000
  H   H4543     1.0  0.60533  0.99574  0.80134  1.0000
  H   H4544     1.0  0.59225  0.85558  0.44572  1.0000
  S   S567      1.0  0.63265  0.89127  0.31496  1.0000
  H   H4545     1.0  0.61021  0.91950  0.28885  1.0000
  C   C2566     1.0  0.64276  0.50500  0.12341  1.0000
  H   H4546     1.0  0.63176  0.58768  0.22612  1.0000
  Fe  Fe285     1.0  0.60361  0.87425  0.00086  1.0000
  H   H4547     1.0  0.59768  0.81044  0.37344  1.0000
  S   S568      1.0  0.62740  0.88372  0.01529  1.0000
  C   C2567     1.0  0.74663  0.80291  0.46559  1.0000
  H   H4548     1.0  0.59255  0.85118  0.14108  1.0000
  S   S569      1.0  0.72313  0.98258  0.27386  1.0000
  S   S570      1.0  0.67205  0.97012  0.30993  1.0000
  H   H4549     1.0  0.77903  0.59110  0.04180  1.0000
  H   H4550     1.0  0.59695  0.88103  0.41640  1.0000
  C   C2568     1.0  0.63794  0.50165  0.03911  1.0000
  N   N145      1.0  0.65569  0.94194  0.23672  1.0000
  H   H4551     1.0  0.60264  0.58467  0.40157  1.0000
  H   H4552     1.0  0.60973  0.87483  0.11502  1.0000
  Fe  Fe286     1.0  0.72472  0.97605  0.05545  1.0000
  S   S571      1.0  0.70338  0.95482  0.08114  1.0000
  S   S572      1.0  0.74873  0.96680  0.04398  1.0000
  S   S573      1.0  0.68168  0.98315  0.08400  1.0000
  Fe  Fe287     1.0  0.70167  0.97546  0.10173  1.0000
  S   S574      1.0  0.69855  0.96891  0.14143  1.0000
  Fe  Fe288     1.0  0.68517  0.96431  0.06106  1.0000
  S   S575      1.0  0.66009  0.95136  0.05114  1.0000
  S   S576      1.0  0.70656  0.98424  0.03400  1.0000
  H   H4553     1.0  0.65108  0.96811  0.26338  1.0000
  H   H4554     1.0  0.64607  0.51555  0.30794  1.0000
  S   S577      1.0  0.71466  0.60631  0.45192  1.0000
  S   S578      1.0  0.74545  0.57441  0.45744  1.0000
  H   H4555     1.0  0.67832  0.71323  0.44116  1.0000
  S   S579      1.0  0.67137  0.58564  0.43774  1.0000
  H   H4556     1.0  0.77301  0.96898  0.10013  1.0000
  H   H4557     1.0  0.66687  0.53012  0.29375  1.0000
  C   C2569     1.0  0.62413  0.52195  0.24276  1.0000
  H   H4558     1.0  0.60407  0.59793  0.37337  1.0000
  Fe  Fe289     1.0  0.61101  0.51551  0.38780  1.0000
  S   S580      1.0  0.61572  0.52627  0.34915  1.0000
  S   S581      1.0  0.63115  0.51789  0.40980  1.0000
  H   H4559     1.0  0.61885  0.49623  0.01834  1.0000
  Fe  Fe290     1.0  0.58774  0.84789  0.97337  1.0000
  C   C2570     1.0  0.66782  0.99105  0.23968  1.0000
  C   C2571     1.0  0.62428  0.93930  0.25739  1.0000
  N   N146      1.0  0.59336  0.86626  0.09248  1.0000
  C   C2572     1.0  0.61189  0.93352  0.28132  1.0000
  H   H4560     1.0  0.60040  0.80255  0.29548  1.0000
  C   C2573     1.0  0.59277  0.53325  0.28961  1.0000
  H   H4561     1.0  0.64163  0.55448  0.23651  1.0000
  Fe  Fe291     1.0  0.77761  0.51300  0.20477  1.0000
  H   H4562     1.0  0.69563  0.53140  0.45727  1.0000
  H   H4563     1.0  0.74219  0.56017  0.01211  1.0000
  S   S582      1.0  0.75756  0.52369  0.19011  1.0000
  H   H4564     1.0  0.74558  0.51971  0.08340  1.0000
  H   H4565     1.0  0.67485  0.94130  0.25716  1.0000
  H   H4566     1.0  0.68886  0.65361  0.45225  1.0000
  H   H4567     1.0  0.62242  0.84723  0.04270  1.0000
  C   C2574     1.0  0.65978  0.56654  0.43096  1.0000
  C   C2575     1.0  0.64931  0.56817  0.41489  1.0000
  C   C2576     1.0  0.64025  0.55342  0.40849  1.0000
  C   C2577     1.0  0.64176  0.53686  0.41786  1.0000
  C   C2578     1.0  0.65229  0.53524  0.43386  1.0000
  C   C2579     1.0  0.66113  0.54995  0.44055  1.0000
  H   H4568     1.0  0.64821  0.58093  0.40733  1.0000
  H   H4569     1.0  0.63225  0.55489  0.39613  1.0000
  H   H4570     1.0  0.65354  0.52250  0.44122  1.0000
  H   H4571     1.0  0.66902  0.54846  0.45304  1.0000
  H   H4572     1.0  0.62105  0.51650  0.28905  1.0000
  H   H4573     1.0  0.59745  0.65276  0.44536  1.0000
  C   C2580     1.0  0.64701  0.53232  0.27461  1.0000
  C   C2581     1.0  0.62601  0.56704  0.25757  1.0000
  H   H4574     1.0  0.75747  0.83745  0.44084  1.0000
  H   H4575     1.0  0.59460  0.52335  0.30368  1.0000
  H   H4576     1.0  0.63072  0.50917  0.04903  1.0000
  Fe  Fe292     1.0  0.60407  0.87711  0.32916  1.0000
  H   H4577     1.0  0.65419  0.54571  0.26483  1.0000
  C   C2582     1.0  0.76584  0.60286  0.42283  1.0000
  C   C2583     1.0  0.76177  0.58493  0.43197  1.0000
  H   H4578     1.0  0.78633  0.54324  0.41815  1.0000
  H   H4579     1.0  0.75866  0.61072  0.43108  1.0000
  H   H4580     1.0  0.66994  0.64089  0.44589  1.0000
  C   C2584     1.0  0.78263  0.96728  0.02920  1.0000
  H   H4581     1.0  0.66759  0.95328  0.18666  1.0000
  C   C2585     1.0  0.70849  0.98146  0.15940  1.0000
  C   C2586     1.0  0.70546  0.97408  0.18335  1.0000
  H   H4582     1.0  0.68305  0.94424  0.22715  1.0000
  H   H4583     1.0  0.69787  0.96082  0.19005  1.0000
  C   C2587     1.0  0.61532  0.52163  0.22185  1.0000
  C   C2588     1.0  0.63659  0.90309  0.02409  1.0000
  C   C2589     1.0  0.65247  0.90481  0.03064  1.0000
  C   C2590     1.0  0.66003  0.91955  0.03851  1.0000
  C   C2591     1.0  0.65173  0.93279  0.04018  1.0000
  C   C2592     1.0  0.63585  0.93109  0.03358  1.0000
  C   C2593     1.0  0.62836  0.91642  0.02552  1.0000
  H   H4584     1.0  0.65900  0.89463  0.02966  1.0000
  H   H4585     1.0  0.67219  0.92055  0.04354  1.0000
  H   H4586     1.0  0.62924  0.94117  0.03484  1.0000
  H   H4587     1.0  0.61615  0.91534  0.02064  1.0000
  C   C2594     1.0  0.61439  0.89669  0.08644  1.0000
  C   C2595     1.0  0.64983  0.93450  0.21725  1.0000
  H   H4588     1.0  0.74536  0.94612  0.11583  1.0000
  C   C2596     1.0  0.65628  0.93048  0.17576  1.0000
  C   C2597     1.0  0.64356  0.91279  0.31566  1.0000
  C   C2598     1.0  0.66148  0.91868  0.30683  1.0000
  C   C2599     1.0  0.67050  0.93606  0.30528  1.0000
  C   C2600     1.0  0.66168  0.94777  0.31265  1.0000
  C   C2601     1.0  0.64383  0.94173  0.32213  1.0000
  C   C2602     1.0  0.63482  0.92435  0.32370  1.0000
  H   H4589     1.0  0.66840  0.90974  0.30104  1.0000
  H   H4590     1.0  0.68424  0.94041  0.29825  1.0000
  H   H4591     1.0  0.63688  0.95063  0.32806  1.0000
  H   H4592     1.0  0.62108  0.92002  0.33071  1.0000
  H   H4593     1.0  0.69848  0.92090  0.23330  1.0000
  H   H4594     1.0  0.62525  0.89336  0.07589  1.0000
  H   H4595     1.0  0.58869  0.91933  0.37966  1.0000
  C   C2603     1.0  0.77052  0.97720  0.02940  1.0000
  H   H4596     1.0  0.75584  0.52511  0.42946  1.0000
  C   C2604     1.0  0.65977  0.96154  0.22972  1.0000
  C   C2605     1.0  0.59646  0.81289  0.30334  1.0000
  H   H4597     1.0  0.61798  0.93246  0.24544  1.0000
  H   H4598     1.0  0.70977  0.75947  0.44616  1.0000
  H   H4599     1.0  0.62182  0.55515  0.22933  1.0000
  H   H4600     1.0  0.77430  0.59118  0.99175  1.0000
  H   H4601     1.0  0.63076  0.92162  0.08714  1.0000
  H   H4602     1.0  0.74939  0.50651  0.45372  1.0000
  S   S583      1.0  0.59492  0.84845  0.32985  1.0000
  H   H4603     1.0  0.62397  0.83403  0.06962  1.0000
  H   H4604     1.0  0.59166  0.84452  0.05977  1.0000
  N   N147      1.0  0.72414  0.57480  0.38816  1.0000
  C   C2606     1.0  0.71888  0.58927  0.39793  1.0000
  C   C2607     1.0  0.72392  0.56029  0.40803  1.0000
  C   C2608     1.0  0.74255  0.58206  0.37432  1.0000
  C   C2609     1.0  0.71299  0.56800  0.37245  1.0000
  C   C2610     1.0  0.69383  0.56846  0.37823  1.0000
  C   C2611     1.0  0.72129  0.60637  0.37963  1.0000
  C   C2612     1.0  0.75154  0.56876  0.36532  1.0000
  C   C2613     1.0  0.70639  0.55113  0.42513  1.0000
  C   C2614     1.0  0.70837  0.53769  0.44520  1.0000
  C   C2615     1.0  0.71022  0.61774  0.38865  1.0000
  C   C2616     1.0  0.76821  0.57793  0.34703  1.0000
  H   H4605     1.0  0.72648  0.59272  0.41091  1.0000
  H   H4606     1.0  0.70534  0.58505  0.40798  1.0000
  H   H4607     1.0  0.72832  0.54969  0.40135  1.0000
  H   H4608     1.0  0.73316  0.56525  0.41834  1.0000
  H   H4609     1.0  0.75070  0.58869  0.38488  1.0000
  H   H4610     1.0  0.74333  0.59230  0.35877  1.0000
  H   H4611     1.0  0.71828  0.57544  0.35405  1.0000
  H   H4612     1.0  0.71328  0.55435  0.37200  1.0000
  H   H4613     1.0  0.69275  0.58199  0.37329  1.0000
  H   H4614     1.0  0.68773  0.56361  0.39695  1.0000
  H   H4615     1.0  0.73496  0.61407  0.37534  1.0000
  H   H4616     1.0  0.71803  0.60369  0.36323  1.0000
  H   H4617     1.0  0.74308  0.55997  0.35738  1.0000
  H   H4618     1.0  0.75502  0.56078  0.37993  1.0000
  H   H4619     1.0  0.70056  0.56052  0.43283  1.0000
  H   H4620     1.0  0.69745  0.54393  0.41614  1.0000
  C   C2617     1.0  0.59456  0.91204  0.39213  1.0000
  H   H4621     1.0  0.61168  0.91394  0.11026  1.0000
  H   H4622     1.0  0.61872  0.53469  0.21004  1.0000
  H   H4623     1.0  0.69637  0.61066  0.39307  1.0000
  H   H4624     1.0  0.71380  0.62163  0.40433  1.0000
  H   H4625     1.0  0.71224  0.62973  0.37504  1.0000
  H   H4626     1.0  0.60912  0.88132  0.45711  1.0000
  H   H4627     1.0  0.65166  0.51732  0.11234  1.0000
  H   H4628     1.0  0.64503  0.93506  0.17206  1.0000
  H   H4629     1.0  0.75190  0.54320  0.00828  1.0000
  C   C2618     1.0  0.68316  0.55750  0.36499  1.0000
  H   H4630     1.0  0.67674  0.72610  0.46290  1.0000
  H   H4631     1.0  0.59783  0.83698  0.12261  1.0000
  C   C2619     1.0  0.62733  0.53012  0.27931  1.0000
  N   N148      1.0  0.76863  0.56580  0.01516  1.0000
  H   H4632     1.0  0.71716  0.54402  0.45513  1.0000
  H   H4633     1.0  0.63529  0.51640  0.00649  1.0000
  H   H4634     1.0  0.60354  0.81526  0.31713  1.0000
  S   S584      1.0  0.77877  0.54897  0.12528  1.0000
  H   H4635     1.0  0.75525  0.52813  0.45878  1.0000
  S   S585      1.0  0.58942  0.87378  0.36584  1.0000
  C   C2620     1.0  0.77118  0.57491  0.42095  1.0000
  H   H4636     1.0  0.63844  0.92028  0.26328  1.0000
  H   H4637     1.0  0.77671  0.84353  0.45139  1.0000
  C   C2621     1.0  0.61511  0.83682  0.05830  1.0000
  S   S586      1.0  0.59794  0.71107  0.46041  1.0000
  C   C2622     1.0  0.75451  0.55757  0.00430  1.0000
  H   H4638     1.0  0.71349  0.52746  0.43854  1.0000
  H   H4639     1.0  0.73609  0.77057  0.46026  1.0000
  H   H4640     1.0  0.61594  0.85628  0.09145  1.0000
  H   H4641     1.0  0.62608  0.95347  0.25127  1.0000
  C   C2623     1.0  0.76987  0.58509  0.01067  1.0000
  H   H4642     1.0  0.75615  0.56621  0.05025  1.0000
  H   H4643     1.0  0.64474  0.92009  0.22288  1.0000
  C   C2624     1.0  0.59648  0.78601  0.39634  1.0000
  H   H4644     1.0  0.73590  0.80828  0.46141  1.0000
  H   H4645     1.0  0.76705  0.53340  0.07858  1.0000
  S   S587      1.0  0.75993  0.99181  0.30836  1.0000
  H   H4646     1.0  0.64598  0.93891  0.27364  1.0000
  C   C2625     1.0  0.73863  0.95650  0.11268  1.0000
  H   H4647     1.0  0.60640  0.78308  0.38437  1.0000
  H   H4648     1.0  0.74187  0.98355  0.11275  1.0000
  Fe  Fe293     1.0  0.60094  0.49959  0.34747  1.0000
  H   H4649     1.0  0.65244  0.91608  0.18183  1.0000
  C   C2626     1.0  0.59153  0.80150  0.39007  1.0000
  H   H4650     1.0  0.76771  0.56101  0.42764  1.0000
  H   H4651     1.0  0.75238  0.79958  0.44925  1.0000
  C   C2627     1.0  0.78494  0.58277  0.40144  1.0000
  Fe  Fe294     1.0  0.68844  0.58739  0.46396  1.0000
  C   C2628     1.0  0.62777  0.55250  0.24439  1.0000
  C   C2629     1.0  0.60026  0.84232  0.07162  1.0000
  S   S588      1.0  0.58944  0.84555  0.01110  1.0000
  H   H4652     1.0  0.60721  0.65620  0.41484  1.0000
  H   H4653     1.0  0.66632  0.93410  0.15929  1.0000
  S   S589      1.0  0.76034  0.49854  0.15195  1.0000
  H   H4654     1.0  0.66461  0.66724  0.45787  1.0000
  C   C2630     1.0  0.60696  0.85900  0.08023  1.0000
  H   H4655     1.0  0.62065  0.50830  0.25327  1.0000
  H   H4656     1.0  0.78602  0.53785  0.02352  1.0000
  C   C2631     1.0  0.63628  0.58492  0.24247  1.0000
  H   H4657     1.0  0.77706  0.58705  0.35413  1.0000
  C   C2632     1.0  0.77687  0.51874  0.44401  1.0000
  H   H4658     1.0  0.74019  0.53801  0.04958  1.0000
  C   C2633     1.0  0.76764  0.83249  0.44765  1.0000
  C   C2634     1.0  0.67094  0.91739  0.24554  1.0000
  H   H4659     1.0  0.63820  0.52532  0.23520  1.0000
  H   H4660     1.0  0.59556  0.53781  0.25200  1.0000
  H   H4661     1.0  0.61237  0.56740  0.26185  1.0000
  H   H4662     1.0  0.64948  0.96572  0.22219  1.0000
  C   C2635     1.0  0.77969  0.61076  0.40341  1.0000
  H   H4663     1.0  0.65018  0.53850  0.30787  1.0000
  H   H4664     1.0  0.67499  0.93446  0.19633  1.0000
  H   H4665     1.0  0.78301  0.62471  0.39677  1.0000
  H   H4666     1.0  0.77489  0.82741  0.43411  1.0000
  H   H4667     1.0  0.68272  0.54353  0.37068  1.0000
  H   H4668     1.0  0.70971  0.97771  0.21705  1.0000
  H   H4669     1.0  0.62955  0.90425  0.11121  1.0000
  H   H4670     1.0  0.60774  0.90324  0.07444  1.0000
  H   H4671     1.0  0.66814  0.91199  0.23048  1.0000
  H   H4672     1.0  0.77847  0.95362  0.03785  1.0000
  H   H4673     1.0  0.68858  0.56198  0.34592  1.0000
  H   H4674     1.0  0.71491  0.78833  0.45637  1.0000
  H   H4675     1.0  0.77603  0.56072  0.04816  1.0000
  C   C2636     1.0  0.66349  0.93902  0.19398  1.0000
  H   H4676     1.0  0.77636  0.53705  0.99865  1.0000
  H   H4677     1.0  0.63080  0.56526  0.27376  1.0000
  H   H4678     1.0  0.75692  0.58726  0.01616  1.0000
  H   H4679     1.0  0.66094  0.90980  0.26126  1.0000
  H   H4680     1.0  0.59914  0.93552  0.27977  1.0000
  H   H4681     1.0  0.67234  0.98272  0.01448  1.0000
  C   C2637     1.0  0.76676  0.97969  0.09656  1.0000
  H   H4682     1.0  0.61438  0.50911  0.19275  1.0000
  H   H4683     1.0  0.66976  0.55873  0.36872  1.0000
  C   C2638     1.0  0.74948  0.97388  0.11484  1.0000
  H   H4684     1.0  0.68049  0.99531  0.22703  1.0000
  H   H4685     1.0  0.61683  0.94132  0.29335  1.0000
  H   H4686     1.0  0.72618  0.95262  0.12569  1.0000
  C   C2639     1.0  0.67168  0.93706  0.24145  1.0000
  C   C2640     1.0  0.60196  0.88014  0.10352  1.0000
  H   H4687     1.0  0.59188  0.53127  0.04318  1.0000
  Fe  Fe295     1.0  0.77391  0.52526  0.15475  1.0000
  H   H4688     1.0  0.69754  0.72556  0.44728  1.0000
  H   H4689     1.0  0.75887  0.53054  0.04125  1.0000
  H   H4690     1.0  0.60361  0.90617  0.38213  1.0000
  C   C2641     1.0  0.62200  0.90986  0.09968  1.0000
  H   H4691     1.0  0.68717  0.90020  0.25282  1.0000
  H   H4692     1.0  0.63451  0.59514  0.25215  1.0000
  H   H4693     1.0  0.74874  0.54172  0.08719  1.0000
  N   N149      1.0  0.61992  0.53403  0.25823  1.0000
  H   H4694     1.0  0.73597  0.95760  0.09506  1.0000
  C   C2642     1.0  0.75770  0.56346  0.97737  1.0000
  H   H4695     1.0  0.58701  0.62066  0.37115  1.0000
  C   C2643     1.0  0.66878  0.98761  0.99797  1.0000
  H   H4696     1.0  0.63882  0.93931  0.21294  1.0000
  C   C2644     1.0  0.65283  0.52892  0.29748  1.0000
  H   H4697     1.0  0.77480  0.56816  0.34178  1.0000
  C   C2645     1.0  0.67759  0.96270  0.98325  1.0000
  C   C2646     1.0  0.62097  0.50926  0.20740  1.0000
  H   H4698     1.0  0.64636  0.50255  0.14049  1.0000
  H   H4699     1.0  0.77236  0.78640  0.45814  1.0000
  C   C2647     1.0  0.75377  0.53942  0.05090  1.0000
  H   H4700     1.0  0.69169  0.69430  0.46541  1.0000
  C   C2648     1.0  0.76414  0.55875  0.04131  1.0000
  H   H4701     1.0  0.62938  0.50636  0.12648  1.0000
  C   C2649     1.0  0.78586  0.56347  0.00438  1.0000
  C   C2650     1.0  0.68814  0.91437  0.24917  1.0000
  H   H4702     1.0  0.65053  0.98518  0.04325  1.0000
  C   C2651     1.0  0.66285  0.97137  0.24925  1.0000
  H   H4703     1.0  0.65071  0.52286  0.26470  1.0000
  H   H4704     1.0  0.59417  0.55174  0.05187  1.0000
  H   H4705     1.0  0.69163  0.91948  0.26419  1.0000
  H   H4706     1.0  0.62435  0.53818  0.29184  1.0000
  C   C2652     1.0  0.60053  0.53029  0.26548  1.0000
  H   H4707     1.0  0.65020  0.58559  0.23811  1.0000
  H   H4708     1.0  0.59439  0.51637  0.26649  1.0000
  H   H4709     1.0  0.61526  0.86891  0.06468  1.0000
  H   H4710     1.0  0.67156  0.96678  0.21544  1.0000
  H   H4711     1.0  0.60997  0.82489  0.05233  1.0000
  H   H4712     1.0  0.61748  0.49577  0.21819  1.0000
  C   C2653     1.0  0.68092  0.98250  0.97906  1.0000
  H   H4713     1.0  0.60111  0.51709  0.22781  1.0000
  H   H4714     1.0  0.76400  0.97950  0.07912  1.0000
  C   C2654     1.0  0.64157  0.93474  0.25855  1.0000
  C   C2655     1.0  0.75380  0.53325  0.07656  1.0000
  H   H4715     1.0  0.75944  0.76409  0.46663  1.0000
  S   S590      1.0  0.59542  0.75495  0.42492  1.0000
  H   H4716     1.0  0.74147  0.53963  0.97246  1.0000
  H   H4717     1.0  0.75172  0.97175  0.13272  1.0000
  C   C2656     1.0  0.71229  0.98361  0.19866  1.0000
  H   H4718     1.0  0.60185  0.92138  0.40065  1.0000
  H   H4719     1.0  0.64520  0.50594  0.07868  1.0000
  H   H4720     1.0  0.59881  0.54624  0.29210  1.0000
  H   H4721     1.0  0.65794  0.99503  0.23106  1.0000
  C   C2657     1.0  0.78226  0.59602  0.02262  1.0000
  Fe  Fe296     1.0  0.69954  0.98755  0.29449  1.0000
  H   H4722     1.0  0.65186  0.50810  0.03581  1.0000
  C   C2658     1.0  0.68412  0.71770  0.45516  1.0000
  H   H4723     1.0  0.63507  0.51349  0.20009  1.0000
  H   H4724     1.0  0.60002  0.82510  0.28957  1.0000
  H   H4725     1.0  0.59381  0.88219  0.05899  1.0000
  H   H4726     1.0  0.69446  0.98763  0.97992  1.0000
  H   H4727     1.0  0.58952  0.64436  0.38864  1.0000
  H   H4728     1.0  0.59775  0.61300  0.40549  1.0000
  H   H4729     1.0  0.67339  0.96814  0.25699  1.0000
  H   H4730     1.0  0.65539  0.97977  0.99959  1.0000
  H   H4731     1.0  0.76547  0.58533  0.33128  1.0000
  C   C2659     1.0  0.59489  0.65403  0.42762  1.0000
  H   H4732     1.0  0.59630  0.89602  0.43485  1.0000
  H   H4733     1.0  0.78335  0.98404  0.12849  1.0000
  H   H4734     1.0  0.59222  0.88421  0.11528  1.0000
  C   C2660     1.0  0.67549  0.64549  0.45999  1.0000
  C   C2661     1.0  0.59519  0.59081  0.39034  1.0000
  H   H4735     1.0  0.66408  0.95650  0.98306  1.0000
  H   H4736     1.0  0.76857  0.61614  0.02491  1.0000
  Fe  Fe297     1.0  0.58970  0.53159  0.35766  1.0000
  H   H4737     1.0  0.68013  0.95731  0.00030  1.0000
  H   H4738     1.0  0.59306  0.83124  0.08639  1.0000
  H   H4739     1.0  0.69000  0.76412  0.45841  1.0000
  H   H4740     1.0  0.58965  0.66553  0.42399  1.0000
  Fe  Fe298     1.0  0.74508  0.49631  0.18804  1.0000
  C   C2662     1.0  0.58878  0.77433  0.41804  1.0000
  H   H4741     1.0  0.73064  0.55659  0.97596  1.0000
  C   C2663     1.0  0.75979  0.81828  0.46995  1.0000
  C   C2664     1.0  0.63277  0.50258  0.01571  1.0000
  C   C2665     1.0  0.78165  0.61505  0.01769  1.0000
  H   H4742     1.0  0.58990  0.50235  0.07929  1.0000
  C   C2666     1.0  0.77607  0.99481  0.01800  1.0000
  C   C2667     1.0  0.70202  0.76136  0.46225  1.0000
  H   H4743     1.0  0.76977  0.98505  0.16856  1.0000
  H   H4744     1.0  0.78370  0.98179  0.33430  1.0000
  H   H4745     1.0  0.77898  0.50992  0.43221  1.0000
  C   C2668     1.0  0.75822  0.51974  0.44663  1.0000
  H   H4746     1.0  0.78607  0.54495  0.44721  1.0000
  H   H4747     1.0  0.78528  0.62078  0.99864  1.0000
  C   C2669     1.0  0.58741  0.84238  0.13028  1.0000
  C   C2670     1.0  0.58808  0.88672  0.42722  1.0000
  H   H4748     1.0  0.77840  0.51280  0.46143  1.0000
  C   C2671     1.0  0.71203  0.77651  0.47053  1.0000
  H   H4749     1.0  0.61351  0.85213  0.47126  1.0000
  H   H4750     1.0  0.58738  0.62636  0.43100  1.0000
  C   C2672     1.0  0.58710  0.60321  0.40230  1.0000
  H   H4751     1.0  0.64031  0.49607  0.00450  1.0000
  H   H4752     1.0  0.66813  0.49647  0.06424  1.0000
  H   H4753     1.0  0.65886  0.68893  0.47152  1.0000
  C   C2673     1.0  0.66458  0.65605  0.47155  1.0000
  C   C2674     1.0  0.59859  0.87138  0.47022  1.0000
  C   C2675     1.0  0.76613  0.79076  0.61599  1.0000
  H   H4754     1.0  0.59242  0.87782  0.48296  1.0000
  H   H4755     1.0  0.68939  0.57440  0.94362  1.0000
  C   C2676     1.0  0.78315  0.78973  0.53796  1.0000
  H   H4756     1.0  0.61888  0.75945  0.74079  1.0000
  S   S591      1.0  0.61682  0.70520  0.51845  1.0000
  C   C2677     1.0  0.61003  0.98668  0.81328  1.0000
  C   C2678     1.0  0.72535  0.80258  0.54208  1.0000
  H   H4757     1.0  0.61243  0.51736  0.56929  1.0000
  H   H4758     1.0  0.77056  0.81421  0.47612  1.0000
  H   H4759     1.0  0.73904  0.77667  0.62906  1.0000
  S   S592      1.0  0.62351  0.77347  0.81958  1.0000
  H   H4760     1.0  0.72175  0.81409  0.53334  1.0000
  Fe  Fe299     1.0  0.69348  0.57789  0.51389  1.0000
  H   H4761     1.0  0.62993  0.76918  0.76055  1.0000
  S   S593      1.0  0.67796  0.56283  0.54999  1.0000
  H   H4762     1.0  0.71088  0.65738  0.90258  1.0000
  S   S594      1.0  0.72022  0.59569  0.50532  1.0000
  Fe  Fe300     1.0  0.72308  0.56021  0.83804  1.0000
  S   S595      1.0  0.69985  0.56914  0.85100  1.0000
  S   S596      1.0  0.72503  0.54190  0.81310  1.0000
  Fe  Fe301     1.0  0.74324  0.57693  0.87175  1.0000
  S   S597      1.0  0.72126  0.58723  0.88655  1.0000
  H   H4763     1.0  0.60267  0.77421  0.78083  1.0000
  Fe  Fe302     1.0  0.70416  0.56120  0.88678  1.0000
  S   S598      1.0  0.68445  0.54445  0.91891  1.0000
  Fe  Fe303     1.0  0.71885  0.59461  0.84931  1.0000
  S   S599      1.0  0.70990  0.61792  0.83370  1.0000
  S   S600      1.0  0.72611  0.55044  0.87423  1.0000
  S   S601      1.0  0.74206  0.58612  0.83412  1.0000
  Fe  Fe304     1.0  0.74486  0.74957  0.55756  1.0000
  S   S602      1.0  0.74045  0.72638  0.58726  1.0000
  S   S603      1.0  0.77239  0.76718  0.54319  1.0000
  Fe  Fe305     1.0  0.70734  0.73849  0.55236  1.0000
  S   S604      1.0  0.70029  0.71507  0.58215  1.0000
  S   S605      1.0  0.69055  0.74704  0.52815  1.0000
  Fe  Fe306     1.0  0.71570  0.73257  0.60086  1.0000
  S   S606      1.0  0.70497  0.73276  0.63882  1.0000
  Fe  Fe307     1.0  0.72557  0.71068  0.56626  1.0000
  S   S607      1.0  0.72808  0.68329  0.56498  1.0000
  S   S608      1.0  0.72075  0.75660  0.57220  1.0000
  Fe  Fe308     1.0  0.74200  0.76077  0.79935  1.0000
  S   S609      1.0  0.72469  0.73714  0.82585  1.0000
  H   H4764     1.0  0.59782  0.73863  0.77983  1.0000
  Fe  Fe309     1.0  0.73525  0.74343  0.75816  1.0000
  S   S610      1.0  0.71761  0.71901  0.78221  1.0000
  S   S611      1.0  0.74504  0.74423  0.71949  1.0000
  Fe  Fe310     1.0  0.70653  0.73685  0.80166  1.0000
  S   S612      1.0  0.67757  0.72796  0.81638  1.0000
  Fe  Fe311     1.0  0.73692  0.72114  0.80428  1.0000
  S   S613      1.0  0.74706  0.69843  0.81879  1.0000
  S   S614      1.0  0.72287  0.76137  0.77613  1.0000
  S   S615      1.0  0.75553  0.74478  0.77934  1.0000
  C   C2679     1.0  0.59370  0.93808  0.88408  1.0000
  S   S616      1.0  0.66996  0.51050  0.68441  1.0000
  S   S617      1.0  0.71112  0.52862  0.62814  1.0000
  H   H4765     1.0  0.71351  0.79188  0.55031  1.0000
  S   S618      1.0  0.67846  0.51870  0.74319  1.0000
  H   H4766     1.0  0.63432  0.66446  0.48242  1.0000
  C   C2680     1.0  0.77176  0.79473  0.82114  1.0000
  H   H4767     1.0  0.64936  0.49763  0.63714  1.0000
  S   S619      1.0  0.60422  0.52770  0.92421  1.0000
  C   C2681     1.0  0.72184  0.64662  0.52642  1.0000
  H   H4768     1.0  0.66815  0.67751  0.57026  1.0000
  C   C2682     1.0  0.71622  0.73542  0.66128  1.0000
  C   C2683     1.0  0.73352  0.73541  0.65847  1.0000
  C   C2684     1.0  0.74194  0.73766  0.67671  1.0000
  C   C2685     1.0  0.73331  0.74020  0.69784  1.0000
  C   C2686     1.0  0.71591  0.73984  0.70085  1.0000
  C   C2687     1.0  0.70742  0.73741  0.68269  1.0000
  H   H4769     1.0  0.74035  0.73357  0.64229  1.0000
  H   H4770     1.0  0.75521  0.73738  0.67445  1.0000
  H   H4771     1.0  0.70907  0.74173  0.71700  1.0000
  H   H4772     1.0  0.69400  0.73734  0.68509  1.0000
  C   C2688     1.0  0.66220  0.54011  0.92015  1.0000
  C   C2689     1.0  0.65580  0.54843  0.90246  1.0000
  C   C2690     1.0  0.63796  0.54465  0.90406  1.0000
  C   C2691     1.0  0.62645  0.53250  0.92327  1.0000
  C   C2692     1.0  0.63287  0.52425  0.94100  1.0000
  C   C2693     1.0  0.65069  0.52809  0.93944  1.0000
  H   H4773     1.0  0.66458  0.55773  0.88760  1.0000
  H   H4774     1.0  0.63303  0.55103  0.89031  1.0000
  H   H4775     1.0  0.75848  0.52173  0.72529  1.0000
  H   H4776     1.0  0.65559  0.52165  0.95319  1.0000
  C   C2694     1.0  0.71272  0.53669  0.79241  1.0000
  C   C2695     1.0  0.71635  0.52438  0.77968  1.0000
  C   C2696     1.0  0.70636  0.51913  0.76400  1.0000
  C   C2697     1.0  0.69244  0.52596  0.76109  1.0000
  C   C2698     1.0  0.68894  0.53843  0.77362  1.0000
  C   C2699     1.0  0.69913  0.54393  0.78895  1.0000
  H   H4777     1.0  0.72684  0.51870  0.78217  1.0000
  H   H4778     1.0  0.73630  0.51142  0.65108  1.0000
  H   H4779     1.0  0.67825  0.54387  0.77142  1.0000
  H   H4780     1.0  0.69635  0.55361  0.79829  1.0000
  C   C2700     1.0  0.72027  0.64020  0.83034  1.0000
  C   C2701     1.0  0.73645  0.64557  0.83511  1.0000
  C   C2702     1.0  0.74443  0.66346  0.83157  1.0000
  C   C2703     1.0  0.73631  0.67612  0.82333  1.0000
  C   C2704     1.0  0.72006  0.67073  0.81873  1.0000
  C   C2705     1.0  0.71209  0.65285  0.82222  1.0000
  H   H4781     1.0  0.74289  0.63598  0.84133  1.0000
  H   H4782     1.0  0.75700  0.66752  0.83520  1.0000
  H   H4783     1.0  0.71362  0.68035  0.81260  1.0000
  H   H4784     1.0  0.69956  0.64881  0.81852  1.0000
  C   C2706     1.0  0.70172  0.53762  0.60629  1.0000
  C   C2707     1.0  0.71203  0.54590  0.58398  1.0000
  C   C2708     1.0  0.70492  0.55352  0.56637  1.0000
  C   C2709     1.0  0.68751  0.55316  0.57114  1.0000
  C   C2710     1.0  0.67727  0.54505  0.59347  1.0000
  C   C2711     1.0  0.68427  0.53708  0.61092  1.0000
  H   H4785     1.0  0.72556  0.54637  0.58028  1.0000
  H   H4786     1.0  0.71292  0.55977  0.54917  1.0000
  H   H4787     1.0  0.66389  0.54514  0.59728  1.0000
  H   H4788     1.0  0.67632  0.53097  0.62817  1.0000
  C   C2712     1.0  0.71737  0.65492  0.50678  1.0000
  C   C2713     1.0  0.71697  0.67243  0.50447  1.0000
  C   C2714     1.0  0.72027  0.68134  0.52204  1.0000
  C   C2715     1.0  0.72438  0.67292  0.54193  1.0000
  C   C2716     1.0  0.60980  0.94307  0.89417  1.0000
  H   H4789     1.0  0.71970  0.69474  0.52018  1.0000
  C   C2717     1.0  0.63869  0.76101  0.81987  1.0000
  C   C2718     1.0  0.65550  0.76834  0.80625  1.0000
  C   C2719     1.0  0.66770  0.75850  0.80529  1.0000
  C   C2720     1.0  0.66315  0.74126  0.81801  1.0000
  C   C2721     1.0  0.64639  0.73400  0.83177  1.0000
  C   C2722     1.0  0.63421  0.74383  0.83276  1.0000
  H   H4790     1.0  0.65895  0.78153  0.79591  1.0000
  H   H4791     1.0  0.68042  0.76403  0.79418  1.0000
  H   H4792     1.0  0.64276  0.72066  0.84164  1.0000
  H   H4793     1.0  0.62131  0.73806  0.84334  1.0000
  C   C2723     1.0  0.63699  0.71749  0.52134  1.0000
  C   C2724     1.0  0.64492  0.71017  0.53817  1.0000
  C   C2725     1.0  0.66120  0.71904  0.54061  1.0000
  C   C2726     1.0  0.66983  0.73539  0.52615  1.0000
  C   C2727     1.0  0.66187  0.74277  0.50938  1.0000
  C   C2728     1.0  0.64559  0.73389  0.50695  1.0000
  H   H4794     1.0  0.63836  0.69757  0.54954  1.0000
  H   H4795     1.0  0.66703  0.71327  0.55375  1.0000
  H   H4796     1.0  0.59164  0.76500  0.76048  1.0000
  C   C2729     1.0  0.67095  0.73699  0.75183  1.0000
  C   C2730     1.0  0.61741  0.76133  0.75886  1.0000
  H   H4797     1.0  0.77082  0.68886  0.75716  1.0000
  H   H4798     1.0  0.63584  0.52538  0.58987  1.0000
  C   C2731     1.0  0.77635  0.58459  0.90685  1.0000
  H   H4799     1.0  0.67718  0.65926  0.57646  1.0000
  H   H4800     1.0  0.65991  0.50475  0.81839  1.0000
  C   C2732     1.0  0.74715  0.78826  0.61551  1.0000
  H   H4801     1.0  0.61218  0.64394  0.51617  1.0000
  H   H4802     1.0  0.64876  0.49665  0.90152  1.0000
  C   C2733     1.0  0.69651  0.76069  0.84996  1.0000
  C   C2734     1.0  0.62614  0.52149  0.55983  1.0000
  H   H4803     1.0  0.66828  0.75550  0.49829  1.0000
  S   S620      1.0  0.73197  0.73321  0.53549  1.0000
  C   C2735     1.0  0.76640  0.77504  0.47301  1.0000
  C   C2736     1.0  0.59511  0.69327  0.82553  1.0000
  H   H4804     1.0  0.72049  0.66860  0.71155  1.0000
  H   H4805     1.0  0.73802  0.49702  0.70078  1.0000
  C   C2737     1.0  0.77246  0.77502  0.61012  1.0000
  H   H4806     1.0  0.67751  0.58817  0.95587  1.0000
  H   H4807     1.0  0.77572  0.75749  0.49663  1.0000
  H   H4808     1.0  0.62700  0.93087  0.91070  1.0000
  H   H4809     1.0  0.69731  0.75803  0.83229  1.0000
  C   C2738     1.0  0.75682  0.52097  0.67883  1.0000
  H   H4810     1.0  0.59000  0.86534  0.87680  1.0000
  H   H4811     1.0  0.64231  0.65186  0.52117  1.0000
  H   H4812     1.0  0.58857  0.79091  0.89561  1.0000
  H   H4813     1.0  0.65117  0.52275  0.56616  1.0000
  H   H4814     1.0  0.65013  0.51644  0.61662  1.0000
  H   H4815     1.0  0.77811  0.95012  0.56507  1.0000
  N   N150      1.0  0.76222  0.51569  0.65621  1.0000
  H   H4816     1.0  0.76243  0.78895  0.50003  1.0000
  H   H4817     1.0  0.78139  0.79817  0.92109  1.0000
  C   C2739     1.0  0.74653  0.51325  0.72295  1.0000
  C   C2740     1.0  0.66836  0.52642  0.84682  1.0000
  C   C2741     1.0  0.65575  0.53312  0.83334  1.0000
  H   H4818     1.0  0.75976  0.49848  0.70339  1.0000
  H   H4819     1.0  0.73804  0.65846  0.71051  1.0000
  C   C2742     1.0  0.65791  0.55256  0.83172  1.0000
  H   H4820     1.0  0.68170  0.53342  0.83685  1.0000
  H   H4821     1.0  0.66692  0.53110  0.86317  1.0000
  H   H4822     1.0  0.61240  0.51280  0.66410  1.0000
  H   H4823     1.0  0.65819  0.53133  0.81523  1.0000
  H   H4824     1.0  0.65136  0.64741  0.47815  1.0000
  H   H4825     1.0  0.69269  0.52692  0.87202  1.0000
  C   C2743     1.0  0.64026  0.73878  0.76563  1.0000
  C   C2744     1.0  0.59834  0.72247  0.74646  1.0000
  H   H4826     1.0  0.64880  0.55706  0.82197  1.0000
  H   H4827     1.0  0.65514  0.55514  0.84941  1.0000
  H   H4828     1.0  0.67119  0.56009  0.82240  1.0000
  H   H4829     1.0  0.58831  0.71559  0.76238  1.0000
  H   H4830     1.0  0.71667  0.64894  0.77540  1.0000
  H   H4831     1.0  0.74504  0.78653  0.59817  1.0000
  H   H4832     1.0  0.64046  0.67149  0.52958  1.0000
  C   C2745     1.0  0.66607  0.59982  0.91633  1.0000
  C   C2746     1.0  0.60430  0.77192  0.76291  1.0000
  H   H4833     1.0  0.60528  0.91750  0.91707  1.0000
  H   H4834     1.0  0.66761  0.68910  0.52912  1.0000
  H   H4835     1.0  0.60926  0.66238  0.52832  1.0000
  H   H4836     1.0  0.71578  0.68179  0.76866  1.0000
  N   N151      1.0  0.66727  0.61118  0.89289  1.0000
  C   C2747     1.0  0.65232  0.72660  0.76266  1.0000
  H   H4837     1.0  0.63213  0.52736  0.64586  1.0000
  C   C2748     1.0  0.63452  0.60844  0.90199  1.0000
  Fe  Fe312     1.0  0.72374  0.58555  0.47233  1.0000
  H   H4838     1.0  0.61485  0.49665  0.88646  1.0000
  H   H4839     1.0  0.64412  0.74919  0.74935  1.0000
  H   H4840     1.0  0.62318  0.62738  0.88414  1.0000
  H   H4841     1.0  0.73178  0.80619  0.55600  1.0000
  H   H4842     1.0  0.72322  0.64629  0.74639  1.0000
  C   C2749     1.0  0.66307  0.60865  0.85158  1.0000
  C   C2750     1.0  0.68109  0.59132  0.91820  1.0000
  H   H4843     1.0  0.72501  0.76021  0.48958  1.0000
  S   S621      1.0  0.59361  0.82795  0.95232  1.0000
  H   H4844     1.0  0.76257  0.76294  0.62029  1.0000
  H   H4845     1.0  0.77455  0.72825  0.74390  1.0000
  C   C2751     1.0  0.68708  0.74360  0.86764  1.0000
  C   C2752     1.0  0.63132  0.66849  0.49903  1.0000
  C   C2753     1.0  0.77672  0.71638  0.75414  1.0000
  C   C2754     1.0  0.72547  0.65565  0.54378  1.0000
  S   S622      1.0  0.68202  0.59780  0.49587  1.0000
  H   H4846     1.0  0.61397  0.74663  0.79382  1.0000
  H   H4847     1.0  0.65777  0.65524  0.54916  1.0000
  C   C2755     1.0  0.68944  0.63664  0.90082  1.0000
  N   N152      1.0  0.73986  0.78680  0.48512  1.0000
  H   H4848     1.0  0.67583  0.63393  0.47288  1.0000
  H   H4849     1.0  0.76783  0.53014  0.68237  1.0000
  C   C2756     1.0  0.74289  0.55389  0.96829  1.0000
  C   C2757     1.0  0.64453  0.66609  0.51422  1.0000
  H   H4850     1.0  0.64831  0.71767  0.75141  1.0000
  C   C2758     1.0  0.78282  0.54667  0.64052  1.0000
  H   H4851     1.0  0.59661  0.73572  0.74118  1.0000
  H   H4852     1.0  0.63119  0.68236  0.49469  1.0000
  H   H4853     1.0  0.63969  0.73974  0.49394  1.0000
  H   H4854     1.0  0.78268  0.50441  0.62138  1.0000
  C   C2759     1.0  0.76803  0.70020  0.74664  1.0000
  H   H4855     1.0  0.76348  0.60505  0.90619  1.0000
  C   C2760     1.0  0.77473  0.81183  0.82471  1.0000
  Fe  Fe313     1.0  0.68211  0.50350  0.71459  1.0000
  C   C2761     1.0  0.68409  0.70215  0.47389  1.0000
  N   N153      1.0  0.73832  0.68236  0.74319  1.0000
  C   C2762     1.0  0.59806  0.70491  0.80130  1.0000
  C   C2763     1.0  0.69671  0.50581  0.89561  1.0000
  C   C2764     1.0  0.77587  0.50605  0.65851  1.0000
  H   H4856     1.0  0.60394  0.66042  0.50089  1.0000
  H   H4857     1.0  0.61934  0.92060  0.88884  1.0000
  H   H4858     1.0  0.78274  0.56559  0.60969  1.0000
  N   N154      1.0  0.66640  0.50702  0.85159  1.0000
  H   H4859     1.0  0.68957  0.62902  0.91807  1.0000
  H   H4860     1.0  0.74670  0.52809  0.67758  1.0000
  C   C2765     1.0  0.77500  0.80197  0.54517  1.0000
  H   H4861     1.0  0.58725  0.97402  0.93172  1.0000
  H   H4862     1.0  0.70051  0.51417  0.90765  1.0000
  C   C2766     1.0  0.64286  0.50266  0.62361  1.0000
  H   H4863     1.0  0.68629  0.95928  0.96938  1.0000
  H   H4864     1.0  0.70913  0.50943  0.75468  1.0000
  H   H4865     1.0  0.72135  0.79966  0.49988  1.0000
  N   N155      1.0  0.69362  0.60213  0.60416  1.0000
  C   C2767     1.0  0.69984  0.62109  0.60462  1.0000
  C   C2768     1.0  0.68029  0.59978  0.58954  1.0000
  C   C2769     1.0  0.68504  0.59226  0.62892  1.0000
  C   C2770     1.0  0.70819  0.59460  0.59555  1.0000
  C   C2771     1.0  0.71950  0.60370  0.57097  1.0000
  C   C2772     1.0  0.71320  0.62548  0.61953  1.0000
  C   C2773     1.0  0.67680  0.57249  0.63235  1.0000
  C   C2774     1.0  0.68231  0.61483  0.56825  1.0000
  C   C2775     1.0  0.66943  0.60974  0.55352  1.0000
  C   C2776     1.0  0.73550  0.59702  0.56601  1.0000
  C   C2777     1.0  0.71965  0.64515  0.61674  1.0000
  C   C2778     1.0  0.66646  0.56437  0.65732  1.0000
  H   H4866     1.0  0.68866  0.62605  0.61116  1.0000
  H   H4867     1.0  0.70565  0.62931  0.58688  1.0000
  H   H4868     1.0  0.67967  0.58759  0.58310  1.0000
  H   H4869     1.0  0.66718  0.59802  0.60033  1.0000
  H   H4870     1.0  0.67492  0.59823  0.63640  1.0000
  H   H4871     1.0  0.69442  0.59307  0.64024  1.0000
  H   H4872     1.0  0.71661  0.59399  0.60816  1.0000
  H   H4873     1.0  0.70314  0.58082  0.59475  1.0000
  H   H4874     1.0  0.72403  0.61793  0.56887  1.0000
  H   H4875     1.0  0.71214  0.60086  0.55763  1.0000
  H   H4876     1.0  0.70741  0.61987  0.63832  1.0000
  H   H4877     1.0  0.72456  0.62057  0.61427  1.0000
  H   H4878     1.0  0.68705  0.56571  0.62911  1.0000
  H   H4879     1.0  0.66804  0.56986  0.62054  1.0000
  H   H4880     1.0  0.67994  0.62652  0.57417  1.0000
  H   H4881     1.0  0.69531  0.61858  0.55680  1.0000
  H   H4882     1.0  0.67150  0.62059  0.53818  1.0000
  H   H4883     1.0  0.67121  0.59808  0.54709  1.0000
  H   H4884     1.0  0.65605  0.60693  0.56385  1.0000
  H   H4885     1.0  0.74382  0.60020  0.57822  1.0000
  H   H4886     1.0  0.73189  0.58272  0.56769  1.0000
  H   H4887     1.0  0.74298  0.60331  0.54793  1.0000
  H   H4888     1.0  0.72705  0.65143  0.59866  1.0000
  H   H4889     1.0  0.70876  0.65102  0.62088  1.0000
  H   H4890     1.0  0.72830  0.64792  0.62868  1.0000
  H   H4891     1.0  0.65562  0.57027  0.66154  1.0000
  H   H4892     1.0  0.66112  0.55016  0.65930  1.0000
  H   H4893     1.0  0.67482  0.56618  0.66988  1.0000
  H   H4894     1.0  0.77166  0.71521  0.77298  1.0000
  H   H4895     1.0  0.64220  0.52634  0.84219  1.0000
  C   C2779     1.0  0.73939  0.67695  0.67942  1.0000
  C   C2780     1.0  0.61708  0.71552  0.79228  1.0000
  H   H4896     1.0  0.67547  0.74626  0.76243  1.0000
  C   C2781     1.0  0.78075  0.94324  0.55090  1.0000
  H   H4897     1.0  0.62048  0.99450  0.81956  1.0000
  C   C2782     1.0  0.77263  0.59931  0.91351  1.0000
  H   H4898     1.0  0.67375  0.73898  0.86549  1.0000
  H   H4899     1.0  0.75739  0.53777  0.63469  1.0000
  H   H4900     1.0  0.73566  0.68917  0.67382  1.0000
  H   H4901     1.0  0.77843  0.61854  0.93379  1.0000
  C   C2783     1.0  0.61308  0.65809  0.51198  1.0000
  H   H4902     1.0  0.74152  0.78588  0.53435  1.0000
  C   C2784     1.0  0.73468  0.63352  0.77148  1.0000
  C   C2785     1.0  0.73756  0.79673  0.52458  1.0000
  H   H4903     1.0  0.60696  0.94927  0.90900  1.0000
  C   C2786     1.0  0.74834  0.69802  0.75004  1.0000
  C   C2787     1.0  0.71385  0.69678  0.73567  1.0000
  C   C2788     1.0  0.69458  0.69472  0.74368  1.0000
  H   H4904     1.0  0.63176  0.60014  0.91980  1.0000
  H   H4905     1.0  0.74317  0.69768  0.76872  1.0000
  H   H4906     1.0  0.74683  0.71027  0.73996  1.0000
  H   H4907     1.0  0.78620  0.72293  0.58396  1.0000
  H   H4908     1.0  0.72061  0.70963  0.73778  1.0000
  H   H4909     1.0  0.71650  0.69693  0.71681  1.0000
  H   H4910     1.0  0.68706  0.68223  0.74116  1.0000
  H   H4911     1.0  0.69121  0.69516  0.76233  1.0000
  H   H4912     1.0  0.69098  0.70554  0.73320  1.0000
  C   C2789     1.0  0.75019  0.50606  0.70119  1.0000
  H   H4913     1.0  0.75344  0.67922  0.67269  1.0000
  C   C2790     1.0  0.70741  0.64892  0.89053  1.0000
  N   N156      1.0  0.69559  0.79329  0.83881  1.0000
  C   C2791     1.0  0.70654  0.79329  0.81564  1.0000
  C   C2792     1.0  0.68670  0.77483  0.85242  1.0000
  C   C2793     1.0  0.68182  0.80220  0.83378  1.0000
  C   C2794     1.0  0.70589  0.80335  0.85287  1.0000
  C   C2795     1.0  0.72129  0.79686  0.85896  1.0000
  C   C2796     1.0  0.71695  0.81138  0.80011  1.0000
  C   C2797     1.0  0.66730  0.80121  0.85503  1.0000
  C   C2798     1.0  0.73274  0.80999  0.86881  1.0000
  C   C2799     1.0  0.72596  0.80971  0.77629  1.0000
  C   C2800     1.0  0.65370  0.80967  0.84728  1.0000
  H   H4914     1.0  0.69834  0.78645  0.80540  1.0000
  H   H4915     1.0  0.71614  0.78576  0.81781  1.0000
  H   H4916     1.0  0.68277  0.77453  0.87131  1.0000
  H   H4917     1.0  0.60436  0.71980  0.71050  1.0000
  H   H4918     1.0  0.67550  0.79667  0.82076  1.0000
  H   H4919     1.0  0.68748  0.81630  0.82584  1.0000
  H   H4920     1.0  0.71066  0.81736  0.84384  1.0000
  H   H4921     1.0  0.69759  0.80311  0.86982  1.0000
  H   H4922     1.0  0.72951  0.79478  0.84353  1.0000
  H   H4923     1.0  0.71654  0.78450  0.87246  1.0000
  H   H4924     1.0  0.70863  0.82018  0.79686  1.0000
  H   H4925     1.0  0.72700  0.81761  0.80843  1.0000
  H   H4926     1.0  0.67253  0.80815  0.86764  1.0000
  H   H4927     1.0  0.66055  0.78757  0.86426  1.0000
  H   H4928     1.0  0.70977  0.76461  0.85239  1.0000
  H   H4929     1.0  0.72531  0.81239  0.88477  1.0000
  H   H4930     1.0  0.74349  0.80479  0.87335  1.0000
  H   H4931     1.0  0.73839  0.82248  0.85565  1.0000
  H   H4932     1.0  0.71642  0.80389  0.76692  1.0000
  H   H4933     1.0  0.73344  0.82278  0.76561  1.0000
  H   H4934     1.0  0.73501  0.80146  0.77818  1.0000
  H   H4935     1.0  0.65950  0.82360  0.83851  1.0000
  H   H4936     1.0  0.64759  0.80279  0.83517  1.0000
  H   H4937     1.0  0.64349  0.80885  0.86270  1.0000
  H   H4938     1.0  0.77828  0.95055  0.53486  1.0000
  H   H4939     1.0  0.67224  0.74431  0.73378  1.0000
  C   C2801     1.0  0.78097  0.76924  0.48209  1.0000
  H   H4940     1.0  0.73976  0.63556  0.78705  1.0000
  C   C2802     1.0  0.71950  0.68185  0.74980  1.0000
  H   H4941     1.0  0.68232  0.51033  0.81734  1.0000
  H   H4942     1.0  0.74361  0.66821  0.77431  1.0000
  H   H4943     1.0  0.68668  0.74533  0.88569  1.0000
  C   C2803     1.0  0.78297  0.77269  0.65838  1.0000
  H   H4944     1.0  0.65891  0.69985  0.49456  1.0000
  C   C2804     1.0  0.74455  0.68452  0.71730  1.0000
  S   S623      1.0  0.75357  0.78632  0.80974  1.0000
  H   H4945     1.0  0.62792  0.51463  0.54543  1.0000
  H   H4946     1.0  0.62961  0.53571  0.55207  1.0000
  H   H4947     1.0  0.71116  0.66964  0.74786  1.0000
  H   H4948     1.0  0.60347  0.68419  0.82531  1.0000
  H   H4949     1.0  0.77774  0.82900  0.54625  1.0000
  H   H4950     1.0  0.68644  0.68470  0.51462  1.0000
  C   C2805     1.0  0.67836  0.58016  0.94267  1.0000
  N   N157      1.0  0.62116  0.73025  0.77102  1.0000
  C   C2806     1.0  0.68437  0.62465  0.88430  1.0000
  H   H4951     1.0  0.62409  0.51486  0.95582  1.0000
  H   H4952     1.0  0.72409  0.62133  0.77674  1.0000
  H   H4953     1.0  0.77181  0.92997  0.55612  1.0000
  C   C2807     1.0  0.65317  0.62039  0.89528  1.0000
  C   C2808     1.0  0.64178  0.50116  0.88842  1.0000
  H   H4954     1.0  0.78119  0.77187  0.82420  1.0000
  C   C2809     1.0  0.62558  0.51355  0.65459  1.0000
  H   H4955     1.0  0.62149  0.72065  0.80685  1.0000
  H   H4956     1.0  0.60818  0.61040  0.90701  1.0000
  H   H4957     1.0  0.62268  0.62776  0.91441  1.0000
  H   H4958     1.0  0.62424  0.70572  0.78899  1.0000
  H   H4959     1.0  0.70341  0.77827  0.48596  1.0000
  H   H4960     1.0  0.63229  0.59981  0.88980  1.0000
  H   H4961     1.0  0.65105  0.61292  0.85342  1.0000
  C   C2810     1.0  0.72865  0.79029  0.50581  1.0000
  C   C2811     1.0  0.59518  0.97622  0.83372  1.0000
  H   H4962     1.0  0.73682  0.52082  0.72173  1.0000
  H   H4963     1.0  0.73248  0.66681  0.67165  1.0000
  H   H4964     1.0  0.69066  0.70751  0.48673  1.0000
  H   H4965     1.0  0.59027  0.98563  0.84254  1.0000
  H   H4966     1.0  0.67937  0.72799  0.75124  1.0000
  H   H4967     1.0  0.59781  0.70132  0.83835  1.0000
  H   H4968     1.0  0.64309  0.51527  0.88656  1.0000
  H   H4969     1.0  0.74863  0.76787  0.50675  1.0000
  H   H4970     1.0  0.77280  0.52906  0.61992  1.0000
  H   H4971     1.0  0.70857  0.50525  0.88377  1.0000
  C   C2812     1.0  0.74876  0.49672  0.62984  1.0000
  H   H4972     1.0  0.75324  0.82432  0.48287  1.0000
  H   H4973     1.0  0.66645  0.56936  0.94678  1.0000
  H   H4974     1.0  0.74917  0.80766  0.51708  1.0000
  H   H4975     1.0  0.69018  0.67922  0.55679  1.0000
  Fe  Fe314     1.0  0.59729  0.71247  0.49785  1.0000
  H   H4976     1.0  0.78558  0.51211  0.84790  1.0000
  H   H4977     1.0  0.59452  0.69634  0.78940  1.0000
  S   S624      1.0  0.71220  0.64402  0.48475  1.0000
  H   H4978     1.0  0.72277  0.63337  0.52797  1.0000
  H   H4979     1.0  0.76176  0.79780  0.55472  1.0000
  H   H4980     1.0  0.68471  0.63346  0.86761  1.0000
  H   H4981     1.0  0.74299  0.79988  0.61908  1.0000
  C   C2813     1.0  0.67244  0.67893  0.52182  1.0000
  H   H4982     1.0  0.76760  0.79275  0.63338  1.0000
  C   C2814     1.0  0.62459  0.50226  0.63669  1.0000
  C   C2815     1.0  0.66224  0.49659  0.59172  1.0000
  Fe  Fe315     1.0  0.69448  0.50989  0.66140  1.0000
  S   S625      1.0  0.70734  0.50507  0.69114  1.0000
  H   H4983     1.0  0.78122  0.76947  0.69556  1.0000
  C   C2816     1.0  0.74637  0.50420  0.65189  1.0000
  C   C2817     1.0  0.72788  0.64882  0.76197  1.0000
  H   H4984     1.0  0.70783  0.65740  0.87355  1.0000
  C   C2818     1.0  0.74184  0.66636  0.75677  1.0000
  C   C2819     1.0  0.62140  0.61923  0.90185  1.0000
  H   H4985     1.0  0.74480  0.69781  0.70789  1.0000
  H   H4986     1.0  0.71714  0.64141  0.88785  1.0000
  H   H4987     1.0  0.67714  0.59488  0.87187  1.0000
  H   H4988     1.0  0.66769  0.51084  0.58475  1.0000
  C   C2820     1.0  0.67155  0.66194  0.49199  1.0000
  H   H4989     1.0  0.75811  0.68385  0.71305  1.0000
  H   H4990     1.0  0.59668  0.93004  0.87141  1.0000
  H   H4991     1.0  0.71415  0.67918  0.48896  1.0000
  H   H4992     1.0  0.62563  0.73192  0.73372  1.0000
  C   C2821     1.0  0.75417  0.77974  0.49241  1.0000
  H   H4993     1.0  0.58921  0.71332  0.80273  1.0000
  C   C2822     1.0  0.61566  0.92700  0.90319  1.0000
  H   H4994     1.0  0.74506  0.63191  0.75801  1.0000
  N   N158      1.0  0.66340  0.67442  0.50297  1.0000
  H   H4995     1.0  0.65467  0.58788  0.88296  1.0000
  H   H4996     1.0  0.76603  0.81954  0.82048  1.0000
  H   H4997     1.0  0.67394  0.62017  0.84282  1.0000
  C   C2823     1.0  0.61193  0.74366  0.77692  1.0000
  H   H4998     1.0  0.63268  0.50890  0.66750  1.0000
  C   C2824     1.0  0.61681  0.72356  0.75020  1.0000
  S   S626      1.0  0.69770  0.56608  0.48279  1.0000
  H   H4999     1.0  0.60884  0.78474  0.75031  1.0000
  H   H5000     1.0  0.69354  0.60126  0.91465  1.0000
  C   C2825     1.0  0.73459  0.67094  0.70599  1.0000
  H   H5001     1.0  0.68208  0.58278  0.90572  1.0000
  C   C2826     1.0  0.78121  0.60699  0.92909  1.0000
  H   H5002     1.0  0.61253  0.97095  0.85548  1.0000
  H   H5003     1.0  0.65475  0.63032  0.87903  1.0000
  H   H5004     1.0  0.60628  0.95443  0.84094  1.0000
  H   H5005     1.0  0.65412  0.62792  0.90904  1.0000
  H   H5006     1.0  0.78385  0.51105  0.67034  1.0000
  H   H5007     1.0  0.68569  0.66739  0.48607  1.0000
  C   C2827     1.0  0.60109  0.96323  0.85084  1.0000
  H   H5008     1.0  0.69386  0.73344  0.86485  1.0000
  C   C2828     1.0  0.66551  0.59981  0.87556  1.0000
  H   H5009     1.0  0.75421  0.66445  0.74791  1.0000
  H   H5010     1.0  0.66479  0.60723  0.93024  1.0000
  C   C2829     1.0  0.68524  0.51355  0.88165  1.0000
  Fe  Fe316     1.0  0.59494  0.76170  0.83606  1.0000
  H   H5011     1.0  0.59820  0.97225  0.89107  1.0000
  H   H5012     1.0  0.69847  0.74917  0.47601  1.0000
  C   C2830     1.0  0.67701  0.67034  0.56267  1.0000
  H   H5013     1.0  0.64349  0.74544  0.77959  1.0000
  C   C2831     1.0  0.59034  0.80706  0.92077  1.0000
  H   H5014     1.0  0.78072  0.74973  0.68555  1.0000
  H   H5015     1.0  0.77320  0.74335  0.60219  1.0000
  H   H5016     1.0  0.77181  0.77539  0.59161  1.0000
  H   H5017     1.0  0.61911  0.71043  0.75095  1.0000
  C   C2832     1.0  0.76834  0.53202  0.63697  1.0000
  H   H5018     1.0  0.67388  0.59152  0.83258  1.0000
  S   S627      1.0  0.60384  0.87585  0.96272  1.0000
  H   H5019     1.0  0.76887  0.77107  0.66134  1.0000
  H   H5020     1.0  0.71868  0.77814  0.51565  1.0000
  C   C2833     1.0  0.66544  0.69125  0.48574  1.0000
  C   C2834     1.0  0.67986  0.50250  0.86418  1.0000
  H   H5021     1.0  0.60340  0.80678  0.92132  1.0000
  H   H5022     1.0  0.66073  0.60284  0.81815  1.0000
  H   H5023     1.0  0.61519  0.97788  0.80336  1.0000
  H   H5024     1.0  0.63909  0.49788  0.85393  1.0000
  H   H5025     1.0  0.62069  0.95223  0.88072  1.0000
  H   H5026     1.0  0.67453  0.76986  0.84697  1.0000
  C   C2835     1.0  0.63341  0.49792  0.58742  1.0000
  H   H5027     1.0  0.77422  0.70180  0.72809  1.0000
  H   H5028     1.0  0.65417  0.58889  0.92122  1.0000
  H   H5029     1.0  0.67950  0.65537  0.53667  1.0000
  C   C2836     1.0  0.66201  0.59610  0.83533  1.0000
  C   C2837     1.0  0.67109  0.66359  0.54238  1.0000
  S   S628      1.0  0.58682  0.73620  0.49568  1.0000
  H   H5030     1.0  0.74135  0.50230  0.73856  1.0000
  H   H5031     1.0  0.66990  0.64976  0.50516  1.0000
  Fe  Fe317     1.0  0.70895  0.61508  0.48555  1.0000
  H   H5032     1.0  0.69492  0.61833  0.88002  1.0000
  S   S629      1.0  0.76758  0.57539  0.88528  1.0000
  H   H5033     1.0  0.72935  0.64932  0.55859  1.0000
  C   C2838     1.0  0.78321  0.78501  0.82676  1.0000
  H   H5034     1.0  0.68039  0.64484  0.90340  1.0000
  H   H5035     1.0  0.65217  0.71873  0.77995  1.0000
  H   H5036     1.0  0.65063  0.58478  0.84274  1.0000
  C   C2839     1.0  0.66966  0.50213  0.82829  1.0000
  H   H5037     1.0  0.69214  0.50402  0.85141  1.0000
  C   C2840     1.0  0.63769  0.51774  0.57642  1.0000
  H   H5038     1.0  0.59570  0.69936  0.73198  1.0000
  H   H5039     1.0  0.77972  0.75118  0.64221  1.0000
  C   C2841     1.0  0.78418  0.81968  0.54053  1.0000
  H   H5040     1.0  0.67602  0.49840  0.61972  1.0000
  H   H5041     1.0  0.74557  0.55846  0.94903  1.0000
  H   H5042     1.0  0.67407  0.51465  0.89412  1.0000
  C   C2842     1.0  0.59492  0.71302  0.72716  1.0000
  C   C2843     1.0  0.72880  0.77286  0.47642  1.0000
  H   H5043     1.0  0.59705  0.84881  0.49743  1.0000
  H   H5044     1.0  0.61654  0.86605  0.49139  1.0000
  H   H5045     1.0  0.67920  0.98729  0.96136  1.0000
  H   H5046     1.0  0.75529  0.50702  0.61392  1.0000
  H   H5047     1.0  0.77719  0.55390  0.65266  1.0000
  C   C2844     1.0  0.60689  0.85877  0.48336  1.0000
  N   N159      1.0  0.58772  0.95309  0.87267  1.0000
  H   H5048     1.0  0.61711  0.50728  0.62464  1.0000
  H   H5049     1.0  0.69793  0.50801  0.58218  1.0000
  C   C2845     1.0  0.64853  0.49674  0.86498  1.0000
  H   H5050     1.0  0.77352  0.80288  0.60292  1.0000
  H   H5051     1.0  0.76956  0.56066  0.96864  1.0000
  H   H5052     1.0  0.75883  0.57757  0.97177  1.0000
  H   H5053     1.0  0.72338  0.49681  0.62363  1.0000
  S   S630      1.0  0.82734  0.00254  0.99130  1.0000
  S   S631      1.0  0.84016  0.01343  0.39902  1.0000
  H   H5054     1.0  0.92005  0.26921  0.45166  1.0000
  S   S632      1.0  0.86403  0.04701  0.35860  1.0000
  H   H5055     1.0  0.94966  0.04740  0.98990  1.0000
  Fe  Fe318     1.0  0.86628  0.03245  0.39306  1.0000
  S   S633      1.0  0.87369  0.04507  0.42235  1.0000
  Fe  Fe319     1.0  0.83924  0.02651  0.36289  1.0000
  S   S634      1.0  0.81667  0.03531  0.35143  1.0000
  S   S635      1.0  0.88089  0.01508  0.37772  1.0000
  H   H5056     1.0  0.83476  0.09287  0.32664  1.0000
  H   H5057     1.0  0.94134  0.05933  0.46541  1.0000
  C   C2846     1.0  0.96394  0.46836  0.42405  1.0000
  S   S636      1.0  0.97643  0.13462  0.43719  1.0000
  Fe  Fe320     1.0  0.95413  0.11068  0.44475  1.0000
  S   S637      1.0  0.94512  0.09984  0.41510  1.0000
  C   C2847     1.0  0.82319  0.41880  0.22648  1.0000
  H   H5058     1.0  0.91501  0.34818  0.29249  1.0000
  H   H5059     1.0  0.83714  0.37683  0.35993  1.0000
  H   H5060     1.0  0.83241  0.30021  0.07238  1.0000
  C   C2848     1.0  0.91025  0.00644  0.05617  1.0000
  H   H5061     1.0  0.85773  0.37631  0.32400  1.0000
  H   H5062     1.0  0.79591  0.19726  0.45953  1.0000
  H   H5063     1.0  0.80582  0.07319  0.33950  1.0000
  C   C2849     1.0  0.79980  0.29318  0.10419  1.0000
  H   H5064     1.0  0.83529  0.41549  0.21971  1.0000
  C   C2850     1.0  0.89529  0.38554  0.44019  1.0000
  H   H5065     1.0  0.81107  0.31855  0.29465  1.0000
  S   S638      1.0  0.85581  0.26132  0.44585  1.0000
  C   C2851     1.0  0.80096  0.21217  0.40146  1.0000
  H   H5066     1.0  0.89483  0.41656  0.45228  1.0000
  H   H5067     1.0  0.87053  0.06922  0.30334  1.0000
  S   S639      1.0  0.91083  0.40470  0.99399  1.0000
  H   H5068     1.0  0.91363  0.00946  0.26209  1.0000
  Fe  Fe321     1.0  0.89997  0.37596  0.00864  1.0000
  S   S640      1.0  0.89066  0.36411  0.04751  1.0000
  S   S641      1.0  0.92316  0.36896  0.99025  1.0000
  S   S642      1.0  0.92007  0.47235  0.45070  1.0000
  Fe  Fe322     1.0  0.89140  0.41835  0.36322  1.0000
  S   S643      1.0  0.90157  0.43236  0.32576  1.0000
  S   S644      1.0  0.87846  0.43167  0.38867  1.0000
  Fe  Fe323     1.0  0.89998  0.38507  0.35412  1.0000
  S   S645      1.0  0.91103  0.39684  0.31588  1.0000
  S   S646      1.0  0.90099  0.35745  0.36814  1.0000
  Fe  Fe324     1.0  0.92369  0.42038  0.32793  1.0000
  S   S647      1.0  0.95139  0.43609  0.31174  1.0000
  Fe  Fe325     1.0  0.88792  0.40762  0.31721  1.0000
  S   S648      1.0  0.86987  0.40916  0.29221  1.0000
  S   S649      1.0  0.91423  0.40779  0.36604  1.0000
  S   S650      1.0  0.87612  0.39437  0.35491  1.0000
  H   H5069     1.0  0.84332  0.33744  0.08021  1.0000
  S   S651      1.0  0.82583  0.38807  0.18164  1.0000
  S   S652      1.0  0.82990  0.35090  0.17017  1.0000
  Fe  Fe326     1.0  0.82805  0.36269  0.20169  1.0000
  S   S653      1.0  0.84748  0.35999  0.22431  1.0000
  Fe  Fe327     1.0  0.82528  0.37526  0.15127  1.0000
  S   S654      1.0  0.83727  0.39024  0.11388  1.0000
  H   H5070     1.0  0.92532  0.37359  0.43232  1.0000
  C   C2852     1.0  0.80283  0.43997  0.16733  1.0000
  H   H5071     1.0  0.80820  0.41484  0.17140  1.0000
  H   H5072     1.0  0.81484  0.44653  0.15502  1.0000
  C   C2853     1.0  0.86392  0.39525  0.27347  1.0000
  C   C2854     1.0  0.84925  0.39592  0.26457  1.0000
  C   C2855     1.0  0.84409  0.38525  0.24951  1.0000
  C   C2856     1.0  0.85359  0.37381  0.24307  1.0000
  C   C2857     1.0  0.86821  0.37304  0.25207  1.0000
  C   C2858     1.0  0.87342  0.38378  0.26705  1.0000
  H   H5073     1.0  0.84182  0.40475  0.26941  1.0000
  H   H5074     1.0  0.83269  0.38574  0.24301  1.0000
  H   H5075     1.0  0.87570  0.36430  0.24709  1.0000
  H   H5076     1.0  0.88502  0.38352  0.27315  1.0000
  C   C2859     1.0  0.90886  0.46226  0.43212  1.0000
  C   C2860     1.0  0.89331  0.46532  0.42850  1.0000
  C   C2861     1.0  0.88418  0.45601  0.41487  1.0000
  C   C2862     1.0  0.89075  0.44394  0.40435  1.0000
  C   C2863     1.0  0.90648  0.44118  0.40756  1.0000
  C   C2864     1.0  0.91539  0.45017  0.42162  1.0000
  H   H5077     1.0  0.88815  0.47456  0.43662  1.0000
  H   H5078     1.0  0.87198  0.45815  0.41248  1.0000
  H   H5079     1.0  0.91164  0.43190  0.39959  1.0000
  H   H5080     1.0  0.92735  0.44764  0.42449  1.0000
  C   C2865     1.0  0.87567  0.37138  0.06564  1.0000
  C   C2866     1.0  0.86621  0.38216  0.05642  1.0000
  C   C2867     1.0  0.85440  0.38776  0.07143  1.0000
  C   C2868     1.0  0.85203  0.38270  0.09569  1.0000
  C   C2869     1.0  0.86153  0.37196  0.10490  1.0000
  C   C2870     1.0  0.87322  0.36621  0.08992  1.0000
  H   H5081     1.0  0.86797  0.38616  0.03773  1.0000
  H   H5082     1.0  0.84698  0.39591  0.06418  1.0000
  H   H5083     1.0  0.85994  0.36818  0.12357  1.0000
  H   H5084     1.0  0.88054  0.35789  0.09716  1.0000
  H   H5085     1.0  0.79560  0.39141  0.11763  1.0000
  H   H5086     1.0  0.80809  0.29780  0.13520  1.0000
  H   H5087     1.0  0.88892  0.99908  0.04021  1.0000
  N   N160      1.0  0.83477  0.02602  0.27609  1.0000
  S   S655      1.0  0.88510  0.37177  0.98102  1.0000
  C   C2871     1.0  0.97424  0.40727  0.00230  1.0000
  H   H5088     1.0  0.87929  0.04189  0.22265  1.0000
  H   H5089     1.0  0.96537  0.39454  0.00574  1.0000
  C   C2872     1.0  0.96091  0.43770  0.35351  1.0000
  C   C2873     1.0  0.96598  0.44222  0.32922  1.0000
  H   H5090     1.0  0.94797  0.43012  0.36194  1.0000
  C   C2874     1.0  0.85823  0.31960  0.42647  1.0000
  C   C2875     1.0  0.85644  0.33612  0.41716  1.0000
  C   C2876     1.0  0.86923  0.34772  0.39874  1.0000
  C   C2877     1.0  0.88394  0.34288  0.38974  1.0000
  C   C2878     1.0  0.88538  0.32614  0.39838  1.0000
  C   C2879     1.0  0.87259  0.31449  0.41676  1.0000
  H   H5091     1.0  0.84519  0.34001  0.42437  1.0000
  H   H5092     1.0  0.86780  0.36040  0.39160  1.0000
  H   H5093     1.0  0.89648  0.32228  0.39076  1.0000
  H   H5094     1.0  0.87386  0.30165  0.42349  1.0000
  C   C2880     1.0  0.80382  0.21185  0.42404  1.0000
  H   H5095     1.0  0.90205  0.32129  0.44323  1.0000
  S   S656      1.0  0.84260  0.30602  0.45074  1.0000
  H   H5096     1.0  0.79002  0.14645  0.27599  1.0000
  H   H5097     1.0  0.88546  0.06580  0.45344  1.0000
  H   H5098     1.0  0.80384  0.43557  0.24994  1.0000
  C   C2881     1.0  0.95889  0.06172  0.06441  1.0000
  H   H5099     1.0  0.79178  0.04511  0.32715  1.0000
  H   H5100     1.0  0.93901  0.28278  0.46900  1.0000
  H   H5101     1.0  0.92721  0.99810  0.37466  1.0000
  H   H5102     1.0  0.80766  0.05938  0.37877  1.0000
  H   H5103     1.0  0.82376  0.29320  0.11485  1.0000
  C   C2882     1.0  0.79377  0.19790  0.44219  1.0000
  C   C2883     1.0  0.90309  0.02311  0.45147  1.0000
  C   C2884     1.0  0.89344  0.06070  0.41965  1.0000
  C   C2885     1.0  0.89584  0.06880  0.43818  1.0000
  C   C2886     1.0  0.91155  0.08079  0.43712  1.0000
  C   C2887     1.0  0.92502  0.08493  0.41735  1.0000
  C   C2888     1.0  0.92257  0.07690  0.39876  1.0000
  C   C2889     1.0  0.90692  0.06482  0.39991  1.0000
  H   H5104     1.0  0.86656  0.05305  0.27284  1.0000
  H   H5105     1.0  0.91319  0.08692  0.45149  1.0000
  H   H5106     1.0  0.93287  0.08003  0.38336  1.0000
  H   H5107     1.0  0.90528  0.05871  0.38551  1.0000
  S   S657      1.0  0.87421  0.00327  0.99645  1.0000
  H   H5108     1.0  0.90238  0.38431  0.45439  1.0000
  H   H5109     1.0  0.83406  0.46555  0.24703  1.0000
  H   H5110     1.0  0.82223  0.33325  0.32349  1.0000
  H   H5111     1.0  0.96160  0.04879  0.24883  1.0000
  C   C2890     1.0  0.81022  0.08139  0.35139  1.0000
  H   H5112     1.0  0.97755  0.00143  0.00490  1.0000
  H   H5113     1.0  0.80616  0.09359  0.34777  1.0000
  H   H5114     1.0  0.96433  0.06926  0.42857  1.0000
  H   H5115     1.0  0.88214  0.43645  0.47133  1.0000
  C   C2891     1.0  0.87574  0.02754  0.22936  1.0000
  H   H5116     1.0  0.78858  0.19948  0.98090  1.0000
  H   H5117     1.0  0.81319  0.01025  0.26642  1.0000
  H   H5118     1.0  0.85208  0.35234  0.35852  1.0000
  C   C2892     1.0  0.82241  0.47329  0.20807  1.0000
  C   C2893     1.0  0.78987  0.03124  0.32913  1.0000
  C   C2894     1.0  0.86966  0.36248  0.46223  1.0000
  N   N161      1.0  0.95305  0.99905  0.97671  1.0000
  H   H5119     1.0  0.86060  0.30925  0.04512  1.0000
  C   C2895     1.0  0.94637  0.01491  0.97871  1.0000
  H   H5120     1.0  0.92286  0.24966  0.41158  1.0000
  H   H5121     1.0  0.84920  0.44488  0.02826  1.0000
  H   H5122     1.0  0.81951  0.46611  0.19438  1.0000
  H   H5123     1.0  0.84143  0.36944  0.44438  1.0000
  H   H5124     1.0  0.90605  0.36663  0.28936  1.0000
  H   H5125     1.0  0.90875  0.01940  0.05608  1.0000
  H   H5126     1.0  0.93688  0.22693  0.43199  1.0000
  H   H5127     1.0  0.83287  0.38757  0.33342  1.0000
  H   H5128     1.0  0.92643  0.39155  0.40874  1.0000
  H   H5129     1.0  0.87081  0.02866  0.26531  1.0000
  H   H5130     1.0  0.96828  0.43999  0.38578  1.0000
  H   H5131     1.0  0.93451  0.27736  0.42420  1.0000
  C   C2896     1.0  0.81182  0.42654  0.10983  1.0000
  H   H5132     1.0  0.89638  0.37719  0.40705  1.0000
  H   H5133     1.0  0.78840  0.35304  0.11373  1.0000
  H   H5134     1.0  0.84789  0.06179  0.31660  1.0000
  H   H5135     1.0  0.97360  0.49050  0.45838  1.0000
  H   H5136     1.0  0.84928  0.01298  0.29698  1.0000
  H   H5137     1.0  0.93603  0.29417  0.38887  1.0000
  H   H5138     1.0  0.88435  0.33882  0.29303  1.0000
  C   C2897     1.0  0.79914  0.42202  0.17676  1.0000
  H   H5139     1.0  0.81953  0.36619  0.34860  1.0000
  H   H5140     1.0  0.88866  0.33010  0.32057  1.0000
  H   H5141     1.0  0.79918  0.32486  0.12606  1.0000
  H   H5142     1.0  0.84117  0.48378  0.27690  1.0000
  H   H5143     1.0  0.89433  0.00147  0.32390  1.0000
  C   C2898     1.0  0.95344  0.00720  0.18962  1.0000
  H   H5144     1.0  0.82379  0.47807  0.06662  1.0000
  C   C2899     1.0  0.97355  0.42052  0.98430  1.0000
  H   H5145     1.0  0.81078  0.04765  0.26582  1.0000
  C   C2900     1.0  0.84973  0.33535  0.30963  1.0000
  H   H5146     1.0  0.96888  0.99872  0.22706  1.0000
  H   H5147     1.0  0.86536  0.33009  0.05263  1.0000
  H   H5148     1.0  0.79016  0.22895  0.97209  1.0000
  C   C2901     1.0  0.81158  0.03668  0.25721  1.0000
  H   H5149     1.0  0.87371  0.39973  0.42076  1.0000
  C   C2902     1.0  0.90787  0.26699  0.42310  1.0000
  C   C2903     1.0  0.79401  0.46561  0.23569  1.0000
  C   C2904     1.0  0.84635  0.34935  0.34369  1.0000
  C   C2905     1.0  0.93058  0.03451  0.30096  1.0000
  H   H5150     1.0  0.84968  0.04091  0.24204  1.0000
  C   C2906     1.0  0.86377  0.02242  0.25358  1.0000
  C   C2907     1.0  0.88070  0.41266  0.45901  1.0000
  H   H5151     1.0  0.82490  0.35473  0.08764  1.0000
  Fe  Fe328     1.0  0.79741  0.37555  0.19184  1.0000
  H   H5152     1.0  0.92762  0.05414  0.44673  1.0000
  H   H5153     1.0  0.90879  0.27363  0.40489  1.0000
  H   H5154     1.0  0.91171  0.03224  0.43552  1.0000
  H   H5155     1.0  0.94370  0.31842  0.35421  1.0000
  H   H5156     1.0  0.90913  0.24136  0.44060  1.0000
  C   C2908     1.0  0.98010  0.48460  0.47122  1.0000
  C   C2909     1.0  0.83285  0.37475  0.34384  1.0000
  C   C2910     1.0  0.80818  0.32927  0.10855  1.0000
  H   H5157     1.0  0.94352  0.46349  0.37375  1.0000
  C   C2911     1.0  0.85687  0.32376  0.14544  1.0000
  S   S658      1.0  0.89781  0.03827  0.31083  1.0000
  H   H5158     1.0  0.83636  0.47490  0.20739  1.0000
  C   C2912     1.0  0.92157  0.27726  0.43395  1.0000
  Fe  Fe329     1.0  0.96330  0.01034  0.07689  1.0000
  H   H5159     1.0  0.81659  0.44161  0.06216  1.0000
  C   C2913     1.0  0.92006  0.99832  0.31553  1.0000
  C   C2914     1.0  0.84499  0.36675  0.32940  1.0000
  H   H5160     1.0  0.93718  0.31838  0.44149  1.0000
  C   C2915     1.0  0.85643  0.04911  0.28920  1.0000
  H   H5161     1.0  0.93468  0.04855  0.29515  1.0000
  H   H5162     1.0  0.83504  0.09530  0.35592  1.0000
  C   C2916     1.0  0.84796  0.38349  0.43757  1.0000
  H   H5163     1.0  0.85864  0.32373  0.10944  1.0000
  C   C2917     1.0  0.84113  0.31360  0.36678  1.0000
  C   C2918     1.0  0.82675  0.43847  0.22402  1.0000
  H   H5164     1.0  0.82763  0.31268  0.32426  1.0000
  H   H5165     1.0  0.85260  0.34747  0.29580  1.0000
  H   H5166     1.0  0.83763  0.05387  0.27038  1.0000
  H   H5167     1.0  0.86626  0.35473  0.44933  1.0000
  H   H5168     1.0  0.95072  0.05970  0.41112  1.0000
  H   H5169     1.0  0.92113  0.45464  0.35359  1.0000
  H   H5170     1.0  0.96672  0.08956  0.03094  1.0000
  S   S659      1.0  0.79948  0.35058  0.21388  1.0000
  C   C2919     1.0  0.93909  0.03683  0.00206  1.0000
  H   H5171     1.0  0.86972  0.37807  0.41806  1.0000
  C   C2920     1.0  0.94307  0.01918  0.00311  1.0000
  H   H5172     1.0  0.87446  0.41731  0.44505  1.0000
  H   H5173     1.0  0.85535  0.07600  0.28777  1.0000
  H   H5174     1.0  0.92598  0.38187  0.12934  1.0000
  H   H5175     1.0  0.84246  0.28690  0.36719  1.0000
  C   C2921     1.0  0.90784  0.00799  0.31734  1.0000
  N   N162      1.0  0.94205  0.99945  0.23465  1.0000
  H   H5176     1.0  0.83253  0.49519  0.24078  1.0000
  H   H5177     1.0  0.82883  0.01263  0.31227  1.0000
  H   H5178     1.0  0.84441  0.38257  0.40248  1.0000
  H   H5179     1.0  0.83278  0.44468  0.20542  1.0000
  C   C2922     1.0  0.93877  0.21536  0.44323  1.0000
  H   H5180     1.0  0.96552  0.13632  0.97972  1.0000
  H   H5181     1.0  0.83997  0.01898  0.24267  1.0000
  H   H5182     1.0  0.92688  0.03659  0.99640  1.0000
  H   H5183     1.0  0.95631  0.03142  0.29375  1.0000
  Fe  Fe330     1.0  0.83020  0.24087  0.45734  1.0000
  S   S660      1.0  0.96223  0.16918  0.46946  1.0000
  C   C2923     1.0  0.96522  0.02882  0.22968  1.0000
  H   H5184     1.0  0.84436  0.39090  0.45069  1.0000
  H   H5185     1.0  0.83202  0.41788  0.07439  1.0000
  H   H5186     1.0  0.82859  0.04217  0.29972  1.0000
  H   H5187     1.0  0.93751  0.03963  0.01970  1.0000
  H   H5188     1.0  0.86795  0.32557  0.35542  1.0000
  H   H5189     1.0  0.91577  0.47099  0.36824  1.0000
  H   H5190     1.0  0.81975  0.41711  0.11026  1.0000
  N   N163      1.0  0.93441  0.41236  0.06266  1.0000
  C   C2924     1.0  0.93129  0.39608  0.05326  1.0000
  C   C2925     1.0  0.92263  0.42337  0.05572  1.0000
  C   C2926     1.0  0.95272  0.42285  0.05137  1.0000
  C   C2927     1.0  0.93259  0.40831  0.08871  1.0000
  C   C2928     1.0  0.91526  0.39608  0.10368  1.0000
  C   C2929     1.0  0.94219  0.38327  0.05967  1.0000
  C   C2930     1.0  0.95823  0.44112  0.05678  1.0000
  C   C2931     1.0  0.90399  0.41383  0.05555  1.0000
  C   C2932     1.0  0.89320  0.42677  0.05139  1.0000
  C   C2933     1.0  0.91653  0.38979  0.12877  1.0000
  C   C2934     1.0  0.93751  0.36710  0.04988  1.0000
  C   C2935     1.0  0.97652  0.45083  0.04325  1.0000
  H   H5191     1.0  0.93352  0.39966  0.03388  1.0000
  H   H5192     1.0  0.91769  0.38838  0.05931  1.0000
  H   H5193     1.0  0.92176  0.43278  0.06709  1.0000
  H   H5194     1.0  0.92812  0.43142  0.03761  1.0000
  H   H5195     1.0  0.95502  0.42473  0.03204  1.0000
  H   H5196     1.0  0.96208  0.41579  0.05674  1.0000
  H   H5197     1.0  0.94321  0.40283  0.09318  1.0000
  H   H5198     1.0  0.93418  0.42047  0.09523  1.0000
  H   H5199     1.0  0.91099  0.38436  0.09691  1.0000
  H   H5200     1.0  0.90521  0.40328  0.10448  1.0000
  H   H5201     1.0  0.95609  0.38936  0.05245  1.0000
  H   H5202     1.0  0.93995  0.37878  0.07883  1.0000
  H   H5203     1.0  0.95805  0.43994  0.07556  1.0000
  H   H5204     1.0  0.94972  0.44937  0.05191  1.0000
  H   H5205     1.0  0.90414  0.40682  0.04127  1.0000
  H   H5206     1.0  0.89733  0.40416  0.07191  1.0000
  H   H5207     1.0  0.88021  0.41977  0.05023  1.0000
  H   H5208     1.0  0.89175  0.43347  0.06599  1.0000
  H   H5209     1.0  0.89924  0.43657  0.03475  1.0000
  H   H5210     1.0  0.84754  0.31863  0.16256  1.0000
  H   H5211     1.0  0.83244  0.31825  0.28096  1.0000
  C   C2936     1.0  0.93758  0.00667  0.30732  1.0000
  H   H5212     1.0  0.93957  0.37080  0.03065  1.0000
  H   H5213     1.0  0.94577  0.35839  0.05421  1.0000
  H   H5214     1.0  0.92388  0.35979  0.05752  1.0000
  H   H5215     1.0  0.79509  0.48254  0.08219  1.0000
  S   S661      1.0  0.79658  0.36442  0.16005  1.0000
  H   H5216     1.0  0.96326  0.49498  0.41484  1.0000
  H   H5217     1.0  0.84498  0.30406  0.12964  1.0000
  H   H5218     1.0  0.80028  0.32578  0.09596  1.0000
  H   H5219     1.0  0.92060  0.31965  0.41314  1.0000
  H   H5220     1.0  0.85982  0.31310  0.33637  1.0000
  C   C2937     1.0  0.79350  0.00235  0.00659  1.0000
  N   N164      1.0  0.82240  0.32011  0.10759  1.0000
  H   H5221     1.0  0.89472  0.26537  0.43336  1.0000
  C   C2938     1.0  0.79551  0.41790  0.10219  1.0000
  H   H5222     1.0  0.90719  0.00105  0.23829  1.0000
  C   C2939     1.0  0.93521  0.30722  0.39143  1.0000
  C   C2940     1.0  0.93274  0.31739  0.36875  1.0000
  C   C2941     1.0  0.83853  0.04296  0.28389  1.0000
  H   H5223     1.0  0.90793  0.30085  0.40733  1.0000
  H   H5224     1.0  0.87977  0.35523  0.33601  1.0000
  C   C2942     1.0  0.94908  0.04254  0.44444  1.0000
  H   H5225     1.0  0.78662  0.06721  0.42078  1.0000
  C   C2943     1.0  0.94326  0.47304  0.35810  1.0000
  H   H5226     1.0  0.92069  0.31067  0.36451  1.0000
  H   H5227     1.0  0.93216  0.33078  0.37016  1.0000
  H   H5228     1.0  0.82903  0.31150  0.36068  1.0000
  C   C2944     1.0  0.95915  0.05706  0.42319  1.0000
  H   H5229     1.0  0.84018  0.32163  0.37998  1.0000
  H   H5230     1.0  0.92373  0.18172  0.46942  1.0000
  H   H5231     1.0  0.94628  0.47949  0.40816  1.0000
  H   H5232     1.0  0.80951  0.07890  0.38840  1.0000
  H   H5233     1.0  0.85655  0.32678  0.30135  1.0000
  N   N165      1.0  0.82212  0.44435  0.09552  1.0000
  C   C2945     1.0  0.97190  0.11237  0.99287  1.0000
  H   H5234     1.0  0.81897  0.47822  0.29292  1.0000
  S   S662      1.0  0.98126  0.02564  0.09464  1.0000
  H   H5235     1.0  0.81036  0.48945  0.25677  1.0000
  C   C2946     1.0  0.79396  0.02996  0.25212  1.0000
  C   C2947     1.0  0.85755  0.06503  0.29984  1.0000
  C   C2948     1.0  0.90073  0.37410  0.42341  1.0000
  H   H5236     1.0  0.82121  0.04167  0.24037  1.0000
  C   C2949     1.0  0.89485  0.00647  0.44453  1.0000
  H   H5237     1.0  0.83590  0.45732  0.06021  1.0000
  H   H5238     1.0  0.83621  0.44221  0.23454  1.0000
  H   H5239     1.0  0.80771  0.42718  0.12826  1.0000
  H   H5240     1.0  0.84013  0.36500  0.31363  1.0000
  H   H5241     1.0  0.88771  0.02344  0.23032  1.0000
  C   C2950     1.0  0.81409  0.30082  0.11620  1.0000
  N   N166      1.0  0.85654  0.33932  0.33043  1.0000
  C   C2951     1.0  0.85482  0.31934  0.05108  1.0000
  H   H5242     1.0  0.94394  0.03090  0.43796  1.0000
  C   C2952     1.0  0.90427  0.29433  0.45254  1.0000
  H   H5243     1.0  0.93823  0.02542  0.22911  1.0000
  H   H5244     1.0  0.86815  0.31837  0.14614  1.0000
  C   C2953     1.0  0.82865  0.48707  0.27762  1.0000
  H   H5245     1.0  0.94820  0.30389  0.43102  1.0000
  H   H5246     1.0  0.84660  0.40379  0.40917  1.0000
  C   C2954     1.0  0.81916  0.47608  0.08570  1.0000
  C   C2955     1.0  0.94285  0.02482  0.30012  1.0000
  H   H5247     1.0  0.80861  0.22281  0.38721  1.0000
  Fe  Fe331     1.0  0.96293  0.14092  0.46975  1.0000
  C   C2956     1.0  0.84865  0.31846  0.12593  1.0000
  Fe  Fe332     1.0  0.87693  0.02841  0.34367  1.0000
  H   H5248     1.0  0.92381  0.36989  0.40385  1.0000
  H   H5249     1.0  0.78683  0.00500  0.16246  1.0000
  C   C2957     1.0  0.92027  0.30599  0.41212  1.0000
  H   H5250     1.0  0.96542  0.30701  0.46178  1.0000
  S   S663      1.0  0.79559  0.47146  0.15886  1.0000
  C   C2958     1.0  0.94842  0.49185  0.36177  1.0000
  C   C2959     1.0  0.88790  0.34211  0.30903  1.0000
  H   H5251     1.0  0.85447  0.29735  0.38578  1.0000
  C   C2960     1.0  0.84238  0.43157  0.03882  1.0000
  C   C2961     1.0  0.86762  0.38615  0.43086  1.0000
  C   C2962     1.0  0.84251  0.29591  0.37918  1.0000
  C   C2963     1.0  0.90594  0.35450  0.30154  1.0000
  H   H5252     1.0  0.89993  0.24156  0.41547  1.0000
  H   H5253     1.0  0.97731  0.45315  0.02421  1.0000
  H   H5254     1.0  0.96083  0.07270  0.01621  1.0000
  H   H5255     1.0  0.86126  0.00813  0.25983  1.0000
  C   C2964     1.0  0.85710  0.32282  0.34655  1.0000
  H   H5256     1.0  0.82691  0.38695  0.42136  1.0000
  H   H5257     1.0  0.93174  0.00918  0.01455  1.0000
  Fe  Fe333     1.0  0.80100  0.34045  0.18091  1.0000
  H   H5258     1.0  0.90280  0.28471  0.46897  1.0000
  C   C2965     1.0  0.84112  0.38958  0.41630  1.0000
  Fe  Fe334     1.0  0.85486  0.99728  0.38103  1.0000
  H   H5259     1.0  0.78726  0.22776  0.46517  1.0000
  H   H5260     1.0  0.98130  0.06130  0.47002  1.0000
  S   S664      1.0  0.93791  0.01618  0.07507  1.0000
  C   C2966     1.0  0.82787  0.44423  0.07020  1.0000
  H   H5261     1.0  0.83022  0.42692  0.03337  1.0000
  C   C2967     1.0  0.83589  0.01162  0.29511  1.0000
  C   C2968     1.0  0.83742  0.45117  0.10545  1.0000
  H   H5262     1.0  0.79763  0.01596  0.99771  1.0000
  C   C2969     1.0  0.81056  0.45649  0.09716  1.0000
  C   C2970     1.0  0.83872  0.43143  0.06482  1.0000
  H   H5263     1.0  0.91052  0.35785  0.31695  1.0000
  H   H5264     1.0  0.81428  0.45751  0.26758  1.0000
  C   C2971     1.0  0.84560  0.43760  0.11780  1.0000
  C   C2972     1.0  0.86207  0.44649  0.12416  1.0000
  H   H5265     1.0  0.79970  0.45269  0.08874  1.0000
  C   C2973     1.0  0.91017  0.24879  0.42270  1.0000
  H   H5266     1.0  0.95182  0.47123  0.34274  1.0000
  H   H5267     1.0  0.80187  0.48629  0.10840  1.0000
  H   H5268     1.0  0.94274  0.01805  0.25655  1.0000
  H   H5269     1.0  0.84778  0.46089  0.09166  1.0000
  H   H5270     1.0  0.83381  0.45843  0.11889  1.0000
  C   C2974     1.0  0.94620  0.01798  0.23774  1.0000
  H   H5271     1.0  0.87524  0.36261  0.30880  1.0000
  H   H5272     1.0  0.95624  0.02158  0.18656  1.0000
  H   H5273     1.0  0.83019  0.48134  0.09305  1.0000
  H   H5274     1.0  0.97772  0.48594  0.33814  1.0000
  H   H5275     1.0  0.85133  0.43537  0.06933  1.0000
  C   C2975     1.0  0.96015  0.48316  0.40779  1.0000
  S   S665      1.0  0.85227  0.00911  0.34541  1.0000
  C   C2976     1.0  0.93628  0.30428  0.44296  1.0000
  H   H5276     1.0  0.92459  0.47653  0.33713  1.0000
  H   H5277     1.0  0.83655  0.42965  0.13427  1.0000
  H   H5278     1.0  0.84882  0.42864  0.10683  1.0000
  H   H5279     1.0  0.85939  0.45523  0.13591  1.0000
  H   H5280     1.0  0.86735  0.43645  0.13337  1.0000
  H   H5281     1.0  0.87189  0.45413  0.10823  1.0000
  N   N167      1.0  0.87622  0.38169  0.45051  1.0000
  C   C2977     1.0  0.83318  0.32504  0.08290  1.0000
  H   H5282     1.0  0.93892  0.49197  0.37742  1.0000
  H   H5283     1.0  0.87998  0.35756  0.46881  1.0000
  H   H5284     1.0  0.88544  0.99722  0.45971  1.0000
  C   C2978     1.0  0.87477  0.35063  0.32149  1.0000
  C   C2979     1.0  0.92507  0.46861  0.35404  1.0000
  H   H5285     1.0  0.80411  0.37185  0.09461  1.0000
  H   H5286     1.0  0.97109  0.02855  0.21174  1.0000
  H   H5287     1.0  0.95402  0.01922  0.01154  1.0000
  H   H5288     1.0  0.96060  0.45604  0.41812  1.0000
  H   H5289     1.0  0.83139  0.29004  0.39430  1.0000
  H   H5290     1.0  0.90044  0.39921  0.42983  1.0000
  H   H5291     1.0  0.83244  0.49443  0.16299  1.0000
  C   C2980     1.0  0.92028  0.37754  0.41676  1.0000
  H   H5292     1.0  0.97127  0.20614  0.46624  1.0000
  H   H5293     1.0  0.95831  0.03982  0.45513  1.0000
  H   H5294     1.0  0.82695  0.33874  0.28042  1.0000
  H   H5295     1.0  0.97776  0.47150  0.42455  1.0000
  H   H5296     1.0  0.97708  0.11781  0.00667  1.0000
  C   C2981     1.0  0.98542  0.43687  0.97965  1.0000
  C   C2982     1.0  0.84209  0.31144  0.07459  1.0000
  C   C2983     1.0  0.82493  0.32541  0.29112  1.0000
  H   H5297     1.0  0.89285  0.28914  0.44579  1.0000
  C   C2984     1.0  0.80302  0.07134  0.37717  1.0000
  C   C2985     1.0  0.80044  0.02283  0.34048  1.0000
  C   C2986     1.0  0.96691  0.04783  0.23083  1.0000
  C   C2987     1.0  0.91309  0.02612  0.30989  1.0000
  H   H5298     1.0  0.83300  0.34147  0.35177  1.0000
  C   C2988     1.0  0.83035  0.32625  0.31413  1.0000
  H   H5299     1.0  0.79710  0.04164  0.41309  1.0000
  H   H5300     1.0  0.94769  0.31414  0.39431  1.0000
  H   H5301     1.0  0.98273  0.06575  0.98850  1.0000
  S   S666      1.0  0.82011  0.22915  0.42838  1.0000
  C   C2989     1.0  0.97248  0.44333  0.36700  1.0000
  C   C2990     1.0  0.97293  0.12759  0.97305  1.0000
  H   H5302     1.0  0.79583  0.00599  0.11781  1.0000
  H   H5303     1.0  0.95808  0.10556  0.00028  1.0000
  H   H5304     1.0  0.81820  0.41184  0.24505  1.0000
  H   H5305     1.0  0.97796  0.14175  0.34226  1.0000
  H   H5306     1.0  0.97006  0.05313  0.41368  1.0000
  H   H5307     1.0  0.82529  0.32797  0.07012  1.0000
  H   H5308     1.0  0.91183  0.20574  0.45850  1.0000
  N   N168      1.0  0.92062  0.29547  0.43539  1.0000
  H   H5309     1.0  0.89534  0.35997  0.43115  1.0000
  H   H5310     1.0  0.95782  0.07336  0.07136  1.0000
  C   C2991     1.0  0.81400  0.34945  0.10308  1.0000
  C   C2992     1.0  0.84658  0.02744  0.25292  1.0000
  C   C2993     1.0  0.97112  0.48642  0.38290  1.0000
  H   H5311     1.0  0.84827  0.32445  0.03772  1.0000
  H   H5312     1.0  0.96007  0.05398  0.21867  1.0000
  H   H5313     1.0  0.85932  0.03894  0.30172  1.0000
  C   C2994     1.0  0.82077  0.46708  0.25081  1.0000
  H   H5314     1.0  0.82468  0.32308  0.14209  1.0000
  H   H5315     1.0  0.84919  0.30632  0.08705  1.0000
  H   H5316     1.0  0.81801  0.35382  0.11827  1.0000
  H   H5317     1.0  0.85070  0.42279  0.03519  1.0000
  H   H5318     1.0  0.90379  0.38155  0.13927  1.0000
  N   N169      1.0  0.81183  0.46283  0.23179  1.0000
  C   C2995     1.0  0.79565  0.27332  0.10904  1.0000
  H   H5319     1.0  0.92045  0.40101  0.13674  1.0000
  H   H5320     1.0  0.95606  0.46633  0.44190  1.0000
  C   C2996     1.0  0.81639  0.02217  0.27334  1.0000
  C   C2997     1.0  0.92390  0.20848  0.46474  1.0000
  H   H5321     1.0  0.86134  0.33816  0.14232  1.0000
  C   C2998     1.0  0.97157  0.07964  0.02302  1.0000
  C   C2999     1.0  0.81967  0.49147  0.19921  1.0000
  C   C3000     1.0  0.79798  0.00491  0.34250  1.0000
  C   C3001     1.0  0.79530  0.99911  0.07860  1.0000
  H   H5322     1.0  0.94672  0.05616  0.05949  1.0000
  H   H5323     1.0  0.80736  0.01922  0.29062  1.0000
  H   H5324     1.0  0.97271  0.09069  0.97661  1.0000
  C   C3002     1.0  0.80636  0.48704  0.08953  1.0000
  H   H5325     1.0  0.97288  0.02359  0.24135  1.0000
  H   H5326     1.0  0.98071  0.05512  0.22572  1.0000
  H   H5327     1.0  0.80339  0.01278  0.07486  1.0000
  H   H5328     1.0  0.97051  0.47365  0.37837  1.0000
  H   H5329     1.0  0.83848  0.34030  0.11941  1.0000
  H   H5330     1.0  0.97495  0.05408  0.03811  1.0000
  H   H5331     1.0  0.80702  0.26910  0.10152  1.0000
  H   H5332     1.0  0.86948  0.02108  0.21704  1.0000
  H   H5333     1.0  0.88794  0.00971  0.43068  1.0000
  C   C3003     1.0  0.83303  0.32600  0.12426  1.0000
  C   C3004     1.0  0.90224  0.31169  0.45883  1.0000
  H   H5334     1.0  0.81369  0.41416  0.21638  1.0000
  Fe  Fe335     1.0  0.98056  0.00772  0.29189  1.0000
  H   H5335     1.0  0.93943  0.20526  0.43296  1.0000
  H   H5336     1.0  0.79884  0.41616  0.08412  1.0000
  H   H5337     1.0  0.95982  0.00910  0.15231  1.0000
  H   H5338     1.0  0.98577  0.44331  0.04765  1.0000
  H   H5339     1.0  0.98034  0.46365  0.04779  1.0000
  H   H5340     1.0  0.78691  0.45903  0.27409  1.0000
  C   C3005     1.0  0.97410  0.06639  0.04343  1.0000
  C   C3006     1.0  0.91059  0.99751  0.25525  1.0000
  H   H5341     1.0  0.97948  0.02357  0.98985  1.0000
  C   C3007     1.0  0.91317  0.01915  0.47052  1.0000
  H   H5342     1.0  0.90736  0.99822  0.39350  1.0000
  C   C3008     1.0  0.98291  0.45218  0.31857  1.0000
  H   H5343     1.0  0.80355  0.29843  0.08506  1.0000
  H   H5344     1.0  0.96075  0.05180  0.07843  1.0000
  H   H5345     1.0  0.79954  0.10285  0.38363  1.0000
  Fe  Fe336     1.0  0.84246  0.27801  0.46443  1.0000
  C   C3009     1.0  0.82987  0.08629  0.34535  1.0000
  H   H5346     1.0  0.83465  0.07446  0.34865  1.0000
  H   H5347     1.0  0.80463  0.45553  0.11580  1.0000
  S   S667      1.0  0.98261  0.01712  0.04317  1.0000
  H   H5348     1.0  0.78777  0.29662  0.11108  1.0000
  H   H5349     1.0  0.78781  0.46208  0.22147  1.0000
  H   H5350     1.0  0.79440  0.47954  0.23449  1.0000
  C   C3010     1.0  0.82262  0.48565  0.25516  1.0000
  C   C3011     1.0  0.80990  0.44374  0.23211  1.0000
  H   H5351     1.0  0.80690  0.48982  0.19484  1.0000
  H   H5352     1.0  0.91280  0.31749  0.46661  1.0000
  Fe  Fe337     1.0  0.93304  0.39760  0.97391  1.0000
  H   H5353     1.0  0.80590  0.99821  0.35130  1.0000
  H   H5354     1.0  0.93728  0.00600  0.16427  1.0000
  H   H5355     1.0  0.79406  0.01939  0.24257  1.0000
  C   C3012     1.0  0.93768  0.29622  0.46786  1.0000
  C   C3013     1.0  0.93465  0.04829  0.45888  1.0000
  C   C3014     1.0  0.79941  0.35745  0.09831  1.0000
  S   S668      1.0  0.79215  0.31244  0.17599  1.0000
  H   H5356     1.0  0.79052  0.04070  0.24124  1.0000
  H   H5357     1.0  0.89248  0.02876  0.45777  1.0000
  H   H5358     1.0  0.92235  0.01215  0.46342  1.0000
  H   H5359     1.0  0.78687  0.17585  0.01389  1.0000
  C   C3015     1.0  0.94903  0.00224  0.16753  1.0000
  H   H5360     1.0  0.90476  0.00012  0.43778  1.0000
  S   S669      1.0  0.96675  0.09420  0.46643  1.0000
  H   H5361     1.0  0.95115  0.21930  0.44843  1.0000
  C   C3016     1.0  0.87390  0.39264  0.46822  1.0000
  H   H5362     1.0  0.96516  0.00311  0.19182  1.0000
  H   H5363     1.0  0.98464  0.49140  0.38410  1.0000
  C   C3017     1.0  0.79099  0.44941  0.17342  1.0000
  H   H5364     1.0  0.92803  0.00518  0.20810  1.0000
  C   C3018     1.0  0.92362  0.00132  0.06479  1.0000
  H   H5365     1.0  0.79253  0.99677  0.06170  1.0000
  C   C3019     1.0  0.78829  0.19887  0.39704  1.0000
  H   H5366     1.0  0.83100  0.00479  0.06436  1.0000
  C   C3020     1.0  0.98182  0.01088  0.98786  1.0000
  C   C3021     1.0  0.98153  0.09924  0.98456  1.0000
  H   H5367     1.0  0.80110  0.43939  0.22085  1.0000
  H   H5368     1.0  0.79162  0.26762  0.12809  1.0000
  C   C3022     1.0  0.93829  0.99868  0.21103  1.0000
  H   H5369     1.0  0.87428  0.30368  0.46927  1.0000
  H   H5370     1.0  0.93373  0.01349  0.97368  1.0000
  H   H5371     1.0  0.79504  0.35382  0.08292  1.0000
  H   H5372     1.0  0.98594  0.07168  0.04919  1.0000
  C   C3023     1.0  0.78669  0.39992  0.11811  1.0000
  H   H5373     1.0  0.92554  0.99559  0.40551  1.0000
  Fe  Fe338     1.0  0.95378  0.10324  0.49624  1.0000
  S   S670      1.0  0.94093  0.08295  0.52922  1.0000
  H   H5374     1.0  0.88967  0.05397  0.52437  1.0000
  C   C3024     1.0  0.83813  0.48642  0.91068  1.0000
  H   H5375     1.0  0.87670  0.45136  0.59235  1.0000
  H   H5376     1.0  0.82950  0.47516  0.92424  1.0000
  H   H5377     1.0  0.78890  0.22435  0.50259  1.0000
  H   H5378     1.0  0.94258  0.21395  0.50513  1.0000
  C   C3025     1.0  0.90855  0.04264  0.48915  1.0000
  H   H5379     1.0  0.82782  0.47730  0.88334  1.0000
  H   H5380     1.0  0.84032  0.33310  0.47634  1.0000
  H   H5381     1.0  0.82151  0.48279  0.84767  1.0000
  C   C3026     1.0  0.92624  0.06480  0.95534  1.0000
  H   H5382     1.0  0.88903  0.44322  0.55174  1.0000
  C   C3027     1.0  0.96596  0.47212  0.49111  1.0000
  H   H5383     1.0  0.79381  0.41586  0.63420  1.0000
  S   S671      1.0  0.91196  0.01931  0.93499  1.0000
  Fe  Fe339     1.0  0.82484  0.24839  0.50649  1.0000
  S   S672      1.0  0.83662  0.22916  0.49080  1.0000
  S   S673      1.0  0.80673  0.23959  0.54222  1.0000
  S   S674      1.0  0.92569  0.47596  0.85775  1.0000
  H   H5384     1.0  0.94170  0.03976  0.49873  1.0000
  H   H5385     1.0  0.89410  0.44976  0.66582  1.0000
  H   H5386     1.0  0.86836  0.42421  0.65188  1.0000
  S   S675      1.0  0.84952  0.26933  0.49844  1.0000
  Fe  Fe340     1.0  0.86745  0.26900  0.83742  1.0000
  S   S676      1.0  0.85889  0.29373  0.83072  1.0000
  S   S677      1.0  0.88966  0.26385  0.81318  1.0000
  Fe  Fe341     1.0  0.83553  0.25022  0.87657  1.0000
  S   S678      1.0  0.82492  0.27353  0.87274  1.0000
  S   S679      1.0  0.82285  0.22432  0.90281  1.0000
  Fe  Fe342     1.0  0.83273  0.27597  0.83402  1.0000
  S   S680      1.0  0.81336  0.28179  0.81267  1.0000
  Fe  Fe343     1.0  0.85195  0.28938  0.86997  1.0000
  S   S681      1.0  0.85362  0.31158  0.88929  1.0000
  S   S682      1.0  0.84162  0.25160  0.83816  1.0000
  S   S683      1.0  0.86221  0.26572  0.87644  1.0000
  H   H5387     1.0  0.92354  0.02747  0.62654  1.0000
  H   H5388     1.0  0.88036  0.38886  0.48246  1.0000
  Fe  Fe344     1.0  0.96384  0.26981  0.54854  1.0000
  S   S684      1.0  0.93889  0.27706  0.54362  1.0000
  S   S685      1.0  0.96310  0.24538  0.57393  1.0000
  C   C3028     1.0  0.88541  0.30880  0.47656  1.0000
  S   S686      1.0  0.96763  0.28121  0.82119  1.0000
  S   S687      1.0  0.95246  0.09492  0.93897  1.0000
  C   C3029     1.0  0.97686  0.07650  0.58928  1.0000
  H   H5389     1.0  0.79032  0.47985  0.64493  1.0000
  H   H5390     1.0  0.93174  0.04696  0.55365  1.0000
  C   C3030     1.0  0.96739  0.04881  0.85221  1.0000
  H   H5391     1.0  0.89801  0.03245  0.50213  1.0000
  S   S688      1.0  0.91021  0.34578  0.94043  1.0000
  H   H5392     1.0  0.82048  0.37792  0.64446  1.0000
  H   H5393     1.0  0.81230  0.47288  0.57473  1.0000
  S   S689      1.0  0.92101  0.39470  0.94344  1.0000
  H   H5394     1.0  0.94929  0.02601  0.56033  1.0000
  Fe  Fe345     1.0  0.83489  0.47036  0.66320  1.0000
  S   S690      1.0  0.84897  0.45078  0.67443  1.0000
  H   H5395     1.0  0.80346  0.20107  0.49784  1.0000
  Fe  Fe346     1.0  0.80465  0.45438  0.70482  1.0000
  S   S691      1.0  0.81650  0.43335  0.71916  1.0000
  Fe  Fe347     1.0  0.84093  0.45512  0.71055  1.0000
  S   S692      1.0  0.85992  0.45744  0.73430  1.0000
  Fe  Fe348     1.0  0.82336  0.43085  0.68199  1.0000
  S   S693      1.0  0.82309  0.40713  0.66593  1.0000
  S   S694      1.0  0.82859  0.47610  0.69860  1.0000
  S   S695      1.0  0.80975  0.45043  0.66834  1.0000
  H   H5396     1.0  0.80250  0.31122  0.75282  1.0000
  H   H5397     1.0  0.95419  0.30047  0.49196  1.0000
  H   H5398     1.0  0.89381  0.06971  0.49699  1.0000
  C   C3031     1.0  0.95174  0.00411  0.93304  1.0000
  C   C3032     1.0  0.89486  0.18052  0.50164  1.0000
  H   H5399     1.0  0.97462  0.03835  0.69614  1.0000
  H   H5400     1.0  0.95260  0.32020  0.47411  1.0000
  C   C3033     1.0  0.97243  0.00397  0.96996  1.0000
  C   C3034     1.0  0.83012  0.48950  0.88965  1.0000
  C   C3035     1.0  0.86561  0.47415  0.74950  1.0000
  C   C3036     1.0  0.87775  0.47307  0.76324  1.0000
  H   H5401     1.0  0.88310  0.46195  0.76481  1.0000
  C   C3037     1.0  0.91426  0.46086  0.88383  1.0000
  C   C3038     1.0  0.92173  0.44810  0.89329  1.0000
  C   C3039     1.0  0.91282  0.43559  0.91373  1.0000
  C   C3040     1.0  0.89619  0.43543  0.92461  1.0000
  C   C3041     1.0  0.88869  0.44822  0.91516  1.0000
  C   C3042     1.0  0.89777  0.46103  0.89494  1.0000
  H   H5402     1.0  0.93453  0.44799  0.88488  1.0000
  H   H5403     1.0  0.91892  0.42615  0.92099  1.0000
  H   H5404     1.0  0.87585  0.44823  0.92351  1.0000
  H   H5405     1.0  0.89192  0.47086  0.88778  1.0000
  C   C3043     1.0  0.80898  0.38580  0.67471  1.0000
  H   H5406     1.0  0.92378  0.00421  0.88217  1.0000
  H   H5407     1.0  0.97769  0.17810  0.54339  1.0000
  S   S696      1.0  0.98548  0.00815  0.71863  1.0000
  C   C3044     1.0  0.91604  0.19812  0.51891  1.0000
  C   C3045     1.0  0.81059  0.37395  0.66039  1.0000
  H   H5408     1.0  0.98108  0.23110  0.80645  1.0000
  C   C3046     1.0  0.86926  0.31998  0.90439  1.0000
  C   C3047     1.0  0.88567  0.31716  0.90068  1.0000
  C   C3048     1.0  0.89800  0.32506  0.91194  1.0000
  C   C3049     1.0  0.89405  0.33571  0.92721  1.0000
  C   C3050     1.0  0.87751  0.33817  0.93134  1.0000
  C   C3051     1.0  0.86528  0.33052  0.91979  1.0000
  H   H5409     1.0  0.88894  0.30911  0.88887  1.0000
  H   H5410     1.0  0.91071  0.32295  0.90875  1.0000
  H   H5411     1.0  0.87416  0.34592  0.94347  1.0000
  H   H5412     1.0  0.85259  0.33268  0.92292  1.0000
  H   H5413     1.0  0.83664  0.27038  0.65911  1.0000
  C   C3052     1.0  0.94107  0.07391  0.93800  1.0000
  H   H5414     1.0  0.91061  0.45764  0.68047  1.0000
  C   C3053     1.0  0.84431  0.45314  0.58851  1.0000
  C   C3054     1.0  0.81067  0.27586  0.78622  1.0000
  C   C3055     1.0  0.97361  0.99829  0.70037  1.0000
  H   H5415     1.0  0.98055  0.49040  0.86295  1.0000
  H   H5416     1.0  0.96616  0.05886  0.64071  1.0000
  C   C3056     1.0  0.81981  0.26472  0.75227  1.0000
  C   C3057     1.0  0.82231  0.26874  0.77358  1.0000
  C   C3058     1.0  0.79906  0.25661  0.93783  1.0000
  H   H5417     1.0  0.92802  0.22494  0.53890  1.0000
  H   H5418     1.0  0.83325  0.26643  0.78016  1.0000
  C   C3059     1.0  0.91123  0.26888  0.81582  1.0000
  C   C3060     1.0  0.91683  0.27916  0.83082  1.0000
  C   C3061     1.0  0.93421  0.28298  0.83215  1.0000
  C   C3062     1.0  0.94612  0.27675  0.81830  1.0000
  C   C3063     1.0  0.94054  0.26650  0.80327  1.0000
  C   C3064     1.0  0.92313  0.26249  0.80217  1.0000
  H   H5419     1.0  0.90774  0.28407  0.84147  1.0000
  H   H5420     1.0  0.93841  0.29079  0.84399  1.0000
  H   H5421     1.0  0.94954  0.26135  0.79293  1.0000
  H   H5422     1.0  0.91880  0.25434  0.79078  1.0000
  C   C3065     1.0  0.80404  0.25475  0.55962  1.0000
  C   C3066     1.0  0.81189  0.27254  0.55115  1.0000
  C   C3067     1.0  0.81001  0.28422  0.56564  1.0000
  C   C3068     1.0  0.80054  0.27825  0.58884  1.0000
  C   C3069     1.0  0.88838  0.49443  0.57144  1.0000
  H   H5423     1.0  0.91217  0.21002  0.51231  1.0000
  H   H5424     1.0  0.81933  0.27733  0.53339  1.0000
  H   H5425     1.0  0.81598  0.29798  0.55891  1.0000
  H   H5426     1.0  0.95778  0.07326  0.90646  1.0000
  H   H5427     1.0  0.90249  0.04827  0.47558  1.0000
  C   C3070     1.0  0.92441  0.26795  0.52746  1.0000
  C   C3071     1.0  0.92852  0.25708  0.51286  1.0000
  C   C3072     1.0  0.91682  0.25034  0.50002  1.0000
  C   C3073     1.0  0.90086  0.25431  0.50157  1.0000
  C   C3074     1.0  0.89674  0.26525  0.51610  1.0000
  C   C3075     1.0  0.90850  0.27210  0.52885  1.0000
  H   H5428     1.0  0.94083  0.25406  0.51124  1.0000
  H   H5429     1.0  0.97163  0.46511  0.50410  1.0000
  H   H5430     1.0  0.88457  0.26853  0.51733  1.0000
  H   H5431     1.0  0.90530  0.28070  0.53985  1.0000
  C   C3076     1.0  0.93789  0.04917  0.91997  1.0000
  C   C3077     1.0  0.92299  0.04011  0.93710  1.0000
  C   C3078     1.0  0.91711  0.04798  0.95477  1.0000
  H   H5432     1.0  0.94251  0.04316  0.90626  1.0000
  C   C3079     1.0  0.95346  0.30669  0.47418  1.0000
  H   H5433     1.0  0.95560  0.31407  0.89691  1.0000
  H   H5434     1.0  0.89178  0.01188  0.86773  1.0000
  H   H5435     1.0  0.80337  0.19076  0.93114  1.0000
  C   C3080     1.0  0.94849  0.02362  0.63048  1.0000
  H   H5436     1.0  0.95773  0.46238  0.48411  1.0000
  H   H5437     1.0  0.93130  0.17112  0.51513  1.0000
  H   H5438     1.0  0.90555  0.04113  0.96798  1.0000
  H   H5439     1.0  0.97725  0.01448  0.95390  1.0000
  H   H5440     1.0  0.85308  0.41629  0.62213  1.0000
  C   C3081     1.0  0.79637  0.38034  0.69548  1.0000
  C   C3082     1.0  0.79815  0.32031  0.74086  1.0000
  H   H5441     1.0  0.80014  0.24078  0.83071  1.0000
  H   H5442     1.0  0.81071  0.45690  0.60077  1.0000
  H   H5443     1.0  0.95836  0.04067  0.86779  1.0000
  Fe  Fe349     1.0  0.86104  0.25101  0.48078  1.0000
  S   S697      1.0  0.98641  0.03050  0.54774  1.0000
  H   H5444     1.0  0.86510  0.38281  0.68239  1.0000
  C   C3083     1.0  0.98239  0.99643  0.67895  1.0000
  C   C3084     1.0  0.96943  0.18170  0.48916  1.0000
  H   H5445     1.0  0.89386  0.17505  0.48597  1.0000
  H   H5446     1.0  0.88245  0.19791  0.51865  1.0000
  C   C3085     1.0  0.97154  0.17393  0.51088  1.0000
  C   C3086     1.0  0.86502  0.45155  0.55478  1.0000
  H   H5447     1.0  0.96369  0.29566  0.90627  1.0000
  C   C3087     1.0  0.95339  0.06822  0.53431  1.0000
  C   C3088     1.0  0.97122  0.07353  0.52587  1.0000
  C   C3089     1.0  0.88317  0.48630  0.77488  1.0000
  C   C3090     1.0  0.97332  0.04462  0.54259  1.0000
  C   C3091     1.0  0.95545  0.03922  0.55076  1.0000
  C   C3092     1.0  0.94552  0.05109  0.54697  1.0000
  C   C3093     1.0  0.79309  0.19270  0.51273  1.0000
  H   H5448     1.0  0.84685  0.30472  0.78297  1.0000
  C   C3094     1.0  0.94671  0.06611  0.92019  1.0000
  H   H5449     1.0  0.87307  0.47781  0.63007  1.0000
  H   H5450     1.0  0.81545  0.39719  0.57789  1.0000
  H   H5451     1.0  0.89291  0.20750  0.48879  1.0000
  H   H5452     1.0  0.97303  0.07127  0.86725  1.0000
  H   H5453     1.0  0.85101  0.41463  0.57724  1.0000
  H   H5454     1.0  0.96581  0.00726  0.92600  1.0000
  H   H5455     1.0  0.85074  0.48355  0.90552  1.0000
  C   C3095     1.0  0.98455  0.05024  0.91726  1.0000
  H   H5456     1.0  0.94799  0.01641  0.93344  1.0000
  C   C3096     1.0  0.88745  0.48559  0.59425  1.0000
  C   C3097     1.0  0.98234  0.25518  0.87385  1.0000
  H   H5457     1.0  0.86041  0.49318  0.82466  1.0000
  C   C3098     1.0  0.97252  0.19994  0.48315  1.0000
  H   H5458     1.0  0.92001  0.15491  0.48703  1.0000
  C   C3099     1.0  0.97149  0.21155  0.78880  1.0000
  C   C3100     1.0  0.87406  0.43071  0.63325  1.0000
  H   H5459     1.0  0.82883  0.25917  0.74263  1.0000
  H   H5460     1.0  0.84939  0.48962  0.73737  1.0000
  H   H5461     1.0  0.87217  0.46488  0.55531  1.0000
  H   H5462     1.0  0.80331  0.24914  0.92508  1.0000
  H   H5463     1.0  0.94683  0.01415  0.47885  1.0000
  N   N170      1.0  0.85463  0.44167  0.57887  1.0000
  H   H5464     1.0  0.93717  0.09892  0.85028  1.0000
  S   S698      1.0  0.90474  0.49329  0.54863  1.0000
  Fe  Fe350     1.0  0.96965  0.00682  0.80606  1.0000
  H   H5465     1.0  0.91803  0.00306  0.85476  1.0000
  C   C3101     1.0  0.89563  0.47589  0.67102  1.0000
  H   H5466     1.0  0.79652  0.19489  0.52930  1.0000
  Fe  Fe351     1.0  0.97613  0.10878  0.91010  1.0000
  H   H5467     1.0  0.81409  0.26257  0.66040  1.0000
  C   C3102     1.0  0.96382  0.30576  0.89096  1.0000
  C   C3103     1.0  0.89996  0.48688  0.68893  1.0000
  C   C3104     1.0  0.97051  0.04210  0.83225  1.0000
  C   C3105     1.0  0.81976  0.46741  0.58652  1.0000
  H   H5468     1.0  0.86156  0.20031  0.49437  1.0000
  C   C3106     1.0  0.81829  0.39779  0.59522  1.0000
  H   H5469     1.0  0.82750  0.37123  0.71033  1.0000
  C   C3107     1.0  0.96864  0.22166  0.80776  1.0000
  H   H5470     1.0  0.92779  0.00075  0.49953  1.0000
  H   H5471     1.0  0.93112  0.13978  0.51799  1.0000
  H   H5472     1.0  0.90435  0.07514  0.51965  1.0000
  H   H5473     1.0  0.98326  0.06032  0.67907  1.0000
  H   H5474     1.0  0.96868  0.02777  0.66173  1.0000
  H   H5475     1.0  0.81753  0.49208  0.89579  1.0000
  C   C3108     1.0  0.91464  0.05757  0.50129  1.0000
  S   S699      1.0  0.80346  0.26326  0.71603  1.0000
  H   H5476     1.0  0.81698  0.42413  0.59310  1.0000
  Fe  Fe352     1.0  0.98401  0.26205  0.58655  1.0000
  S   S700      1.0  0.97620  0.12403  0.87479  1.0000
  C   C3109     1.0  0.85433  0.37745  0.94104  1.0000
  C   C3110     1.0  0.81327  0.22433  0.81432  1.0000
  H   H5477     1.0  0.92405  0.21889  0.47442  1.0000
  C   C3111     1.0  0.79410  0.24880  0.58259  1.0000
  H   H5478     1.0  0.96923  0.15994  0.51582  1.0000
  H   H5479     1.0  0.98501  0.33123  0.74432  1.0000
  H   H5480     1.0  0.91299  0.48621  0.69092  1.0000
  H   H5481     1.0  0.91062  0.16502  0.53437  1.0000
  H   H5482     1.0  0.82615  0.47794  0.59415  1.0000
  H   H5483     1.0  0.87656  0.45365  0.50718  1.0000
  H   H5484     1.0  0.95509  0.02673  0.96617  1.0000
  N   N171      1.0  0.92220  0.03458  0.47872  1.0000
  S   S701      1.0  0.95940  0.41689  0.96553  1.0000
  H   H5485     1.0  0.84290  0.47367  0.80515  1.0000
  H   H5486     1.0  0.82716  0.24742  0.66182  1.0000
  S   S702      1.0  0.98438  0.21466  0.54161  1.0000
  S   S703      1.0  0.93952  0.11829  0.47511  1.0000
  S   S704      1.0  0.95879  0.02088  0.83246  1.0000
  H   H5487     1.0  0.98564  0.02767  0.59778  1.0000
  H   H5488     1.0  0.92924  0.20567  0.55832  1.0000
  S   S705      1.0  0.88436  0.41908  0.94948  1.0000
  S   S706      1.0  0.88699  0.24585  0.48421  1.0000
  C   C3112     1.0  0.88646  0.45313  0.51756  1.0000
  C   C3113     1.0  0.82701  0.26083  0.65372  1.0000
  H   H5489     1.0  0.87217  0.42941  0.54249  1.0000
  H   H5490     1.0  0.84374  0.36310  0.48076  1.0000
  C   C3114     1.0  0.94895  0.00970  0.51445  1.0000
  H   H5491     1.0  0.83267  0.45879  0.83313  1.0000
  H   H5492     1.0  0.90749  0.19239  0.53660  1.0000
  Fe  Fe353     1.0  0.97931  0.99917  0.75815  1.0000
  C   C3115     1.0  0.96693  0.30939  0.73824  1.0000
  H   H5493     1.0  0.79341  0.23530  0.89088  1.0000
  H   H5494     1.0  0.97915  0.26192  0.88800  1.0000
  S   S707      1.0  0.81669  0.25846  0.47404  1.0000
  N   N172      1.0  0.94663  0.28575  0.72459  1.0000
  C   C3116     1.0  0.93984  0.28258  0.70349  1.0000
  C   C3117     1.0  0.93181  0.28555  0.74373  1.0000
  C   C3118     1.0  0.95994  0.30306  0.71794  1.0000
  C   C3119     1.0  0.95494  0.27176  0.73334  1.0000
  C   C3120     1.0  0.94423  0.25269  0.73684  1.0000
  C   C3121     1.0  0.95315  0.28085  0.68266  1.0000
  C   C3122     1.0  0.97031  0.23203  0.85341  1.0000
  C   C3123     1.0  0.92291  0.30046  0.73920  1.0000
  C   C3124     1.0  0.90853  0.29902  0.76018  1.0000
  C   C3125     1.0  0.95360  0.23979  0.74676  1.0000
  C   C3126     1.0  0.94451  0.27553  0.66351  1.0000
  H   H5495     1.0  0.97401  0.24238  0.83707  1.0000
  H   H5496     1.0  0.93465  0.29349  0.69651  1.0000
  H   H5497     1.0  0.92872  0.27082  0.70836  1.0000
  H   H5498     1.0  0.92156  0.27317  0.74741  1.0000
  H   H5499     1.0  0.93599  0.28577  0.76035  1.0000
  H   H5500     1.0  0.95499  0.31341  0.70872  1.0000
  H   H5501     1.0  0.97133  0.30254  0.70509  1.0000
  H   H5502     1.0  0.96765  0.27340  0.72162  1.0000
  H   H5503     1.0  0.95795  0.27309  0.75041  1.0000
  H   H5504     1.0  0.94190  0.24980  0.72009  1.0000
  H   H5505     1.0  0.93163  0.25010  0.74913  1.0000
  Fe  Fe354     1.0  0.97382  0.00243  0.56637  1.0000
  H   H5506     1.0  0.95997  0.27096  0.68794  1.0000
  H   H5507     1.0  0.89580  0.44674  0.50921  1.0000
  H   H5508     1.0  0.95653  0.31087  0.75176  1.0000
  H   H5509     1.0  0.93210  0.31341  0.73605  1.0000
  H   H5510     1.0  0.91703  0.29990  0.72397  1.0000
  H   H5511     1.0  0.91372  0.29983  0.77598  1.0000
  H   H5512     1.0  0.90234  0.30980  0.75670  1.0000
  H   H5513     1.0  0.89855  0.28647  0.76368  1.0000
  H   H5514     1.0  0.95524  0.24132  0.76433  1.0000
  H   H5515     1.0  0.94598  0.22627  0.74835  1.0000
  H   H5516     1.0  0.96642  0.24185  0.73512  1.0000
  H   H5517     1.0  0.93511  0.26256  0.67014  1.0000
  H   H5518     1.0  0.97705  0.22079  0.77161  1.0000
  H   H5519     1.0  0.85307  0.46463  0.59165  1.0000
  H   H5520     1.0  0.95823  0.29932  0.87811  1.0000
  H   H5521     1.0  0.95460  0.01272  0.63084  1.0000
  S   S708      1.0  0.79763  0.29981  0.66923  1.0000
  N   N173      1.0  0.83012  0.33507  0.71883  1.0000
  C   C3127     1.0  0.82812  0.31944  0.70802  1.0000
  C   C3128     1.0  0.81266  0.33716  0.72928  1.0000
  C   C3129     1.0  0.83911  0.35098  0.69943  1.0000
  C   C3130     1.0  0.84101  0.33423  0.73668  1.0000
  C   C3131     1.0  0.83656  0.31706  0.75548  1.0000
  C   C3132     1.0  0.84508  0.31653  0.69512  1.0000
  C   C3133     1.0  0.84042  0.36886  0.70609  1.0000
  H   H5522     1.0  0.89875  0.14858  0.50559  1.0000
  C   C3134     1.0  0.85420  0.35698  0.48370  1.0000
  C   C3135     1.0  0.85035  0.31714  0.76964  1.0000
  C   C3136     1.0  0.84210  0.29866  0.68920  1.0000
  C   C3137     1.0  0.85160  0.38373  0.68597  1.0000
  H   H5523     1.0  0.81981  0.32054  0.69528  1.0000
  H   H5524     1.0  0.82113  0.30722  0.72114  1.0000
  S   S709      1.0  0.79983  0.29342  0.60672  1.0000
  H   H5525     1.0  0.98091  0.10231  0.56777  1.0000
  H   H5526     1.0  0.83248  0.35106  0.68469  1.0000
  H   H5527     1.0  0.85249  0.35067  0.69214  1.0000
  H   H5528     1.0  0.85483  0.33707  0.72789  1.0000
  H   H5529     1.0  0.84039  0.34462  0.74645  1.0000
  H   H5530     1.0  0.83569  0.30551  0.74780  1.0000
  H   H5531     1.0  0.82432  0.31558  0.76797  1.0000
  H   H5532     1.0  0.85047  0.32644  0.67847  1.0000
  H   H5533     1.0  0.85481  0.31734  0.70585  1.0000
  H   H5534     1.0  0.84624  0.36959  0.72132  1.0000
  H   H5535     1.0  0.88309  0.41826  0.49278  1.0000
  H   H5536     1.0  0.79216  0.17889  0.51212  1.0000
  H   H5537     1.0  0.83583  0.44652  0.60586  1.0000
  N   N174      1.0  0.91341  0.18516  0.50369  1.0000
  H   H5538     1.0  0.88133  0.03450  0.93866  1.0000
  H   H5539     1.0  0.86303  0.31832  0.75826  1.0000
  H   H5540     1.0  0.85137  0.32800  0.77879  1.0000
  H   H5541     1.0  0.93901  0.19363  0.48174  1.0000
  H   H5542     1.0  0.85418  0.29740  0.67868  1.0000
  H   H5543     1.0  0.83812  0.28823  0.70540  1.0000
  H   H5544     1.0  0.83201  0.29682  0.67905  1.0000
  H   H5545     1.0  0.85143  0.39641  0.69059  1.0000
  C   C3138     1.0  0.86127  0.49349  0.60850  1.0000
  H   H5546     1.0  0.92207  0.02494  0.51507  1.0000
  N   N175      1.0  0.85370  0.26359  0.59112  1.0000
  C   C3139     1.0  0.84890  0.26213  0.61711  1.0000
  C   C3140     1.0  0.87203  0.26243  0.58364  1.0000
  C   C3141     1.0  0.85274  0.28135  0.57923  1.0000
  C   C3142     1.0  0.84139  0.25009  0.58347  1.0000
  C   C3143     1.0  0.83958  0.23085  0.59478  1.0000
  C   C3144     1.0  0.83061  0.26373  0.62718  1.0000
  C   C3145     1.0  0.85856  0.28619  0.55221  1.0000
  C   C3146     1.0  0.87904  0.25094  0.60126  1.0000
  C   C3147     1.0  0.89654  0.24894  0.58992  1.0000
  C   C3148     1.0  0.82555  0.21865  0.58728  1.0000
  H   H5547     1.0  0.89261  0.48531  0.78523  1.0000
  C   C3149     1.0  0.85949  0.30524  0.54247  1.0000
  H   H5548     1.0  0.85828  0.27235  0.62199  1.0000
  H   H5549     1.0  0.84988  0.24957  0.62699  1.0000
  H   H5550     1.0  0.87378  0.25792  0.56705  1.0000
  H   H5551     1.0  0.88126  0.27558  0.57963  1.0000
  H   H5552     1.0  0.86052  0.29164  0.58606  1.0000
  H   H5553     1.0  0.83934  0.28257  0.58319  1.0000
  H   H5554     1.0  0.82841  0.25241  0.58630  1.0000
  H   H5555     1.0  0.84527  0.25130  0.56436  1.0000
  H   H5556     1.0  0.83613  0.22825  0.61405  1.0000
  H   H5557     1.0  0.85174  0.22737  0.58897  1.0000
  H   H5558     1.0  0.82922  0.27691  0.62044  1.0000
  H   H5559     1.0  0.82053  0.25395  0.62293  1.0000
  H   H5560     1.0  0.84920  0.27814  0.54462  1.0000
  H   H5561     1.0  0.87141  0.28424  0.54597  1.0000
  H   H5562     1.0  0.88081  0.25715  0.61609  1.0000
  H   H5563     1.0  0.87026  0.23777  0.60842  1.0000
  H   H5564     1.0  0.89553  0.24249  0.57513  1.0000
  H   H5565     1.0  0.90606  0.26185  0.58343  1.0000
  H   H5566     1.0  0.90136  0.24084  0.60289  1.0000
  H   H5567     1.0  0.82464  0.20492  0.59533  1.0000
  H   H5568     1.0  0.81287  0.22123  0.59298  1.0000
  H   H5569     1.0  0.82854  0.22038  0.56803  1.0000
  Fe  Fe355     1.0  0.89823  0.40009  0.96458  1.0000
  H   H5570     1.0  0.78742  0.28420  0.78716  1.0000
  H   H5571     1.0  0.95439  0.27464  0.64874  1.0000
  H   H5572     1.0  0.84695  0.30804  0.54831  1.0000
  H   H5573     1.0  0.86961  0.31398  0.54820  1.0000
  H   H5574     1.0  0.86264  0.30801  0.52315  1.0000
  H   H5575     1.0  0.82641  0.45009  0.56503  1.0000
  H   H5576     1.0  0.91021  0.13401  0.53786  1.0000
  C   C3150     1.0  0.95969  0.03990  0.61196  1.0000
  H   H5577     1.0  0.84007  0.37309  0.94539  1.0000
  C   C3151     1.0  0.89728  0.45741  0.67883  1.0000
  C   C3152     1.0  0.97626  0.18427  0.52654  1.0000
  H   H5578     1.0  0.98065  0.20365  0.79213  1.0000
  H   H5579     1.0  0.85918  0.36755  0.95125  1.0000
  H   H5580     1.0  0.89358  0.46660  0.51726  1.0000
  H   H5581     1.0  0.88227  0.47472  0.66917  1.0000
  C   C3153     1.0  0.84350  0.42453  0.57714  1.0000
  H   H5582     1.0  0.82480  0.23515  0.80529  1.0000
  H   H5583     1.0  0.85652  0.33032  0.49252  1.0000
  H   H5584     1.0  0.89715  0.47893  0.59756  1.0000
  H   H5585     1.0  0.92174  0.07083  0.96912  1.0000
  H   H5586     1.0  0.95225  0.04980  0.61255  1.0000
  H   H5587     1.0  0.96015  0.03662  0.59464  1.0000
  H   H5588     1.0  0.89136  0.47992  0.70620  1.0000
  C   C3154     1.0  0.97875  0.20245  0.52087  1.0000
  H   H5589     1.0  0.92435  0.06875  0.48893  1.0000
  C   C3155     1.0  0.79423  0.27510  0.75591  1.0000
  C   C3156     1.0  0.97706  0.21026  0.49891  1.0000
  H   H5590     1.0  0.81139  0.21508  0.80278  1.0000
  C   C3157     1.0  0.91703  0.13701  0.51926  1.0000
  H   H5591     1.0  0.98135  0.32703  0.86517  1.0000
  C   C3158     1.0  0.94327  0.99559  0.91576  1.0000
  S   S710      1.0  0.98321  0.28691  0.56327  1.0000
  C   C3159     1.0  0.84649  0.33728  0.49019  1.0000
  C   C3160     1.0  0.91734  0.16883  0.51558  1.0000
  C   C3161     1.0  0.97570  0.06610  0.85197  1.0000
  H   H5592     1.0  0.94862  0.22116  0.54085  1.0000
  H   H5593     1.0  0.98214  0.22770  0.85450  1.0000
  H   H5594     1.0  0.90396  0.00947  0.48566  1.0000
  H   H5595     1.0  0.88095  0.44440  0.63221  1.0000
  C   C3162     1.0  0.87386  0.48496  0.61270  1.0000
  H   H5596     1.0  0.94613  0.02660  0.64792  1.0000
  C   C3163     1.0  0.79652  0.27877  0.77743  1.0000
  C   C3164     1.0  0.85977  0.43020  0.61993  1.0000
  C   C3165     1.0  0.84830  0.48392  0.83516  1.0000
  C   C3166     1.0  0.78878  0.22232  0.90194  1.0000
  Fe  Fe356     1.0  0.88795  0.00215  0.96101  1.0000
  N   N176      1.0  0.90423  0.04785  0.86723  1.0000
  C   C3167     1.0  0.89077  0.04496  0.85310  1.0000
  C   C3168     1.0  0.89627  0.04986  0.89113  1.0000
  C   C3169     1.0  0.91741  0.06479  0.85475  1.0000
  C   C3170     1.0  0.91343  0.03360  0.86910  1.0000
  C   C3171     1.0  0.90208  0.01459  0.87728  1.0000
  C   C3172     1.0  0.89723  0.04296  0.82798  1.0000
  C   C3173     1.0  0.93134  0.07150  0.86784  1.0000
  C   C3174     1.0  0.87775  0.03849  0.90302  1.0000
  C   C3175     1.0  0.87278  0.03966  0.92844  1.0000
  H   H5597     1.0  0.83650  0.33355  0.50670  1.0000
  C   C3176     1.0  0.88222  0.03780  0.81651  1.0000
  C   C3177     1.0  0.94394  0.08857  0.85351  1.0000
  H   H5598     1.0  0.88460  0.05596  0.85181  1.0000
  H   H5599     1.0  0.88010  0.03325  0.86192  1.0000
  H   H5600     1.0  0.90468  0.04758  0.90335  1.0000
  H   H5601     1.0  0.89547  0.06353  0.89038  1.0000
  H   H5602     1.0  0.91093  0.07535  0.85073  1.0000
  H   H5603     1.0  0.92454  0.06363  0.83770  1.0000
  H   H5604     1.0  0.92240  0.03479  0.85219  1.0000
  H   H5605     1.0  0.92193  0.03513  0.88154  1.0000
  H   H5606     1.0  0.88499  0.29948  0.49283  1.0000
  H   H5607     1.0  0.89627  0.01169  0.89618  1.0000
  H   H5608     1.0  0.90582  0.05543  0.81691  1.0000
  H   H5609     1.0  0.90433  0.03278  0.82791  1.0000
  H   H5610     1.0  0.93889  0.06195  0.87115  1.0000
  H   H5611     1.0  0.92556  0.07395  0.88476  1.0000
  H   H5612     1.0  0.86839  0.04319  0.89393  1.0000
  H   H5613     1.0  0.87618  0.02463  0.90275  1.0000
  H   H5614     1.0  0.80068  0.34810  0.65509  1.0000
  H   H5615     1.0  0.87364  0.05335  0.92966  1.0000
  H   H5616     1.0  0.85935  0.03176  0.93637  1.0000
  Fe  Fe357     1.0  0.90890  0.36667  0.96146  1.0000
  H   H5617     1.0  0.86282  0.41946  0.48526  1.0000
  H   H5618     1.0  0.92340  0.00524  0.63805  1.0000
  H   H5619     1.0  0.87481  0.04775  0.81575  1.0000
  H   H5620     1.0  0.88721  0.03679  0.79843  1.0000
  H   H5621     1.0  0.87352  0.02496  0.82632  1.0000
  H   H5622     1.0  0.93788  0.28530  0.65693  1.0000
  C   C3178     1.0  0.92551  0.19168  0.48000  1.0000
  C   C3179     1.0  0.79435  0.19728  0.92482  1.0000
  H   H5623     1.0  0.81562  0.21764  0.83086  1.0000
  H   H5624     1.0  0.96065  0.04947  0.68340  1.0000
  H   H5625     1.0  0.80605  0.39256  0.60870  1.0000
  C   C3180     1.0  0.96638  0.24135  0.87332  1.0000
  H   H5626     1.0  0.87491  0.43014  0.58726  1.0000
  H   H5627     1.0  0.82698  0.38941  0.59894  1.0000
  C   C3181     1.0  0.80053  0.21398  0.90993  1.0000
  N   N177      1.0  0.88909  0.38836  0.88244  1.0000
  C   C3182     1.0  0.88489  0.37122  0.87529  1.0000
  C   C3183     1.0  0.88109  0.38539  0.90805  1.0000
  C   C3184     1.0  0.88217  0.40118  0.86790  1.0000
  C   C3185     1.0  0.90827  0.39569  0.87862  1.0000
  C   C3186     1.0  0.91830  0.38284  0.88794  1.0000
  C   C3187     1.0  0.89305  0.37144  0.84977  1.0000
  C   C3188     1.0  0.88347  0.41892  0.87493  1.0000
  C   C3189     1.0  0.86111  0.37958  0.91496  1.0000
  C   C3190     1.0  0.83315  0.46029  0.57282  1.0000
  C   C3191     1.0  0.93740  0.39193  0.88395  1.0000
  C   C3192     1.0  0.88988  0.35295  0.84577  1.0000
  C   C3193     1.0  0.87651  0.43103  0.85874  1.0000
  H   H5628     1.0  0.87080  0.36629  0.87729  1.0000
  H   H5629     1.0  0.88842  0.36104  0.88713  1.0000
  H   H5630     1.0  0.88562  0.37524  0.91840  1.0000
  H   H5631     1.0  0.88551  0.39723  0.91468  1.0000
  H   H5632     1.0  0.86853  0.39536  0.86784  1.0000
  H   H5633     1.0  0.88919  0.40426  0.84934  1.0000
  H   H5634     1.0  0.91428  0.40129  0.85980  1.0000
  H   H5635     1.0  0.91103  0.40684  0.88716  1.0000
  H   H5636     1.0  0.91737  0.37182  0.87915  1.0000
  H   H5637     1.0  0.91322  0.37738  0.90682  1.0000
  H   H5638     1.0  0.88723  0.37899  0.83756  1.0000
  H   H5639     1.0  0.90713  0.37729  0.84519  1.0000
  H   H5640     1.0  0.89704  0.42565  0.87383  1.0000
  H   H5641     1.0  0.87601  0.41722  0.89293  1.0000
  H   H5642     1.0  0.85547  0.38925  0.90576  1.0000
  H   H5643     1.0  0.85614  0.36682  0.91090  1.0000
  C   C3194     1.0  0.85883  0.48863  0.74769  1.0000
  H   H5644     1.0  0.88334  0.42380  0.62610  1.0000
  H   H5645     1.0  0.98223  0.02216  0.62827  1.0000
  H   H5646     1.0  0.94407  0.38261  0.89172  1.0000
  H   H5647     1.0  0.94332  0.39655  0.86501  1.0000
  H   H5648     1.0  0.93922  0.40320  0.89233  1.0000
  H   H5649     1.0  0.89619  0.34506  0.85686  1.0000
  H   H5650     1.0  0.87588  0.34646  0.84997  1.0000
  H   H5651     1.0  0.89529  0.35336  0.82726  1.0000
  H   H5652     1.0  0.87765  0.44359  0.86420  1.0000
  H   H5653     1.0  0.88403  0.43380  0.84050  1.0000
  H   H5654     1.0  0.86275  0.42515  0.85956  1.0000
  C   C3195     1.0  0.87831  0.44305  0.54269  1.0000
  N   N178      1.0  0.95600  0.21714  0.85203  1.0000
  C   C3196     1.0  0.95036  0.20288  0.87406  1.0000
  C   C3197     1.0  0.94086  0.22369  0.84654  1.0000
  C   C3198     1.0  0.96267  0.20929  0.83234  1.0000
  C   C3199     1.0  0.88531  0.19515  0.50103  1.0000
  H   H5655     1.0  0.92628  0.29584  0.48126  1.0000
  C   C3200     1.0  0.96440  0.19455  0.88163  1.0000
  H   H5656     1.0  0.97475  0.03959  0.93021  1.0000
  C   C3201     1.0  0.92610  0.22271  0.86744  1.0000
  C   C3202     1.0  0.91329  0.23236  0.85980  1.0000
  C   C3203     1.0  0.80588  0.26808  0.74319  1.0000
  C   C3204     1.0  0.95725  0.18125  0.90490  1.0000
  C   C3205     1.0  0.98649  0.06218  0.59378  1.0000
  H   H5657     1.0  0.93987  0.19215  0.87217  1.0000
  H   H5658     1.0  0.94476  0.20758  0.88917  1.0000
  H   H5659     1.0  0.94534  0.23742  0.83620  1.0000
  H   H5660     1.0  0.93444  0.21617  0.83517  1.0000
  H   H5661     1.0  0.95273  0.19758  0.83167  1.0000
  H   H5662     1.0  0.95922  0.22906  0.80392  1.0000
  C   C3206     1.0  0.84449  0.46888  0.82300  1.0000
  C   C3207     1.0  0.97386  0.04770  0.68062  1.0000
  H   H5663     1.0  0.84145  0.47119  0.55841  1.0000
  S   S711      1.0  0.98390  0.26610  0.52017  1.0000
  H   H5664     1.0  0.96925  0.18745  0.86879  1.0000
  H   H5665     1.0  0.83968  0.42582  0.56010  1.0000
  H   H5666     1.0  0.88821  0.45080  0.69586  1.0000
  H   H5667     1.0  0.96216  0.23212  0.89057  1.0000
  H   H5668     1.0  0.91889  0.20891  0.87524  1.0000
  H   H5669     1.0  0.93097  0.22842  0.88122  1.0000
  H   H5670     1.0  0.90221  0.23028  0.87464  1.0000
  H   H5671     1.0  0.91954  0.24651  0.85413  1.0000
  H   H5672     1.0  0.90837  0.22768  0.84530  1.0000
  H   H5673     1.0  0.85542  0.46281  0.82143  1.0000
  H   H5674     1.0  0.96735  0.12283  0.95910  1.0000
  H   H5675     1.0  0.82827  0.41649  0.61382  1.0000
  H   H5676     1.0  0.95269  0.18758  0.91892  1.0000
  H   H5677     1.0  0.94650  0.17062  0.90356  1.0000
  H   H5678     1.0  0.96755  0.17539  0.90969  1.0000
  H   H5679     1.0  0.97741  0.08680  0.51631  1.0000
  C   C3208     1.0  0.82644  0.41654  0.59600  1.0000
  N   N179      1.0  0.97776  0.04710  0.61446  1.0000
  H   H5680     1.0  0.85640  0.45349  0.54272  1.0000
  C   C3209     1.0  0.79247  0.26048  0.59723  1.0000
  C   C3210     1.0  0.86726  0.43876  0.59374  1.0000
  H   H5681     1.0  0.97408  0.20464  0.83518  1.0000
  H   H5682     1.0  0.97215  0.08034  0.60563  1.0000
  H   H5683     1.0  0.95383  0.09290  0.86320  1.0000
  H   H5684     1.0  0.96570  0.07168  0.58183  1.0000
  H   H5685     1.0  0.85973  0.17771  0.50637  1.0000
  H   H5686     1.0  0.85083  0.43689  0.62833  1.0000
  S   S712      1.0  0.97586  0.12618  0.49331  1.0000
  H   H5687     1.0  0.96014  0.02107  0.51178  1.0000
  H   H5688     1.0  0.84663  0.38343  0.66993  1.0000
  H   H5689     1.0  0.93209  0.01492  0.60752  1.0000
  H   H5690     1.0  0.91299  0.12533  0.51222  1.0000
  C   C3211     1.0  0.79941  0.35701  0.66639  1.0000
  H   H5691     1.0  0.97332  0.30007  0.74659  1.0000
  H   H5692     1.0  0.95060  0.08679  0.83659  1.0000
  H   H5693     1.0  0.88687  0.17000  0.51683  1.0000
  H   H5694     1.0  0.85825  0.39001  0.94615  1.0000
  C   C3212     1.0  0.93114  0.02874  0.49762  1.0000
  H   H5695     1.0  0.85045  0.47855  0.85242  1.0000
  H   H5696     1.0  0.86017  0.39021  0.47676  1.0000
  C   C3213     1.0  0.98230  0.05265  0.81224  1.0000
  C   C3214     1.0  0.91267  0.15252  0.50526  1.0000
  C   C3215     1.0  0.93508  0.21478  0.54109  1.0000
  H   H5697     1.0  0.92028  0.05300  0.51595  1.0000
  H   H5698     1.0  0.96283  0.29351  0.67488  1.0000
  H   H5699     1.0  0.95631  0.24815  0.87050  1.0000
  H   H5700     1.0  0.95769  0.47934  0.49988  1.0000
  C   C3216     1.0  0.89963  0.06445  0.51115  1.0000
  C   C3217     1.0  0.93467  0.20489  0.52162  1.0000
  H   H5701     1.0  0.97530  0.20454  0.88384  1.0000
  H   H5702     1.0  0.94085  0.19429  0.52597  1.0000
  C   C3218     1.0  0.98116  0.06184  0.53046  1.0000
  H   H5703     1.0  0.98488  0.44719  0.96582  1.0000
  H   H5704     1.0  0.80751  0.34412  0.71556  1.0000
  C   C3219     1.0  0.83339  0.49288  0.83755  1.0000
  C   C3220     1.0  0.79904  0.49321  0.63994  1.0000
  H   H5705     1.0  0.79393  0.31368  0.72732  1.0000
  H   H5706     1.0  0.92033  0.24227  0.48849  1.0000
  H   H5707     1.0  0.97390  0.41996  0.91245  1.0000
  C   C3221     1.0  0.93849  0.01273  0.49613  1.0000
  H   H5708     1.0  0.98638  0.40469  0.90775  1.0000
  H   H5709     1.0  0.97433  0.33706  0.72145  1.0000
  H   H5710     1.0  0.85861  0.36088  0.49897  1.0000
  C   C3222     1.0  0.87690  0.42219  0.47839  1.0000
  C   C3223     1.0  0.98018  0.32706  0.72948  1.0000
  H   H5711     1.0  0.81374  0.34552  0.74212  1.0000
  H   H5712     1.0  0.79984  0.26990  0.92809  1.0000
  C   C3224     1.0  0.93082  0.01750  0.62524  1.0000
  H   H5713     1.0  0.95914  0.20283  0.78805  1.0000
  H   H5714     1.0  0.88430  0.32136  0.48085  1.0000
  H   H5715     1.0  0.79666  0.23917  0.80261  1.0000
  H   H5716     1.0  0.94080  0.00732  0.53224  1.0000
  C   C3225     1.0  0.91285  0.00173  0.87363  1.0000
  H   H5717     1.0  0.97781  0.05688  0.90553  1.0000
  C   C3226     1.0  0.97792  0.04060  0.65888  1.0000
  H   H5718     1.0  0.80800  0.25775  0.94973  1.0000
  H   H5719     1.0  0.80859  0.49434  0.62369  1.0000
  C   C3227     1.0  0.97757  0.05367  0.63662  1.0000
  H   H5720     1.0  0.78782  0.23508  0.58924  1.0000
  H   H5721     1.0  0.94783  0.00451  0.89822  1.0000
  H   H5722     1.0  0.95378  0.99804  0.51317  1.0000
  S   S713      1.0  0.98443  0.25604  0.62558  1.0000
  H   H5723     1.0  0.94883  0.99569  0.72187  1.0000
  H   H5724     1.0  0.91424  0.99581  0.80851  1.0000
  H   H5725     1.0  0.79547  0.38904  0.70710  1.0000
  H   H5726     1.0  0.87036  0.18752  0.47611  1.0000
  C   C3228     1.0  0.79762  0.23156  0.81927  1.0000
  H   H5727     1.0  0.90448  0.48176  0.65368  1.0000
  C   C3229     1.0  0.98213  0.31697  0.87984  1.0000
  S   S714      1.0  0.84352  0.49228  0.63087  1.0000
  C   C3230     1.0  0.86820  0.18975  0.49405  1.0000
  H   H5728     1.0  0.97920  0.22424  0.49413  1.0000
  Fe  Fe358     1.0  0.98404  0.24229  0.54619  1.0000
  H   H5729     1.0  0.98477  0.04764  0.79675  1.0000
  H   H5730     1.0  0.80605  0.49530  0.65390  1.0000
  H   H5731     1.0  0.98609  0.31682  0.83068  1.0000
  H   H5732     1.0  0.98628  0.04427  0.48922  1.0000
  H   H5733     1.0  0.98648  0.13526  0.96566  1.0000
  S   S715      1.0  0.84818  0.96789  0.38968  1.0000
  S   S716      1.0  0.96914  0.86731  0.44660  1.0000
  C   C3231     1.0  0.91212  0.86044  0.44693  1.0000
  H   H5734     1.0  0.81426  0.56065  0.40210  1.0000
  H   H5735     1.0  0.89555  0.59540  0.31864  1.0000
  H   H5736     1.0  0.84195  0.88945  0.98196  1.0000
  H   H5737     1.0  0.82605  0.51595  0.37502  1.0000
  H   H5738     1.0  0.89500  0.81933  0.02551  1.0000
  H   H5739     1.0  0.92693  0.89163  0.01771  1.0000
  S   S717      1.0  0.85070  0.96282  0.00052  1.0000
  H   H5740     1.0  0.80335  0.57133  0.43707  1.0000
  S   S718      1.0  0.88679  0.96339  0.03663  1.0000
  H   H5741     1.0  0.98363  0.69326  0.15328  1.0000
  C   C3232     1.0  0.89535  0.89826  0.01441  1.0000
  Fe  Fe359     1.0  0.86308  0.60997  0.31921  1.0000
  S   S719      1.0  0.85962  0.58357  0.31065  1.0000
  S   S720      1.0  0.88893  0.62935  0.30022  1.0000
  Fe  Fe360     1.0  0.82620  0.59932  0.34967  1.0000
  S   S721      1.0  0.82029  0.57232  0.34321  1.0000
  S   S722      1.0  0.80722  0.61151  0.36909  1.0000
  Fe  Fe361     1.0  0.84706  0.57306  0.34867  1.0000
  S   S723      1.0  0.85370  0.54942  0.36756  1.0000
  Fe  Fe362     1.0  0.83341  0.58493  0.30564  1.0000
  S   S724      1.0  0.82460  0.58219  0.27186  1.0000
  S   S725      1.0  0.85216  0.59925  0.35766  1.0000
  S   S726      1.0  0.83764  0.61210  0.31178  1.0000
  Fe  Fe363     1.0  0.84202  0.58331  0.00315  1.0000
  S   S727      1.0  0.83164  0.60641  0.00544  1.0000
  S   S728      1.0  0.83511  0.55931  0.03254  1.0000
  H   H5742     1.0  0.96544  0.70293  0.22602  1.0000
  S   S729      1.0  0.86962  0.59905  0.98988  1.0000
  H   H5743     1.0  0.80716  0.53921  0.46651  1.0000
  C   C3233     1.0  0.82238  0.62938  0.05059  1.0000
  H   H5744     1.0  0.92379  0.59471  0.38406  1.0000
  H   H5745     1.0  0.94927  0.98996  0.01427  1.0000
  H   H5746     1.0  0.84168  0.58843  0.41542  1.0000
  H   H5747     1.0  0.91096  0.66373  0.18159  1.0000
  Fe  Fe364     1.0  0.96109  0.71219  0.30921  1.0000
  S   S730      1.0  0.93658  0.69159  0.33025  1.0000
  S   S731      1.0  0.95871  0.73616  0.28589  1.0000
  Fe  Fe365     1.0  0.95395  0.73309  0.06714  1.0000
  S   S732      1.0  0.96229  0.71613  0.04331  1.0000
  S   S733      1.0  0.94515  0.75798  0.05804  1.0000
  Fe  Fe366     1.0  0.95306  0.70749  0.11188  1.0000
  S   S734      1.0  0.96058  0.68882  0.09112  1.0000
  S   S735      1.0  0.94916  0.69859  0.15161  1.0000
  Fe  Fe367     1.0  0.94206  0.69396  0.06892  1.0000
  S   S736      1.0  0.92777  0.66886  0.05976  1.0000
  S   S737      1.0  0.93277  0.71093  0.09176  1.0000
  H   H5748     1.0  0.79209  0.57496  0.39308  1.0000
  S   S738      1.0  0.92422  0.52358  0.44291  1.0000
  H   H5749     1.0  0.90438  0.94779  0.45015  1.0000
  C   C3234     1.0  0.97851  0.49922  0.34120  1.0000
  H   H5750     1.0  0.96765  0.54914  0.37392  1.0000
  C   C3235     1.0  0.86530  0.95130  0.33596  1.0000
  H   H5751     1.0  0.94592  0.50078  0.34708  1.0000
  H   H5752     1.0  0.97738  0.95134  0.06934  1.0000
  H   H5753     1.0  0.88409  0.99164  0.27441  1.0000
  H   H5754     1.0  0.88930  0.59478  0.37064  1.0000
  H   H5755     1.0  0.94705  0.98802  0.16898  1.0000
  C   C3236     1.0  0.96570  0.71004  0.20881  1.0000
  C   C3237     1.0  0.95856  0.70127  0.19302  1.0000
  C   C3238     1.0  0.95893  0.71026  0.17045  1.0000
  C   C3239     1.0  0.96686  0.72814  0.16368  1.0000
  H   H5756     1.0  0.97757  0.77158  0.02240  1.0000
  H   H5757     1.0  0.95283  0.68738  0.19823  1.0000
  C   C3240     1.0  0.91039  0.92901  0.97458  1.0000
  H   H5758     1.0  0.96555  0.91947  0.07430  1.0000
  C   C3241     1.0  0.81938  0.55670  0.05816  1.0000
  C   C3242     1.0  0.80940  0.56850  0.06043  1.0000
  C   C3243     1.0  0.79707  0.56606  0.08117  1.0000
  H   H5759     1.0  0.84165  0.90904  0.05968  1.0000
  C   C3244     1.0  0.81692  0.54244  0.07675  1.0000
  H   H5760     1.0  0.81109  0.57945  0.04621  1.0000
  C   C3245     1.0  0.91508  0.82653  0.99353  1.0000
  C   C3246     1.0  0.94826  0.79273  0.04145  1.0000
  C   C3247     1.0  0.88566  0.65244  0.01952  1.0000
  C   C3248     1.0  0.88788  0.66834  0.02662  1.0000
  C   C3249     1.0  0.90089  0.67380  0.03841  1.0000
  C   C3250     1.0  0.91178  0.66329  0.04361  1.0000
  C   C3251     1.0  0.90950  0.64734  0.03659  1.0000
  C   C3252     1.0  0.89673  0.64206  0.02438  1.0000
  H   H5761     1.0  0.90236  0.68604  0.04373  1.0000
  H   H5762     1.0  0.91785  0.63911  0.04041  1.0000
  H   H5763     1.0  0.89552  0.63003  0.01859  1.0000
  C   C3253     1.0  0.86445  0.54953  0.39065  1.0000
  C   C3254     1.0  0.86662  0.56342  0.40171  1.0000
  C   C3255     1.0  0.87365  0.56237  0.42151  1.0000
  C   C3256     1.0  0.87913  0.54770  0.42995  1.0000
  C   C3257     1.0  0.87753  0.53405  0.41843  1.0000
  C   C3258     1.0  0.87002  0.53489  0.39900  1.0000
  H   H5764     1.0  0.86223  0.57464  0.39555  1.0000
  H   H5765     1.0  0.87458  0.57280  0.43064  1.0000
  H   H5766     1.0  0.88162  0.52264  0.42487  1.0000
  H   H5767     1.0  0.86838  0.52407  0.39055  1.0000
  H   H5768     1.0  0.88432  0.60458  0.41722  1.0000
  H   H5769     1.0  0.95006  0.82000  0.02862  1.0000
  H   H5770     1.0  0.93558  0.98041  0.07185  1.0000
  C   C3259     1.0  0.97143  0.81255  0.01061  1.0000
  S   S739      1.0  0.96555  0.89726  0.04178  1.0000
  C   C3260     1.0  0.81446  0.56341  0.26274  1.0000
  C   C3261     1.0  0.80871  0.56570  0.24188  1.0000
  S   S740      1.0  0.97357  0.73039  0.08887  1.0000
  S   S741      1.0  0.86873  0.64614  0.00510  1.0000
  C   C3262     1.0  0.98099  0.80774  0.32482  1.0000
  C   C3263     1.0  0.81225  0.54644  0.27534  1.0000
  H   H5771     1.0  0.81021  0.57874  0.23206  1.0000
  C   C3264     1.0  0.96969  0.51669  0.36829  1.0000
  H   H5772     1.0  0.81661  0.54442  0.29137  1.0000
  C   C3265     1.0  0.90191  0.64651  0.30913  1.0000
  C   C3266     1.0  0.91887  0.65424  0.29615  1.0000
  C   C3267     1.0  0.92948  0.66840  0.30188  1.0000
  C   C3268     1.0  0.92338  0.67468  0.32113  1.0000
  C   C3269     1.0  0.90649  0.66679  0.33431  1.0000
  C   C3270     1.0  0.89575  0.65288  0.32826  1.0000
  H   H5773     1.0  0.92384  0.64924  0.28153  1.0000
  H   H5774     1.0  0.94251  0.67418  0.29175  1.0000
  H   H5775     1.0  0.90167  0.67153  0.34929  1.0000
  H   H5776     1.0  0.88271  0.64713  0.33835  1.0000
  H   H5777     1.0  0.92903  0.98677  0.27048  1.0000
  H   H5778     1.0  0.79590  0.56912  0.01319  1.0000
  H   H5779     1.0  0.94894  0.54276  0.39760  1.0000
  H   H5780     1.0  0.91560  0.74451  0.01244  1.0000
  H   H5781     1.0  0.97441  0.50641  0.32644  1.0000
  S   S742      1.0  0.79474  0.51668  0.16949  1.0000
  C   C3271     1.0  0.85261  0.92962  0.43993  1.0000
  H   H5782     1.0  0.95991  0.94647  0.44122  1.0000
  H   H5783     1.0  0.78938  0.57523  0.08286  1.0000
  H   H5784     1.0  0.81050  0.98819  0.10178  1.0000
  C   C3272     1.0  0.80451  0.53991  0.09744  1.0000
  H   H5785     1.0  0.80771  0.51208  0.42468  1.0000
  H   H5786     1.0  0.94795  0.51141  0.39913  1.0000
  H   H5787     1.0  0.79562  0.59579  0.01578  1.0000
  C   C3273     1.0  0.81295  0.52594  0.41513  1.0000
  H   H5788     1.0  0.84818  0.91557  0.44508  1.0000
  C   C3274     1.0  0.83408  0.97954  0.30913  1.0000
  C   C3275     1.0  0.91490  0.95417  0.45762  1.0000
  H   H5789     1.0  0.93624  0.79045  0.05395  1.0000
  C   C3276     1.0  0.91708  0.80727  0.43701  1.0000
  N   N180      1.0  0.91064  0.61448  0.37478  1.0000
  Fe  Fe368     1.0  0.96512  0.88721  0.00910  1.0000
  H   H5790     1.0  0.92469  0.63168  0.34146  1.0000
  H   H5791     1.0  0.82096  0.56741  0.44933  1.0000
  H   H5792     1.0  0.96387  0.79823  0.41820  1.0000
  H   H5793     1.0  0.93684  0.75804  0.00958  1.0000
  C   C3277     1.0  0.94713  0.86386  0.44660  1.0000
  C   C3278     1.0  0.94133  0.86324  0.42613  1.0000
  C   C3279     1.0  0.92385  0.86137  0.42633  1.0000
  H   H5794     1.0  0.92661  0.81463  0.44515  1.0000
  H   H5795     1.0  0.95032  0.86460  0.41002  1.0000
  H   H5796     1.0  0.91948  0.86107  0.41037  1.0000
  C   C3280     1.0  0.85353  0.95699  0.41426  1.0000
  C   C3281     1.0  0.86404  0.96611  0.42644  1.0000
  C   C3282     1.0  0.86891  0.95697  0.44521  1.0000
  H   H5797     1.0  0.86854  0.98015  0.42122  1.0000
  N   N181      1.0  0.87021  0.62435  0.22926  1.0000
  C   C3283     1.0  0.86271  0.60910  0.21957  1.0000
  C   C3284     1.0  0.87966  0.61860  0.24748  1.0000
  C   C3285     1.0  0.85539  0.63036  0.24106  1.0000
  C   C3286     1.0  0.88174  0.63954  0.21042  1.0000
  C   C3287     1.0  0.89731  0.63616  0.19486  1.0000
  C   C3288     1.0  0.85102  0.61237  0.20247  1.0000
  C   C3289     1.0  0.85991  0.64406  0.25576  1.0000
  C   C3290     1.0  0.88945  0.60461  0.24334  1.0000
  C   C3291     1.0  0.90183  0.60334  0.25945  1.0000
  C   C3292     1.0  0.90642  0.65200  0.17484  1.0000
  C   C3293     1.0  0.84627  0.59680  0.19148  1.0000
  C   C3294     1.0  0.84423  0.65035  0.26469  1.0000
  H   H5798     1.0  0.85489  0.59801  0.23418  1.0000
  H   H5799     1.0  0.87289  0.60404  0.21055  1.0000
  H   H5800     1.0  0.88876  0.63007  0.25029  1.0000
  H   H5801     1.0  0.87046  0.61268  0.26470  1.0000
  H   H5802     1.0  0.84536  0.61899  0.25292  1.0000
  H   H5803     1.0  0.84896  0.63614  0.22798  1.0000
  H   H5804     1.0  0.87414  0.64518  0.19894  1.0000
  H   H5805     1.0  0.88739  0.65031  0.21819  1.0000
  H   H5806     1.0  0.89344  0.62492  0.18700  1.0000
  H   H5807     1.0  0.90688  0.63395  0.20521  1.0000
  H   H5808     1.0  0.83881  0.61420  0.21185  1.0000
  H   H5809     1.0  0.85747  0.62398  0.18813  1.0000
  H   H5810     1.0  0.87013  0.65572  0.24555  1.0000
  H   H5811     1.0  0.86432  0.63841  0.27112  1.0000
  H   H5812     1.0  0.88007  0.59164  0.24704  1.0000
  H   H5813     1.0  0.89696  0.60719  0.22527  1.0000
  H   H5814     1.0  0.89468  0.59968  0.27791  1.0000
  H   H5815     1.0  0.90852  0.59319  0.25621  1.0000
  H   H5816     1.0  0.91161  0.61596  0.25635  1.0000
  H   H5817     1.0  0.95191  0.83196  0.41091  1.0000
  H   H5818     1.0  0.91782  0.64947  0.16426  1.0000
  H   H5819     1.0  0.89770  0.65471  0.16325  1.0000
  H   H5820     1.0  0.84001  0.58470  0.20519  1.0000
  H   H5821     1.0  0.83713  0.59903  0.18037  1.0000
  H   H5822     1.0  0.85790  0.59503  0.18048  1.0000
  H   H5823     1.0  0.84047  0.65786  0.24996  1.0000
  H   H5824     1.0  0.83315  0.63918  0.27428  1.0000
  H   H5825     1.0  0.84734  0.65889  0.27678  1.0000
  H   H5826     1.0  0.84022  0.86677  0.99314  1.0000
  C   C3295     1.0  0.80087  0.55128  0.23368  1.0000
  H   H5827     1.0  0.86732  0.91180  0.98383  1.0000
  S   S743      1.0  0.95233  0.99386  0.30569  1.0000
  H   H5828     1.0  0.90017  0.90510  0.04708  1.0000
  C   C3296     1.0  0.95596  0.77893  0.04000  1.0000
  H   H5829     1.0  0.93713  0.61984  0.35586  1.0000
  Fe  Fe369     1.0  0.85000  0.99037  0.98615  1.0000
  C   C3297     1.0  0.89458  0.98502  0.27215  1.0000
  C   C3298     1.0  0.90724  0.82943  0.01719  1.0000
  H   H5830     1.0  0.90705  0.79873  0.00479  1.0000
  H   H5831     1.0  0.89933  0.82314  0.44456  1.0000
  H   H5832     1.0  0.92771  0.89728  0.04532  1.0000
  H   H5833     1.0  0.91486  0.95967  0.05779  1.0000
  H   H5834     1.0  0.92024  0.92342  0.98125  1.0000
  C   C3299     1.0  0.95638  0.99121  0.23888  1.0000
  H   H5835     1.0  0.98129  0.97324  0.23001  1.0000
  C   C3300     1.0  0.92328  0.94073  0.46870  1.0000
  H   H5836     1.0  0.91137  0.93367  0.35354  1.0000
  N   N182      1.0  0.89935  0.94898  0.37429  1.0000
  S   S744      1.0  0.98014  0.86186  0.38144  1.0000
  H   H5837     1.0  0.80380  0.52990  0.99133  1.0000
  H   H5838     1.0  0.78951  0.76595  0.46792  1.0000
  C   C3301     1.0  0.89951  0.80923  0.44811  1.0000
  H   H5839     1.0  0.79333  0.52640  0.39403  1.0000
  H   H5840     1.0  0.95835  0.99157  0.25673  1.0000
  C   C3302     1.0  0.80442  0.53202  0.26713  1.0000
  C   C3303     1.0  0.91841  0.99234  0.39210  1.0000
  H   H5841     1.0  0.79090  0.62269  0.02590  1.0000
  H   H5842     1.0  0.88160  0.93155  0.36050  1.0000
  H   H5843     1.0  0.94462  0.52264  0.37240  1.0000
  S   S745      1.0  0.89042  0.85869  0.44649  1.0000
  C   C3304     1.0  0.91414  0.94699  0.35683  1.0000
  H   H5844     1.0  0.85415  0.95039  0.35019  1.0000
  H   H5845     1.0  0.97586  0.65865  0.12039  1.0000
  H   H5846     1.0  0.87704  0.91360  0.39558  1.0000
  H   H5847     1.0  0.83965  0.93169  0.41164  1.0000
  C   C3305     1.0  0.84779  0.93876  0.42108  1.0000
  H   H5848     1.0  0.80499  0.50127  0.38829  1.0000
  C   C3306     1.0  0.86324  0.93875  0.45193  1.0000
  H   H5849     1.0  0.97393  0.81239  0.31250  1.0000
  N   N183      1.0  0.93786  0.81196  0.39671  1.0000
  C   C3307     1.0  0.93538  0.79272  0.39803  1.0000
  C   C3308     1.0  0.92173  0.81479  0.41039  1.0000
  C   C3309     1.0  0.94011  0.82080  0.37145  1.0000
  C   C3310     1.0  0.95350  0.81998  0.40508  1.0000
  C   C3311     1.0  0.81836  0.55638  0.41841  1.0000
  C   C3312     1.0  0.94947  0.78792  0.38129  1.0000
  C   C3313     1.0  0.93967  0.84019  0.36663  1.0000
  H   H5850     1.0  0.92250  0.60409  0.33218  1.0000
  C   C3314     1.0  0.94867  0.76858  0.38790  1.0000
  C   C3315     1.0  0.94838  0.84967  0.34142  1.0000
  H   H5851     1.0  0.92287  0.78707  0.39390  1.0000
  H   H5852     1.0  0.93438  0.78550  0.41598  1.0000
  C   C3316     1.0  0.88219  0.95740  0.34323  1.0000
  H   H5853     1.0  0.91051  0.80952  0.40321  1.0000
  H   H5854     1.0  0.92998  0.81372  0.36380  1.0000
  H   H5855     1.0  0.95256  0.82021  0.36094  1.0000
  H   H5856     1.0  0.96518  0.82438  0.39051  1.0000
  C   C3317     1.0  0.88325  0.94446  0.36512  1.0000
  H   H5857     1.0  0.91597  0.98432  0.32024  1.0000
  H   H5858     1.0  0.94765  0.79074  0.36318  1.0000
  H   H5859     1.0  0.96251  0.79553  0.38126  1.0000
  H   H5860     1.0  0.94610  0.84728  0.37817  1.0000
  H   H5861     1.0  0.92611  0.84099  0.36983  1.0000
  H   H5862     1.0  0.91658  0.79325  0.44138  1.0000
  H   H5863     1.0  0.98268  0.83150  0.05645  1.0000
  H   H5864     1.0  0.84938  0.91355  0.01637  1.0000
  H   H5865     1.0  0.83128  0.98225  0.07112  1.0000
  H   H5866     1.0  0.95148  0.76523  0.40536  1.0000
  H   H5867     1.0  0.93580  0.76048  0.38793  1.0000
  H   H5868     1.0  0.94212  0.84315  0.32915  1.0000
  H   H5869     1.0  0.94738  0.86333  0.33849  1.0000
  H   H5870     1.0  0.96224  0.85000  0.33772  1.0000
  H   H5871     1.0  0.82042  0.98965  0.04928  1.0000
  C   C3318     1.0  0.89632  0.93669  0.39768  1.0000
  C   C3319     1.0  0.90220  0.96756  0.37713  1.0000
  H   H5872     1.0  0.97996  0.75078  0.17410  1.0000
  Fe  Fe370     1.0  0.98030  0.71181  0.06701  1.0000
  C   C3320     1.0  0.93211  0.95130  0.36245  1.0000
  C   C3321     1.0  0.94534  0.94648  0.34510  1.0000
  H   H5873     1.0  0.80266  0.52884  0.11164  1.0000
  C   C3322     1.0  0.91209  0.97258  0.39581  1.0000
  H   H5874     1.0  0.89894  0.91308  0.38502  1.0000
  C   C3323     1.0  0.88983  0.90587  0.42210  1.0000
  C   C3324     1.0  0.95854  0.80833  0.42486  1.0000
  H   H5875     1.0  0.88629  0.93959  0.41042  1.0000
  H   H5876     1.0  0.90788  0.93872  0.40502  1.0000
  H   H5877     1.0  0.90886  0.97675  0.36020  1.0000
  H   H5878     1.0  0.88965  0.97070  0.38216  1.0000
  H   H5879     1.0  0.90042  0.93538  0.00716  1.0000
  C   C3325     1.0  0.89975  0.58579  0.33038  1.0000
  H   H5880     1.0  0.93615  0.92038  0.40909  1.0000
  H   H5881     1.0  0.83767  0.97801  0.46481  1.0000
  H   H5882     1.0  0.93202  0.94417  0.38004  1.0000
  H   H5883     1.0  0.93667  0.96554  0.36098  1.0000
  C   C3326     1.0  0.89030  0.91696  0.39840  1.0000
  C   C3327     1.0  0.87271  0.91148  0.02921  1.0000
  H   H5884     1.0  0.90307  0.89580  0.99871  1.0000
  H   H5885     1.0  0.98088  0.68719  0.01740  1.0000
  H   H5886     1.0  0.90337  0.96747  0.41338  1.0000
  H   H5887     1.0  0.92337  0.96725  0.39588  1.0000
  H   H5888     1.0  0.96180  0.64514  0.35304  1.0000
  H   H5889     1.0  0.97554  0.93545  0.31977  1.0000
  H   H5890     1.0  0.95440  0.90215  0.44260  1.0000
  C   C3328     1.0  0.89906  0.99498  0.04708  1.0000
  H   H5891     1.0  0.88213  0.90987  0.43640  1.0000
  H   H5892     1.0  0.88381  0.89198  0.42287  1.0000
  H   H5893     1.0  0.90304  0.90693  0.42475  1.0000
  H   H5894     1.0  0.90715  0.57892  0.31960  1.0000
  H   H5895     1.0  0.81268  0.50088  0.08076  1.0000
  N   N184      1.0  0.80834  0.53794  0.43040  1.0000
  H   H5896     1.0  0.97744  0.91841  0.45983  1.0000
  N   N185      1.0  0.84988  0.60303  0.08183  1.0000
  C   C3329     1.0  0.85824  0.58998  0.07262  1.0000
  C   C3330     1.0  0.83531  0.59398  0.10297  1.0000
  C   C3331     1.0  0.84223  0.61122  0.06294  1.0000
  C   C3332     1.0  0.86269  0.61743  0.08724  1.0000
  C   C3333     1.0  0.87327  0.61174  0.10470  1.0000
  C   C3334     1.0  0.87390  0.59751  0.05161  1.0000
  C   C3335     1.0  0.83184  0.62426  0.06940  1.0000
  C   C3336     1.0  0.83709  0.57750  0.11912  1.0000
  C   C3337     1.0  0.82288  0.57159  0.14143  1.0000
  C   C3338     1.0  0.88741  0.62725  0.10600  1.0000
  C   C3339     1.0  0.88124  0.58305  0.04411  1.0000
  H   H5897     1.0  0.80557  0.55046  0.97226  1.0000
  H   H5898     1.0  0.84854  0.58018  0.06756  1.0000
  H   H5899     1.0  0.86293  0.58239  0.08620  1.0000
  H   H5900     1.0  0.83281  0.60331  0.11393  1.0000
  H   H5901     1.0  0.82306  0.58942  0.09752  1.0000
  H   H5902     1.0  0.83373  0.60087  0.05709  1.0000
  H   H5903     1.0  0.85238  0.61865  0.04725  1.0000
  H   H5904     1.0  0.87176  0.62571  0.07089  1.0000
  H   H5905     1.0  0.85609  0.62648  0.09471  1.0000
  H   H5906     1.0  0.87961  0.60178  0.09968  1.0000
  H   H5907     1.0  0.86480  0.60651  0.12239  1.0000
  H   H5908     1.0  0.87028  0.60440  0.03637  1.0000
  H   H5909     1.0  0.88436  0.60666  0.05615  1.0000
  H   H5910     1.0  0.84063  0.63639  0.07099  1.0000
  H   H5911     1.0  0.82207  0.61875  0.08602  1.0000
  H   H5912     1.0  0.83590  0.56659  0.11003  1.0000
  H   H5913     1.0  0.84960  0.57972  0.12418  1.0000
  C   C3340     1.0  0.89517  0.92804  0.99481  1.0000
  H   H5914     1.0  0.82399  0.55935  0.15213  1.0000
  H   H5915     1.0  0.82391  0.58165  0.15189  1.0000
  H   H5916     1.0  0.89667  0.63267  0.08885  1.0000
  H   H5917     1.0  0.88184  0.63770  0.11119  1.0000
  H   H5918     1.0  0.89459  0.62303  0.11904  1.0000
  H   H5919     1.0  0.87136  0.57361  0.03891  1.0000
  H   H5920     1.0  0.89231  0.58879  0.02891  1.0000
  H   H5921     1.0  0.83165  0.63561  0.03362  1.0000
  C   C3341     1.0  0.97240  0.81910  0.43431  1.0000
  H   H5922     1.0  0.81525  0.63885  0.05547  1.0000
  C   C3342     1.0  0.95602  0.80948  0.02704  1.0000
  H   H5923     1.0  0.91101  0.87910  0.04363  1.0000
  H   H5924     1.0  0.92937  0.59766  0.44412  1.0000
  C   C3343     1.0  0.92590  0.75567  0.00092  1.0000
  H   H5925     1.0  0.90972  0.58481  0.43976  1.0000
  C   C3344     1.0  0.91379  0.97283  0.05684  1.0000
  H   H5926     1.0  0.92271  0.82891  0.40860  1.0000
  H   H5927     1.0  0.94858  0.94319  0.02313  1.0000
  H   H5928     1.0  0.88824  0.57605  0.34204  1.0000
  H   H5929     1.0  0.95758  0.93127  0.40977  1.0000
  H   H5930     1.0  0.93237  0.89843  0.44336  1.0000
  H   H5931     1.0  0.91573  0.95573  0.33962  1.0000
  C   C3345     1.0  0.85848  0.92071  0.02521  1.0000
  C   C3346     1.0  0.95395  0.97216  0.23614  1.0000
  C   C3347     1.0  0.97739  0.66528  0.13489  1.0000
  C   C3348     1.0  0.94821  0.91834  0.41368  1.0000
  C   C3349     1.0  0.92301  0.59265  0.43088  1.0000
  H   H5932     1.0  0.93024  0.58404  0.42343  1.0000
  H   H5933     1.0  0.95820  0.95020  0.34913  1.0000
  H   H5934     1.0  0.93296  0.98493  0.21023  1.0000
  H   H5935     1.0  0.96708  0.95161  0.23917  1.0000
  H   H5936     1.0  0.91547  0.61595  0.42042  1.0000
  S   S746      1.0  0.94792  0.86102  0.01055  1.0000
  C   C3350     1.0  0.95259  0.65321  0.35118  1.0000
  C   C3351     1.0  0.93483  0.64364  0.36666  1.0000
  H   H5937     1.0  0.90552  0.82720  0.98266  1.0000
  H   H5938     1.0  0.91629  0.82906  0.02893  1.0000
  C   C3352     1.0  0.81679  0.57037  0.43281  1.0000
  S   S747      1.0  0.91527  0.87277  0.97336  1.0000
  C   C3353     1.0  0.91945  0.80865  0.99641  1.0000
  H   H5939     1.0  0.88038  0.91897  0.03947  1.0000
  H   H5940     1.0  0.80839  0.51689  0.36122  1.0000
  H   H5941     1.0  0.96645  0.97136  0.99837  1.0000
  H   H5942     1.0  0.81405  0.54116  0.38039  1.0000
  H   H5943     1.0  0.92758  0.80815  0.00938  1.0000
  H   H5944     1.0  0.89614  0.61391  0.34787  1.0000
  H   H5945     1.0  0.93022  0.75210  0.98420  1.0000
  H   H5946     1.0  0.89271  0.95847  0.32818  1.0000
  H   H5947     1.0  0.96838  0.53750  0.40240  1.0000
  H   H5948     1.0  0.97764  0.92618  0.43012  1.0000
  C   C3354     1.0  0.94602  0.98507  0.99902  1.0000
  C   C3355     1.0  0.97733  0.84301  0.05498  1.0000
  H   H5949     1.0  0.88715  0.88521  0.02433  1.0000
  H   H5950     1.0  0.81435  0.98935  0.29684  1.0000
  H   H5951     1.0  0.87948  0.67655  0.02292  1.0000
  C   C3356     1.0  0.89932  0.62458  0.38588  1.0000
  C   C3357     1.0  0.88206  0.61365  0.40260  1.0000
  C   C3358     1.0  0.87207  0.62538  0.41304  1.0000
  H   H5952     1.0  0.89632  0.63383  0.37207  1.0000
  H   H5953     1.0  0.90606  0.63289  0.39605  1.0000
  H   H5954     1.0  0.87368  0.60608  0.39335  1.0000
  H   H5955     1.0  0.92650  0.65272  0.36510  1.0000
  H   H5956     1.0  0.86898  0.63437  0.39906  1.0000
  H   H5957     1.0  0.85982  0.61727  0.42500  1.0000
  H   H5958     1.0  0.87963  0.63310  0.42312  1.0000
  H   H5959     1.0  0.92115  0.97606  0.24959  1.0000
  H   H5960     1.0  0.83216  0.55711  0.41252  1.0000
  C   C3359     1.0  0.82790  0.58834  0.41919  1.0000
  C   C3360     1.0  0.91905  0.77180  0.99681  1.0000
  Fe  Fe371     1.0  0.90214  0.52776  0.46742  1.0000
  S   S748      1.0  0.96696  0.54567  0.45498  1.0000
  H   H5961     1.0  0.82403  0.59214  0.40258  1.0000
  H   H5962     1.0  0.82618  0.59816  0.42958  1.0000
  N   N186      1.0  0.91505  0.71287  0.25165  1.0000
  C   C3361     1.0  0.91373  0.70826  0.27760  1.0000
  C   C3362     1.0  0.92227  0.69982  0.24072  1.0000
  C   C3363     1.0  0.92798  0.73042  0.24196  1.0000
  C   C3364     1.0  0.89809  0.71384  0.24561  1.0000
  C   C3365     1.0  0.88148  0.70132  0.26244  1.0000
  C   C3366     1.0  0.90866  0.72179  0.29108  1.0000
  C   C3367     1.0  0.93145  0.73778  0.21524  1.0000
  C   C3368     1.0  0.91077  0.68094  0.24682  1.0000
  C   C3369     1.0  0.92029  0.66894  0.23619  1.0000
  C   C3370     1.0  0.86592  0.70085  0.25159  1.0000
  C   C3371     1.0  0.90060  0.71362  0.31685  1.0000
  C   C3372     1.0  0.94243  0.75664  0.20828  1.0000
  H   H5963     1.0  0.92626  0.70667  0.28119  1.0000
  H   H5964     1.0  0.90460  0.69535  0.28582  1.0000
  H   H5965     1.0  0.92504  0.70373  0.22143  1.0000
  H   H5966     1.0  0.93481  0.69947  0.24530  1.0000
  H   H5967     1.0  0.94062  0.72999  0.24623  1.0000
  H   H5968     1.0  0.92378  0.74049  0.25023  1.0000
  H   H5969     1.0  0.89635  0.72720  0.24475  1.0000
  H   H5970     1.0  0.89820  0.71169  0.22772  1.0000
  H   H5971     1.0  0.87868  0.70579  0.27883  1.0000
  H   H5972     1.0  0.88246  0.68781  0.26736  1.0000
  H   H5973     1.0  0.92032  0.73230  0.28998  1.0000
  H   H5974     1.0  0.89950  0.72804  0.28363  1.0000
  H   H5975     1.0  0.91934  0.73752  0.20936  1.0000
  H   H5976     1.0  0.93859  0.73024  0.20542  1.0000
  H   H5977     1.0  0.90670  0.67563  0.26586  1.0000
  H   H5978     1.0  0.89923  0.68044  0.23945  1.0000
  H   H5979     1.0  0.91232  0.65528  0.24223  1.0000
  H   H5980     1.0  0.92288  0.67259  0.21687  1.0000
  H   H5981     1.0  0.93267  0.66968  0.24161  1.0000
  H   H5982     1.0  0.86752  0.69532  0.23588  1.0000
  H   H5983     1.0  0.85413  0.69254  0.26436  1.0000
  H   H5984     1.0  0.86419  0.71415  0.24668  1.0000
  H   H5985     1.0  0.90984  0.70825  0.32535  1.0000
  H   H5986     1.0  0.89716  0.72370  0.32575  1.0000
  H   H5987     1.0  0.88877  0.70306  0.31901  1.0000
  H   H5988     1.0  0.95474  0.75766  0.21392  1.0000
  H   H5989     1.0  0.94546  0.76127  0.18904  1.0000
  H   H5990     1.0  0.93546  0.76523  0.21624  1.0000
  N   N187      1.0  0.88433  0.91002  0.00747  1.0000
  H   H5991     1.0  0.83031  0.50063  0.27994  1.0000
  H   H5992     1.0  0.96965  0.96488  0.26011  1.0000
  C   C3373     1.0  0.91097  0.59500  0.34461  1.0000
  H   H5993     1.0  0.94697  0.96052  0.03783  1.0000
  H   H5994     1.0  0.94925  0.96172  0.98597  1.0000
  C   C3374     1.0  0.92697  0.62683  0.35899  1.0000
  H   H5995     1.0  0.93622  0.61550  0.40431  1.0000
  C   C3375     1.0  0.97635  0.92966  0.44725  1.0000
  C   C3376     1.0  0.90090  0.60480  0.35978  1.0000
  C   C3377     1.0  0.96894  0.96511  0.24171  1.0000
  S   S749      1.0  0.88677  0.54658  0.45579  1.0000
  S   S750      1.0  0.78883  0.51555  0.23689  1.0000
  H   H5996     1.0  0.96576  0.66994  0.13976  1.0000
  C   C3378     1.0  0.90078  0.97812  0.04750  1.0000
  C   C3379     1.0  0.93528  0.86234  0.46736  1.0000
  H   H5997     1.0  0.96766  0.82921  0.44185  1.0000
  H   H5998     1.0  0.88279  0.97055  0.34657  1.0000
  H   H5999     1.0  0.82713  0.52792  0.41060  1.0000
  C   C3380     1.0  0.97833  0.94561  0.05432  1.0000
  H   H6000     1.0  0.96651  0.90382  0.40250  1.0000
  Fe  Fe372     1.0  0.85900  0.62236  0.99031  1.0000
  H   H6001     1.0  0.79646  0.55330  0.21769  1.0000
  H   H6002     1.0  0.94753  0.80157  0.43965  1.0000
  H   H6003     1.0  0.90286  0.59046  0.40122  1.0000
  C   C3381     1.0  0.80003  0.97479  0.01769  1.0000
  H   H6004     1.0  0.96573  0.84014  0.06931  1.0000
  H   H6005     1.0  0.97599  0.81051  0.44818  1.0000
  H   H6006     1.0  0.80010  0.97309  0.08673  1.0000
  H   H6007     1.0  0.80912  0.96694  0.01756  1.0000
  H   H6008     1.0  0.95748  0.66559  0.35634  1.0000
  C   C3382     1.0  0.79865  0.53431  0.24628  1.0000
  H   H6009     1.0  0.92190  0.95598  0.97455  1.0000
  C   C3383     1.0  0.87413  0.90248  0.99132  1.0000
  S   S751      1.0  0.96893  0.98476  0.08927  1.0000
  C   C3384     1.0  0.97299  0.91998  0.03775  1.0000
  H   H6010     1.0  0.91507  0.58485  0.35557  1.0000
  C   C3385     1.0  0.80374  0.54369  0.99072  1.0000
  C   C3386     1.0  0.98331  0.79085  0.32665  1.0000
  H   H6011     1.0  0.84831  0.98218  0.30543  1.0000
  C   C3387     1.0  0.80557  0.99238  0.00621  1.0000
  H   H6012     1.0  0.86484  0.96080  0.32040  1.0000
  H   H6013     1.0  0.81304  0.61774  0.04869  1.0000
  C   C3388     1.0  0.92545  0.98453  0.06495  1.0000
  H   H6014     1.0  0.91708  0.91993  0.45112  1.0000
  H   H6015     1.0  0.91902  0.60730  0.97677  1.0000
  H   H6016     1.0  0.83913  0.54892  0.44727  1.0000
  H   H6017     1.0  0.88577  0.57606  0.05848  1.0000
  H   H6018     1.0  0.93327  0.93853  0.43386  1.0000
  Fe  Fe373     1.0  0.87573  0.97577  0.00819  1.0000
  H   H6019     1.0  0.93612  0.64097  0.38490  1.0000
  H   H6020     1.0  0.81002  0.56900  0.13724  1.0000
  C   C3389     1.0  0.92893  0.92971  0.45151  1.0000
  C   C3390     1.0  0.96029  0.53877  0.38950  1.0000
  H   H6021     1.0  0.82467  0.53332  0.07515  1.0000
  C   C3391     1.0  0.97152  0.78207  0.02381  1.0000
  H   H6022     1.0  0.92967  0.95113  0.02499  1.0000
  C   C3392     1.0  0.79454  0.55172  0.09970  1.0000
  Fe  Fe374     1.0  0.97073  0.85712  0.98719  1.0000
  H   H6023     1.0  0.97336  0.84526  0.03815  1.0000
  H   H6024     1.0  0.87170  0.94325  0.37896  1.0000
  C   C3393     1.0  0.95518  0.90759  0.39762  1.0000
  H   H6025     1.0  0.94506  0.89571  0.39838  1.0000
  C   C3394     1.0  0.81199  0.51469  0.37831  1.0000
  H   H6026     1.0  0.86419  0.93839  0.33156  1.0000
  H   H6027     1.0  0.98077  0.51948  0.37663  1.0000
  H   H6028     1.0  0.95188  0.65646  0.33263  1.0000
  H   H6029     1.0  0.87717  0.96403  0.45450  1.0000
  H   H6030     1.0  0.85645  0.92992  0.05742  1.0000
  S   S752      1.0  0.97404  0.77746  0.30918  1.0000
  H   H6031     1.0  0.95914  0.93893  0.47104  1.0000
  C   C3395     1.0  0.92270  0.60787  0.41185  1.0000
  Fe  Fe375     1.0  0.97808  0.75153  0.30204  1.0000
  C   C3396     1.0  0.91463  0.60118  0.39263  1.0000
  C   C3397     1.0  0.78945  0.53711  0.43445  1.0000
  H   H6032     1.0  0.88284  0.90064  0.97599  1.0000
  H   H6033     1.0  0.96729  0.73526  0.14640  1.0000
  Fe  Fe376     1.0  0.93929  0.52956  0.46972  1.0000
  C   C3398     1.0  0.94442  0.90909  0.43989  1.0000
  H   H6034     1.0  0.88704  0.93581  0.98725  1.0000
  C   C3399     1.0  0.91897  0.89238  0.03437  1.0000
  C   C3400     1.0  0.95439  0.52138  0.38286  1.0000
  H   H6035     1.0  0.86428  0.93406  0.01441  1.0000
  C   C3401     1.0  0.97331  0.72799  0.20220  1.0000
  H   H6036     1.0  0.91422  0.77405  0.01424  1.0000
  H   H6037     1.0  0.93167  0.98122  0.00280  1.0000
  H   H6038     1.0  0.82920  0.98001  0.32750  1.0000
  C   C3402     1.0  0.95236  0.96829  0.99991  1.0000
  H   H6039     1.0  0.95843  0.76554  0.37496  1.0000
  C   C3403     1.0  0.86089  0.88455  0.00196  1.0000
  H   H6040     1.0  0.98519  0.66696  0.01301  1.0000
  H   H6041     1.0  0.94186  0.93223  0.34616  1.0000
  C   C3404     1.0  0.94383  0.95503  0.02291  1.0000
  C   C3405     1.0  0.90761  0.90467  0.02989  1.0000
  H   H6042     1.0  0.94629  0.95355  0.32703  1.0000
  H   H6043     1.0  0.94208  0.96338  0.24814  1.0000
  C   C3406     1.0  0.82335  0.99121  0.06631  1.0000
  H   H6044     1.0  0.95921  0.91531  0.37932  1.0000
  C   C3407     1.0  0.84942  0.87973  0.98533  1.0000
  C   C3408     1.0  0.84803  0.92216  0.04828  1.0000
  C   C3409     1.0  0.92601  0.98915  0.25294  1.0000
  H   H6045     1.0  0.89731  0.98089  0.28946  1.0000
  N   N188      1.0  0.94264  0.92079  0.45674  1.0000
  H   H6046     1.0  0.95339  0.97140  0.21796  1.0000
  H   H6047     1.0  0.85233  0.88447  0.01854  1.0000
  C   C3410     1.0  0.91786  0.86091  0.46749  1.0000
  H   H6048     1.0  0.83798  0.92885  0.04486  1.0000
  H   H6049     1.0  0.91619  0.91784  0.02165  1.0000
  H   H6050     1.0  0.86654  0.89844  0.04105  1.0000
  H   H6051     1.0  0.81462  0.54971  0.99786  1.0000
  C   C3411     1.0  0.80737  0.52810  0.39159  1.0000
  C   C3412     1.0  0.78948  0.60081  0.39286  1.0000
  S   S753      1.0  0.98399  0.90395  0.33785  1.0000
  H   H6052     1.0  0.90449  0.84239  0.01485  1.0000
  H   H6053     1.0  0.89671  0.80430  0.46729  1.0000
  H   H6054     1.0  0.80279  0.51897  0.27705  1.0000
  C   C3413     1.0  0.97164  0.92758  0.05709  1.0000
  C   C3414     1.0  0.97401  0.73691  0.17947  1.0000
  H   H6055     1.0  0.94350  0.79035  0.99195  1.0000
  H   H6056     1.0  0.97340  0.52652  0.35140  1.0000
  S   S754      1.0  0.89123  0.97584  0.97376  1.0000
  S   S755      1.0  0.98269  0.70842  0.28325  1.0000
  S   S756      1.0  0.98235  0.73986  0.22136  1.0000
  H   H6057     1.0  0.92455  0.96438  0.44366  1.0000
  H   H6058     1.0  0.98409  0.82550  0.42021  1.0000
  H   H6059     1.0  0.83794  0.52766  0.44157  1.0000
  H   H6060     1.0  0.86764  0.87420  0.00527  1.0000
  C   C3415     1.0  0.95913  0.93456  0.45442  1.0000
  C   C3416     1.0  0.80677  0.98690  0.08515  1.0000
  N   N189      1.0  0.96668  0.49846  0.36408  1.0000
  Fe  Fe377     1.0  0.98111  0.73319  0.26064  1.0000
  H   H6061     1.0  0.89012  0.97331  0.26533  1.0000
  H   H6062     1.0  0.98613  0.83176  0.33674  1.0000
  H   H6063     1.0  0.98432  0.87001  0.05528  1.0000
  S   S757      1.0  0.97871  0.72775  0.32762  1.0000
  H   H6064     1.0  0.97839  0.65572  0.15003  1.0000
  H   H6065     1.0  0.82861  0.96622  0.30698  1.0000
  C   C3417     1.0  0.97916  0.79878  0.00915  1.0000
  S   S758      1.0  0.95781  0.90089  0.97813  1.0000
  H   H6066     1.0  0.92668  0.83746  0.98540  1.0000
  Fe  Fe378     1.0  0.94247  0.87437  0.97743  1.0000
  H   H6067     1.0  0.88922  0.80168  0.44130  1.0000
  C   C3418     1.0  0.83202  0.53499  0.45323  1.0000
  H   H6068     1.0  0.94946  0.82544  0.97550  1.0000
  H   H6069     1.0  0.90818  0.76879  0.98823  1.0000
  C   C3419     1.0  0.98082  0.93052  0.01557  1.0000
  S   S759      1.0  0.98132  0.83321  0.99134  1.0000
  H   H6070     1.0  0.79040  0.57103  0.98597  1.0000
  H   H6071     1.0  0.80636  0.51832  0.46112  1.0000
  H   H6072     1.0  0.83101  0.51452  0.17120  1.0000
  Fe  Fe379     1.0  0.91566  0.49596  0.46385  1.0000
  H   H6073     1.0  0.83303  0.99152  0.27443  1.0000
  N   N190      1.0  0.92810  0.80436  0.97450  1.0000
  C   C3420     1.0  0.81261  0.53239  0.45359  1.0000
  C   C3421     1.0  0.93342  0.78784  0.98176  1.0000
  H   H6074     1.0  0.98207  0.92475  0.00061  1.0000
  H   H6075     1.0  0.82000  0.49957  0.21222  1.0000
  H   H6076     1.0  0.84633  0.50364  0.18060  1.0000
  C   C3422     1.0  0.83325  0.50158  0.17714  1.0000
  C   C3423     1.0  0.82864  0.99281  0.29250  1.0000
  C   C3424     1.0  0.78676  0.54445  0.00533  1.0000
  H   H6077     1.0  0.90934  0.96046  0.47108  1.0000
  Fe  Fe380     1.0  0.87581  0.87639  0.52287  1.0000
  H   H6078     1.0  0.80167  0.76188  0.63949  1.0000
  S   S760      1.0  0.89198  0.88061  0.54933  1.0000
  Fe  Fe381     1.0  0.84151  0.86159  0.51003  1.0000
  Fe  Fe382     1.0  0.86641  0.96457  0.96482  1.0000
  S   S761      1.0  0.81279  0.84777  0.52442  1.0000
  H   H6079     1.0  0.86241  0.51989  0.82852  1.0000
  H   H6080     1.0  0.82528  0.92177  0.55307  1.0000
  H   H6081     1.0  0.81845  0.73400  0.95406  1.0000
  H   H6082     1.0  0.83635  0.95221  0.89604  1.0000
  S   S762      1.0  0.86463  0.85120  0.51309  1.0000
  S   S763      1.0  0.85189  0.88541  0.52329  1.0000
  H   H6083     1.0  0.80494  0.88307  0.50590  1.0000
  Fe  Fe383     1.0  0.94846  0.96826  0.56682  1.0000
  C   C3425     1.0  0.92220  0.52140  0.73062  1.0000
  S   S764      1.0  0.92980  0.95941  0.54474  1.0000
  Fe  Fe384     1.0  0.95573  0.97699  0.61264  1.0000
  H   H6084     1.0  0.89559  0.78355  0.93387  1.0000
  S   S765      1.0  0.95572  0.95343  0.59734  1.0000
  H   H6085     1.0  0.85652  0.97808  0.47660  1.0000
  S   S766      1.0  0.94859  0.94113  0.81777  1.0000
  H   H6086     1.0  0.83796  0.61744  0.86277  1.0000
  H   H6087     1.0  0.83920  0.72949  0.94905  1.0000
  Fe  Fe385     1.0  0.82867  0.60632  0.96873  1.0000
  C   C3426     1.0  0.87025  0.61232  0.84844  1.0000
  Fe  Fe386     1.0  0.83738  0.87066  0.88888  1.0000
  S   S767      1.0  0.83168  0.87047  0.85344  1.0000
  S   S768      1.0  0.82389  0.88438  0.91338  1.0000
  Fe  Fe387     1.0  0.86540  0.85209  0.88060  1.0000
  S   S769      1.0  0.86249  0.85104  0.84421  1.0000
  S   S770      1.0  0.88568  0.84112  0.89466  1.0000
  Fe  Fe388     1.0  0.86053  0.87856  0.84111  1.0000
  S   S771      1.0  0.87397  0.90204  0.81161  1.0000
  Fe  Fe389     1.0  0.83376  0.84274  0.85928  1.0000
  S   S772      1.0  0.81880  0.81787  0.85012  1.0000
  S   S773      1.0  0.86592  0.88027  0.87599  1.0000
  S   S774      1.0  0.83702  0.84225  0.89621  1.0000
  H   H6088     1.0  0.87296  0.93523  0.54762  1.0000
  H   H6089     1.0  0.89699  0.98686  0.79554  1.0000
  S   S775      1.0  0.88207  0.59836  0.92229  1.0000
  S   S776      1.0  0.80447  0.61058  0.95717  1.0000
  H   H6090     1.0  0.96046  0.94003  0.96853  1.0000
  H   H6091     1.0  0.82833  0.92533  0.83351  1.0000
  H   H6092     1.0  0.90485  0.98821  0.88140  1.0000
  C   C3427     1.0  0.78890  0.50675  0.63584  1.0000
  Fe  Fe390     1.0  0.89483  0.52315  0.86460  1.0000
  S   S777      1.0  0.90320  0.54212  0.83007  1.0000
  S   S778      1.0  0.87525  0.52545  0.89489  1.0000
  H   H6093     1.0  0.86697  0.62417  0.85258  1.0000
  S   S779      1.0  0.92674  0.51735  0.81226  1.0000
  Fe  Fe391     1.0  0.92975  0.53914  0.83134  1.0000
  S   S780      1.0  0.95268  0.56308  0.82067  1.0000
  Fe  Fe392     1.0  0.89931  0.51855  0.81426  1.0000
  S   S781      1.0  0.88373  0.51847  0.78592  1.0000
  S   S782      1.0  0.92147  0.52166  0.86710  1.0000
  H   H6094     1.0  0.95880  0.91061  0.89800  1.0000
  H   H6095     1.0  0.90223  0.80643  0.91929  1.0000
  H   H6096     1.0  0.79555  0.91846  0.53559  1.0000
  H   H6097     1.0  0.96896  0.94217  0.72339  1.0000
  H   H6098     1.0  0.94358  0.61004  0.89689  1.0000
  S   S783      1.0  0.91778  0.53547  0.49320  1.0000
  H   H6099     1.0  0.83881  0.59820  0.83838  1.0000
  C   C3428     1.0  0.92348  0.89677  0.89958  1.0000
  C   C3429     1.0  0.89164  0.97868  0.83344  1.0000
  H   H6100     1.0  0.90079  0.93267  0.89287  1.0000
  H   H6101     1.0  0.86523  0.58490  0.86296  1.0000
  S   S784      1.0  0.93239  0.50170  0.48876  1.0000
  C   C3430     1.0  0.95548  0.92911  0.68672  1.0000
  C   C3431     1.0  0.96655  0.55750  0.85958  1.0000
  C   C3432     1.0  0.96783  0.56816  0.83787  1.0000
  H   H6102     1.0  0.78950  0.78670  0.65510  1.0000
  H   H6103     1.0  0.95634  0.54560  0.86597  1.0000
  Fe  Fe393     1.0  0.91658  0.50002  0.84831  1.0000
  N   N191      1.0  0.86610  0.95389  0.85980  1.0000
  H   H6104     1.0  0.93435  0.94031  0.87127  1.0000
  S   S785      1.0  0.98344  0.99046  0.59648  1.0000
  H   H6105     1.0  0.91931  0.61061  0.92475  1.0000
  H   H6106     1.0  0.98155  0.93738  0.95728  1.0000
  C   C3433     1.0  0.93414  0.96699  0.86906  1.0000
  C   C3434     1.0  0.88070  0.57789  0.91543  1.0000
  C   C3435     1.0  0.89039  0.57690  0.89412  1.0000
  C   C3436     1.0  0.88916  0.56081  0.88786  1.0000
  C   C3437     1.0  0.87813  0.54563  0.90286  1.0000
  C   C3438     1.0  0.86866  0.54658  0.92433  1.0000
  C   C3439     1.0  0.86995  0.56267  0.93063  1.0000
  H   H6107     1.0  0.89871  0.58863  0.88227  1.0000
  H   H6108     1.0  0.89658  0.56019  0.87131  1.0000
  H   H6109     1.0  0.86022  0.53484  0.93607  1.0000
  H   H6110     1.0  0.86258  0.56327  0.94720  1.0000
  H   H6111     1.0  0.90916  0.52924  0.65667  1.0000
  C   C3440     1.0  0.82237  0.91557  0.51150  1.0000
  C   C3441     1.0  0.84416  0.97680  0.90459  1.0000
  C   C3442     1.0  0.79359  0.73675  0.58071  1.0000
  C   C3443     1.0  0.87648  0.96266  0.83537  1.0000
  H   H6112     1.0  0.85766  0.91707  0.85527  1.0000
  H   H6113     1.0  0.80620  0.57947  0.93924  1.0000
  H   H6114     1.0  0.84249  0.93369  0.87644  1.0000
  C   C3444     1.0  0.80049  0.80948  0.83893  1.0000
  H   H6115     1.0  0.84891  0.51247  0.69914  1.0000
  H   H6116     1.0  0.83116  0.49643  0.81974  1.0000
  H   H6117     1.0  0.92030  0.97566  0.73509  1.0000
  H   H6118     1.0  0.94779  0.60828  0.93564  1.0000
  H   H6119     1.0  0.85281  0.92320  0.56716  1.0000
  H   H6120     1.0  0.90706  0.92154  0.87049  1.0000
  C   C3445     1.0  0.83779  0.55915  0.89244  1.0000
  C   C3446     1.0  0.85765  0.92607  0.94054  1.0000
  C   C3447     1.0  0.86425  0.91310  0.93252  1.0000
  C   C3448     1.0  0.85389  0.90010  0.92467  1.0000
  C   C3449     1.0  0.83679  0.89992  0.92473  1.0000
  C   C3450     1.0  0.82993  0.91243  0.93382  1.0000
  C   C3451     1.0  0.84031  0.92545  0.94181  1.0000
  H   H6121     1.0  0.79020  0.79523  0.89272  1.0000
  H   H6122     1.0  0.85913  0.89013  0.91872  1.0000
  H   H6123     1.0  0.81662  0.91221  0.93429  1.0000
  H   H6124     1.0  0.83504  0.93530  0.94820  1.0000
  C   C3452     1.0  0.92760  0.93084  0.81636  1.0000
  C   C3453     1.0  0.92057  0.91328  0.82775  1.0000
  C   C3454     1.0  0.90398  0.90446  0.82678  1.0000
  C   C3455     1.0  0.89441  0.91310  0.81410  1.0000
  C   C3456     1.0  0.90138  0.93071  0.80279  1.0000
  C   C3457     1.0  0.91797  0.93959  0.80395  1.0000
  H   H6125     1.0  0.92803  0.90639  0.83722  1.0000
  H   H6126     1.0  0.89876  0.89085  0.83543  1.0000
  H   H6127     1.0  0.89389  0.93735  0.79311  1.0000
  H   H6128     1.0  0.92350  0.95304  0.79490  1.0000
  C   C3458     1.0  0.92003  0.60293  0.94167  1.0000
  C   C3459     1.0  0.84997  0.94096  0.85865  1.0000
  S   S786      1.0  0.88841  0.89071  0.48631  1.0000
  H   H6129     1.0  0.92906  0.99285  0.92109  1.0000
  C   C3460     1.0  0.90723  0.86362  0.95163  1.0000
  C   C3461     1.0  0.91652  0.85502  0.93792  1.0000
  C   C3462     1.0  0.90970  0.84795  0.92068  1.0000
  C   C3463     1.0  0.89380  0.84988  0.91662  1.0000
  C   C3464     1.0  0.88452  0.85848  0.93035  1.0000
  C   C3465     1.0  0.89114  0.86512  0.94799  1.0000
  H   H6130     1.0  0.92902  0.85403  0.94040  1.0000
  H   H6131     1.0  0.91696  0.84138  0.91002  1.0000
  H   H6132     1.0  0.87221  0.85997  0.92743  1.0000
  C   C3466     1.0  0.91926  0.61459  0.95910  1.0000
  H   H6133     1.0  0.87141  0.49586  0.69864  1.0000
  C   C3467     1.0  0.82895  0.54506  0.91461  1.0000
  H   H6134     1.0  0.83704  0.90703  0.83161  1.0000
  H   H6135     1.0  0.89151  0.51196  0.71680  1.0000
  H   H6136     1.0  0.84348  0.94616  0.49002  1.0000
  H   H6137     1.0  0.98264  0.50667  0.48715  1.0000
  C   C3468     1.0  0.80172  0.82535  0.52908  1.0000
  H   H6138     1.0  0.80719  0.78606  0.52105  1.0000
  C   C3469     1.0  0.81930  0.51346  0.85311  1.0000
  H   H6139     1.0  0.82656  0.90919  0.85972  1.0000
  H   H6140     1.0  0.84141  0.94801  0.85076  1.0000
  C   C3470     1.0  0.80991  0.81306  0.52214  1.0000
  H   H6141     1.0  0.97713  0.99279  0.96556  1.0000
  H   H6142     1.0  0.93263  0.91740  0.49396  1.0000
  H   H6143     1.0  0.82338  0.81715  0.51342  1.0000
  C   C3471     1.0  0.91913  0.93737  0.54701  1.0000
  C   C3472     1.0  0.90820  0.93356  0.53201  1.0000
  C   C3473     1.0  0.89971  0.91625  0.53279  1.0000
  C   C3474     1.0  0.90214  0.90252  0.54854  1.0000
  C   C3475     1.0  0.91297  0.90632  0.56371  1.0000
  C   C3476     1.0  0.92139  0.92368  0.56303  1.0000
  H   H6144     1.0  0.90617  0.94407  0.51983  1.0000
  H   H6145     1.0  0.89116  0.91354  0.52131  1.0000
  H   H6146     1.0  0.91482  0.89578  0.57606  1.0000
  H   H6147     1.0  0.92958  0.92645  0.57492  1.0000
  S   S787      1.0  0.94330  0.97570  0.65025  1.0000
  H   H6148     1.0  0.93120  0.90205  0.76668  1.0000
  H   H6149     1.0  0.83653  0.97210  0.92287  1.0000
  H   H6150     1.0  0.92344  0.90144  0.88103  1.0000
  C   C3477     1.0  0.80067  0.79540  0.52653  1.0000
  H   H6151     1.0  0.79736  0.77591  0.92444  1.0000
  H   H6152     1.0  0.81078  0.76424  0.59769  1.0000
  H   H6153     1.0  0.95425  0.89298  0.47934  1.0000
  C   C3478     1.0  0.95107  0.92014  0.89460  1.0000
  H   H6154     1.0  0.93434  0.94032  0.69414  1.0000
  C   C3479     1.0  0.90988  0.51549  0.65992  1.0000
  H   H6155     1.0  0.90120  0.88531  0.78202  1.0000
  C   C3480     1.0  0.93998  0.88790  0.51470  1.0000
  H   H6156     1.0  0.91256  0.57131  0.92964  1.0000
  H   H6157     1.0  0.92276  0.55875  0.89872  1.0000
  H   H6158     1.0  0.81476  0.54276  0.91768  1.0000
  H   H6159     1.0  0.95947  0.91027  0.49434  1.0000
  H   H6160     1.0  0.82091  0.57507  0.90201  1.0000
  C   C3481     1.0  0.83228  0.96583  0.50192  1.0000
  H   H6161     1.0  0.95505  0.92169  0.53860  1.0000
  H   H6162     1.0  0.97699  0.55417  0.89010  1.0000
  H   H6163     1.0  0.90735  0.61910  0.95998  1.0000
  C   C3482     1.0  0.93833  0.59579  0.89860  1.0000
  C   C3483     1.0  0.97478  0.92932  0.76633  1.0000
  H   H6164     1.0  0.84869  0.53059  0.47671  1.0000
  C   C3484     1.0  0.90661  0.79440  0.92321  1.0000
  C   C3485     1.0  0.97330  0.98965  0.66332  1.0000
  H   H6165     1.0  0.91006  0.97343  0.80648  1.0000
  Fe  Fe394     1.0  0.87553  0.86679  0.47620  1.0000
  H   H6166     1.0  0.81776  0.90440  0.52700  1.0000
  H   H6167     1.0  0.95047  0.92138  0.87600  1.0000
  S   S788      1.0  0.88909  0.49974  0.84909  1.0000
  H   H6168     1.0  0.93540  0.89506  0.52767  1.0000
  H   H6169     1.0  0.92878  0.87792  0.51303  1.0000
  H   H6170     1.0  0.94916  0.88114  0.52128  1.0000
  H   H6171     1.0  0.82082  0.60325  0.88478  1.0000
  C   C3486     1.0  0.79720  0.76397  0.59706  1.0000
  H   H6172     1.0  0.91748  0.95225  0.71331  1.0000
  C   C3487     1.0  0.84200  0.50511  0.87040  1.0000
  H   H6173     1.0  0.84367  0.99274  0.48304  1.0000
  H   H6174     1.0  0.89494  0.89586  0.75716  1.0000
  C   C3488     1.0  0.92534  0.56879  0.92985  1.0000
  S   S789      1.0  0.83725  0.58205  0.96752  1.0000
  H   H6175     1.0  0.87183  0.97753  0.87249  1.0000
  H   H6176     1.0  0.86579  0.59766  0.88390  1.0000
  C   C3489     1.0  0.83055  0.94722  0.49795  1.0000
  C   C3490     1.0  0.85915  0.93482  0.55271  1.0000
  C   C3491     1.0  0.92648  0.55484  0.91540  1.0000
  C   C3492     1.0  0.86442  0.50198  0.75909  1.0000
  H   H6177     1.0  0.85486  0.79939  0.96716  1.0000
  C   C3493     1.0  0.92124  0.79732  0.93595  1.0000
  N   N192      1.0  0.82208  0.93244  0.51892  1.0000
  H   H6178     1.0  0.89630  0.62714  0.83065  1.0000
  H   H6179     1.0  0.91754  0.91638  0.72463  1.0000
  N   N193      1.0  0.94134  0.93318  0.72725  1.0000
  H   H6180     1.0  0.82379  0.82733  0.56276  1.0000
  C   C3494     1.0  0.91674  0.50901  0.71520  1.0000
  H   H6181     1.0  0.93344  0.51701  0.61888  1.0000
  N   N194      1.0  0.83614  0.50868  0.84800  1.0000
  C   C3495     1.0  0.97996  0.55557  0.47211  1.0000
  H   H6182     1.0  0.85289  0.92184  0.52621  1.0000
  H   H6183     1.0  0.82834  0.51446  0.48416  1.0000
  C   C3496     1.0  0.95565  0.99375  0.70577  1.0000
  H   H6184     1.0  0.80135  0.93542  0.56361  1.0000
  C   C3497     1.0  0.90315  0.51445  0.70251  1.0000
  H   H6185     1.0  0.78881  0.73667  0.61696  1.0000
  N   N195      1.0  0.83562  0.78493  0.91060  1.0000
  C   C3498     1.0  0.85006  0.78642  0.89016  1.0000
  C   C3499     1.0  0.82774  0.76594  0.92226  1.0000
  C   C3500     1.0  0.82191  0.79172  0.90102  1.0000
  C   C3501     1.0  0.84128  0.79533  0.92781  1.0000
  C   C3502     1.0  0.85999  0.79719  0.93091  1.0000
  C   C3503     1.0  0.85744  0.80481  0.87374  1.0000
  H   H6186     1.0  0.94883  0.93885  0.65409  1.0000
  H   H6187     1.0  0.86692  0.61065  0.83169  1.0000
  C   C3504     1.0  0.83508  0.60706  0.87894  1.0000
  H   H6188     1.0  0.90308  0.79260  0.96904  1.0000
  C   C3505     1.0  0.87541  0.80696  0.85915  1.0000
  H   H6189     1.0  0.84567  0.77736  0.87913  1.0000
  H   H6190     1.0  0.86088  0.78222  0.89600  1.0000
  H   H6191     1.0  0.91791  0.53200  0.94435  1.0000
  H   H6192     1.0  0.82238  0.75890  0.90967  1.0000
  H   H6193     1.0  0.81850  0.78539  0.88676  1.0000
  H   H6194     1.0  0.82691  0.80584  0.89286  1.0000
  H   H6195     1.0  0.84021  0.80891  0.92278  1.0000
  H   H6196     1.0  0.83243  0.78986  0.94530  1.0000
  H   H6197     1.0  0.86938  0.80481  0.91466  1.0000
  H   H6198     1.0  0.96050  0.91921  0.73293  1.0000
  H   H6199     1.0  0.84898  0.80691  0.86154  1.0000
  H   H6200     1.0  0.85811  0.81520  0.88362  1.0000
  H   H6201     1.0  0.81171  0.51179  0.81987  1.0000
  H   H6202     1.0  0.79867  0.55342  0.60516  1.0000
  H   H6203     1.0  0.79078  0.71781  0.75115  1.0000
  H   H6204     1.0  0.79103  0.83233  0.83592  1.0000
  H   H6205     1.0  0.87754  0.91325  0.93199  1.0000
  C   C3506     1.0  0.83482  0.57700  0.89531  1.0000
  H   H6206     1.0  0.94540  0.61460  0.85284  1.0000
  H   H6207     1.0  0.96038  0.57559  0.90716  1.0000
  H   H6208     1.0  0.79249  0.54134  0.64807  1.0000
  H   H6209     1.0  0.94794  0.93011  0.93574  1.0000
  H   H6210     1.0  0.87522  0.79692  0.84868  1.0000
  H   H6211     1.0  0.87993  0.82002  0.84708  1.0000
  H   H6212     1.0  0.88462  0.80600  0.87055  1.0000
  C   C3507     1.0  0.96445  0.93443  0.53640  1.0000
  H   H6213     1.0  0.81435  0.58603  0.82072  1.0000
  C   C3508     1.0  0.94657  0.98723  0.68996  1.0000
  C   C3509     1.0  0.95916  0.81466  0.94761  1.0000
  H   H6214     1.0  0.91064  0.95315  0.95155  1.0000
  H   H6215     1.0  0.79829  0.51974  0.62982  1.0000
  C   C3510     1.0  0.83539  0.63156  0.90003  1.0000
  H   H6216     1.0  0.81675  0.56435  0.83044  1.0000
  H   H6217     1.0  0.90992  0.89159  0.90943  1.0000
  H   H6218     1.0  0.83635  0.98281  0.89388  1.0000
  C   C3511     1.0  0.85102  0.93374  0.53178  1.0000
  H   H6219     1.0  0.80743  0.73731  0.57902  1.0000
  S   S790      1.0  0.85506  0.62453  0.95361  1.0000
  C   C3512     1.0  0.95774  0.93181  0.73491  1.0000
  H   H6220     1.0  0.83847  0.96785  0.51657  1.0000
  C   C3513     1.0  0.94822  0.59198  0.87629  1.0000
  H   H6221     1.0  0.95887  0.57998  0.95750  1.0000
  H   H6222     1.0  0.82329  0.94636  0.48401  1.0000
  H   H6223     1.0  0.87694  0.80859  0.95135  1.0000
  C   C3514     1.0  0.83954  0.75588  0.93296  1.0000
  C   C3515     1.0  0.84868  0.96149  0.89555  1.0000
  H   H6224     1.0  0.94357  0.95937  0.73195  1.0000
  C   C3516     1.0  0.79204  0.55980  0.61761  1.0000
  H   H6225     1.0  0.79764  0.80020  0.61942  1.0000
  H   H6226     1.0  0.97425  0.91548  0.76634  1.0000
  H   H6227     1.0  0.93277  0.90590  0.92764  1.0000
  C   C3517     1.0  0.91095  0.96282  0.74285  1.0000
  C   C3518     1.0  0.96096  0.93462  0.92396  1.0000
  C   C3519     1.0  0.86048  0.96777  0.87074  1.0000
  H   H6228     1.0  0.86057  0.93199  0.82758  1.0000
  C   C3520     1.0  0.79350  0.79994  0.90809  1.0000
  Fe  Fe395     1.0  0.86410  0.89871  0.48597  1.0000
  H   H6229     1.0  0.90882  0.85994  0.48354  1.0000
  C   C3521     1.0  0.92849  0.91561  0.73307  1.0000
  H   H6230     1.0  0.84147  0.57713  0.84681  1.0000
  C   C3522     1.0  0.87589  0.50312  0.56729  1.0000
  C   C3523     1.0  0.93251  0.91154  0.90942  1.0000
  C   C3524     1.0  0.93666  0.59655  0.93957  1.0000
  S   S791      1.0  0.96409  0.86873  0.95383  1.0000
  C   C3525     1.0  0.94342  0.95257  0.87173  1.0000
  C   C3526     1.0  0.94886  0.90046  0.49119  1.0000
  C   C3527     1.0  0.92925  0.51639  0.65610  1.0000
  C   C3528     1.0  0.97817  0.94385  0.88393  1.0000
  H   H6231     1.0  0.93177  0.80814  0.92426  1.0000
  C   C3529     1.0  0.79740  0.79232  0.83560  1.0000
  H   H6232     1.0  0.79734  0.80194  0.57561  1.0000
  S   S792      1.0  0.95405  0.99204  0.78482  1.0000
  C   C3530     1.0  0.83166  0.93320  0.53823  1.0000
  H   H6233     1.0  0.94588  0.57792  0.87699  1.0000
  H   H6234     1.0  0.98039  0.92447  0.86280  1.0000
  H   H6235     1.0  0.98279  0.82715  0.92143  1.0000
  Fe  Fe396     1.0  0.96293  0.96918  0.80056  1.0000
  S   S793      1.0  0.97576  0.98124  0.54735  1.0000
  C   C3531     1.0  0.78894  0.76425  0.63815  1.0000
  H   H6236     1.0  0.83229  0.53271  0.91280  1.0000
  H   H6237     1.0  0.81733  0.79594  0.57308  1.0000
  H   H6238     1.0  0.85170  0.55991  0.88877  1.0000
  N   N196      1.0  0.79006  0.77401  0.61372  1.0000
  H   H6239     1.0  0.83321  0.54893  0.92996  1.0000
  H   H6240     1.0  0.80012  0.81407  0.90256  1.0000
  C   C3532     1.0  0.80491  0.78975  0.91883  1.0000
  H   H6241     1.0  0.95807  0.96403  0.89395  1.0000
  H   H6242     1.0  0.85231  0.51362  0.66807  1.0000
  C   C3533     1.0  0.84989  0.52326  0.83086  1.0000
  C   C3534     1.0  0.81300  0.52099  0.83154  1.0000
  H   H6243     1.0  0.82791  0.73088  0.92589  1.0000
  H   H6244     1.0  0.98234  0.59192  0.81308  1.0000
  C   C3535     1.0  0.85348  0.54115  0.83766  1.0000
  H   H6245     1.0  0.89906  0.97596  0.84677  1.0000
  C   C3536     1.0  0.96003  0.57266  0.94357  1.0000
  C   C3537     1.0  0.87664  0.50093  0.77272  1.0000
  H   H6246     1.0  0.97933  0.56200  0.52693  1.0000
  C   C3538     1.0  0.86444  0.55564  0.81692  1.0000
  C   C3539     1.0  0.90393  0.98398  0.80947  1.0000
  H   H6247     1.0  0.97922  0.95831  0.96118  1.0000
  H   H6248     1.0  0.96700  0.59550  0.91501  1.0000
  H   H6249     1.0  0.81940  0.96836  0.50539  1.0000
  H   H6250     1.0  0.84708  0.52495  0.81319  1.0000
  C   C3540     1.0  0.93623  0.90963  0.48123  1.0000
  C   C3541     1.0  0.84319  0.97945  0.48023  1.0000
  H   H6251     1.0  0.86105  0.81996  0.94592  1.0000
  C   C3542     1.0  0.88026  0.50490  0.68266  1.0000
  C   C3543     1.0  0.96047  0.93786  0.66076  1.0000
  C   C3544     1.0  0.95707  0.58274  0.92069  1.0000
  H   H6252     1.0  0.91174  0.81465  0.95433  1.0000
  H   H6253     1.0  0.86057  0.54076  0.85183  1.0000
  H   H6254     1.0  0.84153  0.54485  0.84365  1.0000
  H   H6255     1.0  0.96464  0.94318  0.51976  1.0000
  C   C3545     1.0  0.78828  0.57737  0.91662  1.0000
  C   C3546     1.0  0.83508  0.58669  0.85329  1.0000
  H   H6256     1.0  0.83971  0.63703  0.91434  1.0000
  H   H6257     1.0  0.93046  0.62623  0.95358  1.0000
  H   H6258     1.0  0.96716  0.92392  0.92826  1.0000
  H   H6259     1.0  0.85355  0.53315  0.67890  1.0000
  H   H6260     1.0  0.93708  0.53826  0.62578  1.0000
  C   C3547     1.0  0.98191  0.93873  0.86013  1.0000
  H   H6261     1.0  0.82111  0.62821  0.90398  1.0000
  H   H6262     1.0  0.85600  0.98680  0.90424  1.0000
  H   H6263     1.0  0.86833  0.56793  0.82272  1.0000
  H   H6264     1.0  0.87623  0.55223  0.80908  1.0000
  H   H6265     1.0  0.85704  0.55780  0.80335  1.0000
  C   C3548     1.0  0.81178  0.91130  0.49317  1.0000
  S   S794      1.0  0.86972  0.92802  0.47550  1.0000
  H   H6266     1.0  0.95085  0.59798  0.83884  1.0000
  C   C3549     1.0  0.78896  0.81916  0.83348  1.0000
  H   H6267     1.0  0.95968  0.94754  0.76110  1.0000
  H   H6268     1.0  0.89824  0.96363  0.73943  1.0000
  C   C3550     1.0  0.95532  0.98500  0.66879  1.0000
  H   H6269     1.0  0.92999  0.88611  0.90098  1.0000
  H   H6270     1.0  0.92886  0.53469  0.71987  1.0000
  H   H6271     1.0  0.81028  0.56755  0.87165  1.0000
  H   H6272     1.0  0.92459  0.92097  0.90979  1.0000
  H   H6273     1.0  0.85538  0.95521  0.90768  1.0000
  C   C3551     1.0  0.83493  0.91648  0.84246  1.0000
  H   H6274     1.0  0.79084  0.56570  0.91208  1.0000
  H   H6275     1.0  0.98376  0.95674  0.91980  1.0000
  H   H6276     1.0  0.80388  0.89031  0.47608  1.0000
  H   H6277     1.0  0.79630  0.56907  0.83888  1.0000
  H   H6278     1.0  0.91086  0.52207  0.74336  1.0000
  C   C3552     1.0  0.98122  0.58359  0.82985  1.0000
  H   H6279     1.0  0.88668  0.99008  0.83600  1.0000
  H   H6280     1.0  0.85175  0.75735  0.92043  1.0000
  H   H6281     1.0  0.85927  0.51322  0.75727  1.0000
  H   H6282     1.0  0.86799  0.96711  0.82434  1.0000
  H   H6283     1.0  0.88475  0.92924  0.85080  1.0000
  H   H6284     1.0  0.92272  0.96410  0.88367  1.0000
  H   H6285     1.0  0.90905  0.88164  0.75370  1.0000
  H   H6286     1.0  0.96229  0.59745  0.87399  1.0000
  H   H6287     1.0  0.91408  0.52784  0.91693  1.0000
  H   H6288     1.0  0.94672  0.98322  0.91469  1.0000
  H   H6289     1.0  0.82205  0.53352  0.82138  1.0000
  H   H6290     1.0  0.90980  0.96000  0.76191  1.0000
  H   H6291     1.0  0.98280  0.95828  0.88064  1.0000
  C   C3553     1.0  0.80857  0.80192  0.58342  1.0000
  H   H6292     1.0  0.80750  0.79458  0.93440  1.0000
  H   H6293     1.0  0.83705  0.60609  0.91531  1.0000
  H   H6294     1.0  0.92982  0.96795  0.85243  1.0000
  C   C3554     1.0  0.91911  0.94790  0.96186  1.0000
  C   C3555     1.0  0.95880  0.93383  0.75994  1.0000
  C   C3556     1.0  0.87564  0.52267  0.68009  1.0000
  H   H6295     1.0  0.93605  0.58920  0.95736  1.0000
  H   H6296     1.0  0.80846  0.58918  0.86156  1.0000
  C   C3557     1.0  0.93400  0.94642  0.73763  1.0000
  C   C3558     1.0  0.79544  0.52445  0.83887  1.0000
  C   C3559     1.0  0.85641  0.52025  0.68165  1.0000
  N   N197      1.0  0.93936  0.58563  0.92188  1.0000
  H   H6297     1.0  0.90635  0.93629  0.73981  1.0000
  Fe  Fe397     1.0  0.90947  0.50684  0.51038  1.0000
  C   C3560     1.0  0.94385  0.81922  0.96245  1.0000
  H   H6298     1.0  0.94747  0.92545  0.77325  1.0000
  C   C3561     1.0  0.79943  0.94224  0.54684  1.0000
  H   H6299     1.0  0.84009  0.49808  0.91830  1.0000
  C   C3562     1.0  0.98234  0.93202  0.53706  1.0000
  H   H6300     1.0  0.95502  0.80590  0.93633  1.0000
  H   H6301     1.0  0.92554  0.78521  0.93864  1.0000
  S   S795      1.0  0.86399  0.99117  0.94955  1.0000
  C   C3563     1.0  0.83067  0.73639  0.94095  1.0000
  H   H6302     1.0  0.88250  0.53137  0.66290  1.0000
  H   H6303     1.0  0.87893  0.52940  0.69391  1.0000
  H   H6304     1.0  0.81463  0.79019  0.61495  1.0000
  C   C3564     1.0  0.88974  0.61549  0.84495  1.0000
  H   H6305     1.0  0.96606  0.83821  0.91983  1.0000
  H   H6306     1.0  0.83113  0.94479  0.54549  1.0000
  C   C3565     1.0  0.97364  0.55449  0.49575  1.0000
  C   C3566     1.0  0.91663  0.94858  0.73227  1.0000
  H   H6307     1.0  0.87653  0.51001  0.54980  1.0000
  H   H6308     1.0  0.93430  0.90607  0.72560  1.0000
  H   H6309     1.0  0.98132  0.92381  0.55439  1.0000
  H   H6310     1.0  0.80888  0.50182  0.86332  1.0000
  H   H6311     1.0  0.92930  0.59447  0.85541  1.0000
  H   H6312     1.0  0.88393  0.87178  0.95851  1.0000
  H   H6313     1.0  0.97982  0.56188  0.92699  1.0000
  H   H6314     1.0  0.93522  0.52452  0.66707  1.0000
  C   C3567     1.0  0.87617  0.94515  0.87481  1.0000
  C   C3568     1.0  0.88982  0.93721  0.86240  1.0000
  C   C3569     1.0  0.93857  0.52486  0.63077  1.0000
  C   C3570     1.0  0.85226  0.92661  0.84531  1.0000
  C   C3571     1.0  0.89627  0.92563  0.87988  1.0000
  H   H6315     1.0  0.88592  0.91371  0.88896  1.0000
  H   H6316     1.0  0.88183  0.95340  0.82667  1.0000
  H   H6317     1.0  0.88320  0.95443  0.88375  1.0000
  H   H6318     1.0  0.86718  0.93467  0.88921  1.0000
  H   H6319     1.0  0.90110  0.94766  0.85161  1.0000
  H   H6320     1.0  0.84088  0.58039  0.90971  1.0000
  S   S796      1.0  0.89213  0.49942  0.48652  1.0000
  H   H6321     1.0  0.93948  0.55271  0.91168  1.0000
  H   H6322     1.0  0.93174  0.94328  0.75683  1.0000
  H   H6323     1.0  0.85603  0.61948  0.89428  1.0000
  H   H6324     1.0  0.82925  0.82126  0.59023  1.0000
  H   H6325     1.0  0.96747  0.92788  0.69218  1.0000
  H   H6326     1.0  0.93115  0.51666  0.74048  1.0000
  H   H6327     1.0  0.91710  0.91618  0.76920  1.0000
  C   C3572     1.0  0.90569  0.89150  0.76312  1.0000
  C   C3573     1.0  0.92127  0.90701  0.75927  1.0000
  H   H6328     1.0  0.93269  0.98399  0.69401  1.0000
  H   H6329     1.0  0.97929  0.91015  0.52134  1.0000
  C   C3574     1.0  0.94596  0.93979  0.70106  1.0000
  H   H6330     1.0  0.95429  0.95590  0.85665  1.0000
  H   H6331     1.0  0.95426  0.95340  0.69636  1.0000
  H   H6332     1.0  0.92442  0.56279  0.94840  1.0000
  H   H6333     1.0  0.79175  0.74382  0.56406  1.0000
  H   H6334     1.0  0.89387  0.60413  0.84025  1.0000
  H   H6335     1.0  0.96918  0.95113  0.65762  1.0000
  S   S797      1.0  0.94602  0.99064  0.58364  1.0000
  H   H6336     1.0  0.85379  0.97501  0.85934  1.0000
  C   C3575     1.0  0.86080  0.59599  0.86817  1.0000
  H   H6337     1.0  0.92466  0.59406  0.89752  1.0000
  H   H6338     1.0  0.85281  0.50949  0.58249  1.0000
  C   C3576     1.0  0.97221  0.83095  0.93191  1.0000
  C   C3577     1.0  0.81048  0.57440  0.83543  1.0000
  H   H6339     1.0  0.82959  0.53596  0.48981  1.0000
  C   C3578     1.0  0.91402  0.53728  0.92830  1.0000
  C   C3579     1.0  0.95001  0.95091  0.89437  1.0000
  H   H6340     1.0  0.79754  0.77024  0.57878  1.0000
  N   N198      1.0  0.89873  0.50545  0.68339  1.0000
  H   H6341     1.0  0.96041  0.54756  0.50396  1.0000
  H   H6342     1.0  0.93863  0.94843  0.90898  1.0000
  H   H6343     1.0  0.96349  0.96095  0.93037  1.0000
  C   C3580     1.0  0.81125  0.89302  0.48946  1.0000
  H   H6344     1.0  0.85818  0.94679  0.55891  1.0000
  H   H6345     1.0  0.93152  0.50330  0.66015  1.0000
  C   C3581     1.0  0.97830  0.56242  0.87324  1.0000
  H   H6346     1.0  0.97541  0.93130  0.78407  1.0000
  H   H6347     1.0  0.84233  0.76043  0.94863  1.0000
  H   H6348     1.0  0.83251  0.55478  0.87812  1.0000
  H   H6349     1.0  0.90606  0.92191  0.96160  1.0000
  Fe  Fe398     1.0  0.98291  0.96818  0.57894  1.0000
  H   H6350     1.0  0.83568  0.91550  0.50366  1.0000
  C   C3582     1.0  0.80274  0.79162  0.60911  1.0000
  H   H6351     1.0  0.86291  0.78449  0.93529  1.0000
  N   N199      1.0  0.84145  0.59168  0.87391  1.0000
  C   C3583     1.0  0.81839  0.82076  0.58139  1.0000
  C   C3584     1.0  0.84179  0.61539  0.89808  1.0000
  H   H6352     1.0  0.81980  0.52287  0.86462  1.0000
  H   H6353     1.0  0.90071  0.53858  0.93306  1.0000
  H   H6354     1.0  0.93134  0.94873  0.94984  1.0000
  H   H6355     1.0  0.90845  0.59174  0.94797  1.0000
  C   C3585     1.0  0.79697  0.58512  0.93203  1.0000
  C   C3586     1.0  0.81530  0.57936  0.85729  1.0000
  H   H6356     1.0  0.81673  0.76439  0.93699  1.0000
  S   S798      1.0  0.87214  0.94344  0.94666  1.0000
  H   H6357     1.0  0.80614  0.78463  0.83971  1.0000
  H   H6358     1.0  0.89380  0.61782  0.86111  1.0000
  N   N200      1.0  0.95990  0.93742  0.89871  1.0000
  H   H6359     1.0  0.96009  0.94046  0.55085  1.0000
  C   C3587     1.0  0.94307  0.60033  0.85459  1.0000
  C   C3588     1.0  0.83472  0.52858  0.47752  1.0000
  H   H6360     1.0  0.92846  0.50877  0.70295  1.0000
  H   H6361     1.0  0.94712  0.91588  0.68864  1.0000
  C   C3589     1.0  0.86334  0.80684  0.95007  1.0000
  H   H6362     1.0  0.84324  0.51668  0.87826  1.0000
  Fe  Fe399     1.0  0.86377  0.59999  0.95445  1.0000
  H   H6363     1.0  0.90733  0.52885  0.69576  1.0000
  H   H6364     1.0  0.79790  0.93682  0.51290  1.0000
  H   H6365     1.0  0.94294  0.97978  0.86846  1.0000
  H   H6366     1.0  0.84057  0.64171  0.88358  1.0000
  H   H6367     1.0  0.90491  0.51025  0.64573  1.0000
  H   H6368     1.0  0.94020  0.82969  0.95127  1.0000
  H   H6369     1.0  0.97328  0.94227  0.84901  1.0000
  H   H6370     1.0  0.93956  0.78368  0.96646  1.0000
  H   H6371     1.0  0.85826  0.94526  0.51764  1.0000
  H   H6372     1.0  0.91114  0.49577  0.72668  1.0000
  S   S799      1.0  0.97666  0.98339  0.82345  1.0000
  H   H6373     1.0  0.95072  0.55964  0.94974  1.0000
  H   H6374     1.0  0.95097  0.98010  0.95516  1.0000
  H   H6375     1.0  0.95250  0.52570  0.62853  1.0000
  H   H6376     1.0  0.96600  0.80800  0.95933  1.0000
  H   H6377     1.0  0.80074  0.76640  0.67964  1.0000
  C   C3590     1.0  0.79367  0.60015  0.93810  1.0000
  H   H6378     1.0  0.91355  0.93197  0.48398  1.0000
  H   H6379     1.0  0.91120  0.79101  0.90645  1.0000
  C   C3591     1.0  0.91532  0.80225  0.95926  1.0000
  H   H6380     1.0  0.93960  0.86233  0.48338  1.0000
  H   H6381     1.0  0.92428  0.89947  0.48232  1.0000
  H   H6382     1.0  0.98022  0.98786  0.64719  1.0000
  H   H6383     1.0  0.80184  0.57044  0.62092  1.0000
  Fe  Fe400     1.0  0.98005  0.89438  0.95713  1.0000
  H   H6384     1.0  0.85517  0.50321  0.86700  1.0000
  C   C3592     1.0  0.97805  0.56986  0.94003  1.0000
  C   C3593     1.0  0.98438  0.56265  0.50873  1.0000
  H   H6385     1.0  0.85723  0.87910  0.96850  1.0000
  H   H6386     1.0  0.93208  0.98732  0.96244  1.0000
  H   H6387     1.0  0.93420  0.94771  0.47496  1.0000
  H   H6388     1.0  0.79142  0.53031  0.82322  1.0000
  C   C3594     1.0  0.97305  0.94631  0.95611  1.0000
  H   H6389     1.0  0.79599  0.53363  0.85065  1.0000
  C   C3595     1.0  0.97074  0.95089  0.93123  1.0000
  H   H6390     1.0  0.80967  0.82800  0.58911  1.0000
  H   H6391     1.0  0.98275  0.53144  0.94266  1.0000
  H   H6392     1.0  0.96725  0.93007  0.65081  1.0000
  H   H6393     1.0  0.97791  0.83958  0.94253  1.0000
  H   H6394     1.0  0.97995  0.56290  0.95670  1.0000
  H   H6395     1.0  0.81774  0.92052  0.47605  1.0000
  C   C3596     1.0  0.86248  0.50280  0.58583  1.0000
  H   H6396     1.0  0.87670  0.49961  0.66777  1.0000
  C   C3597     1.0  0.94642  0.99170  0.95758  1.0000
  C   C3598     1.0  0.80345  0.93210  0.52772  1.0000
  H   H6397     1.0  0.80777  0.95570  0.54238  1.0000
  H   H6398     1.0  0.79830  0.91188  0.49854  1.0000
  H   H6399     1.0  0.78877  0.77981  0.48830  1.0000
  H   H6400     1.0  0.82446  0.89191  0.48334  1.0000
  C   C3599     1.0  0.78711  0.74462  0.60084  1.0000
  S   S800      1.0  0.85199  0.87596  0.47229  1.0000
  C   C3600     1.0  0.78666  0.76398  0.68108  1.0000
