data_image0
_chemical_formula_structural       FeSCFeS2FeHCS2HC2H3CH2SH3FeSHFeS2H2CSH2CHC3HFeS2FeSFeSFeS3CH4CH2SCFeH2FeS2FeHFeS2H2CFeHSH4CHC3HSHC6H6CH3CH2C3SHFeH2C2H2C6H9NHSH3C7H4C6H4C3H3CH4CH3C3HC2HCH9SFeCH2C2H2SC3H6CHC3H5C3H5SC2NC4HC2H2C2H16CH2CH6SH3C2H2C2NHC2H2CHC2SCH2CH3C3H6CH3CH3CHCH2CH9NC5H2C3HCH3CH6SHC4HCH3CHC5H2CH2C2H2CHCNC8HC4H17CH7CH3CHCH2CHCH2C2HFeC2HSHCH4CNHCNH2CH3CHCHCSHNC12H22CH6C3SH3CH2SC2SFeHNC4HC2HCSH8CHSFeH3CH6CH5CH3CSH2C2H6C2H2SH5CH4SHCH3C3HCH5C2H3CH2SNCH2CHC2HNCH8CHCH5CH4SC2HCH8CSHNHCHCH4SCHSFeS2HC2HCH3CNFeS2FeS2FeHFeS2FeS2FeS2FeSFeS3FeS3FeHFeSHS2H2SFeS2FeS2FeHFeS3H2FeS2FeS2FeSFeS3HCH2FeC2HCH5SC6H4CHC3H2C4H2C2NH2CH2C6H4CH3C7H4C6H4C6H4CHC3H3C3HC2H2SHS2HSH2C5H6FeC6H4C2H4CHCHCHC3H2CH2CH5C3H4CH4C3H3CHC2HCH4CH2NCNC5H2C3H2CH10C3HCHCH10CFeHSCH3SHCH2C2HSC2HC3H2FeH6NC12H17CH5C2H4NC10H12CH9C2H3NH3SH3CHCH3C3H2CH2C3H10C2H3C3H8CHNHC3HCHCH2CH8C2H3SHCHC2NC9H21CHC4HCHCH2SH4CH2C2HNH5FeH2C2HCH2FeCHCH3CH3CH2CNH4CNHNCH3CH2C3HNH4CH2C2H7CH3CH8C2H2CH3CH3C2HC2HCH5C2HCHSH3FeC5H2CHSHFeSH3CH2SH4CFeHNSHCH4SH2SC3H2CHSH2CN2HCH2CH2C4HC2HSC3H2CSHC2H7CH3SCH5C2H3CHCH3C2SH2CH2C3HNH3CHC2H3CH2CH2CHC2H2CHSHCH4CH4CHCH2C3H2CH2SH4CH2SCH3CH14CHCH7C3H2CH2CHCSH3C2HSC2FeH5FeCHCH2FeH3C4H15FeHFeHCHCH2SH2FeSHS2FeSCSFeS2HCHCHCSCHFeS2FeS2FeSFeS3HFeS2FeSFeS2HFeS2FeS2FeSHFeSFeS3CFeS2FeS2FeHFeS3HCHC3NFeSCHNCFeHFeCSFeSHSC2FeS2C2H2SHFeHCH3CH2CH4C2HC6H5S2NCH5SHCHC2HCH3CH5C3H3C2HCHCH2CHC2H2C6H4C6H4SCH2C5HCH2C3H3SHC6H4C6H4C6H4C3H4CH3CSH3C2HSH3FeH2SH2CH3C5H2C6H5CHFeH3NH2FeH2CH2NCH4CHC2H4C2H2NC8H12CH4C2H2NHSHCHCH7CHCHFeCH3CH2C5H3CHCH2CH2CHCHCH4CHCH3C2HC2H3CH4NC5HC3H18CH3CHC2HC4H11CH3C3H4CSCHC2HCH2CH3CH2C2SH2CH3CH2CH3CHC2H4CH3NC2H14CHFeH2C2HCHCSC2H3CHNCH2CH3C2HCH5C4HC3H10CH2CH2CH2C2H4CH2CH3C2H4C2H2NC4NC4HC2H19CHCH6C4H7C2H3CH14CHCFeHSH5CH4C2NCHC4H2SH3FeH2CH2CHC2H2NH3SHC2H2C2SH2CH7CNCH4NH7CH2CHCHCHCHC3HFeHCH11CFeHCH8CHCH3CSH4CHC2HCHCSH11C2HSHCH2C3HC4H4C2HNHCHSH5CH4SFeH5CHSH3CH2CFeH3FeS2FeSFeSFeS3C2H2CSHSH3NH7S2HSCSCSCSH2FeC2H3FeHFeSFeS2CH5SCH3NH6C3H2FeHCFe3H2NS2H3CH5C3H5C3H4CHSC5H3CH5SH2CH3CHSCH2CHCH3CHCHSC6H5CH2C2HFeH3C5H2C2H3CSHCSC6H2CHC6H4C6H2CHCHC2HCH2CH4C2H2CHC5HFeSHC2H3CH6C2NC4H2C2H4CSH2SC2H5FeH6FeH3SH4C2H4C2H6C2H3CH3CSCH3CNH2NC4HC4SC2H6CH2CH9NHCH6C2HCHC2H2C2HCH3CH4SNC4HC2H2CH5CH2CNH4SC2HC2H3CHCHC3H2CH3SCHCH6CHFeC4H3CHC2HFeH4SCSH4CH4C2H2CH2C2HFeHSHCH5CH2FeCSH2CH6NH2CHC2HNC2SC7SH11CH2CH4NH3NH5CHSFeHC2H5C3H4C2HCNH2CSH3CHCH2CHCHC3HCH7SCHCH2CHCH8CH2CH2CHCH5C2H2C2H5CHCH4C3H5CH2CH7CHCH5CH5CHFeS2FeHFeS2FeS2FeSFeS3FeSCFeS2FeSFeS3H2CHSH4CS2FeSFeSFeSHS2FeS2FeS2FeSFeS3FeS2FeSHFeSFeHS2C5H3C3H2C2HCH2C6H4CH2C6H4C6H2SC2H2CHCH2CHCH2CHCHSC6H6C5H2SC6H4C4H5C7H4C2H2C7H6SCH2C2HC2HNC2HC2H3CH6C2H3NH2C2H3CHCHCH2C2H2CHCFeH2FeCHCHCH2SHCNHC2H3NH2FeH2CHC2H2CH2CH2FeCHC5H4CH2C2H4C2HCH7C2HCHCH2C2HNCH2CHC2H2CH3C2H3NC12H30NH8CHCHC2HC2H4CHSH2S2HC9H11SNCHC3HFeNCH15CH4CH5SHSFeHCHSH4FeHCH13NH4C2H2CHSH5CHSC2HS2NC3HC3H3CFeCH5CH3SNC12H26CHFeHCSH2CH3C7SHCH8NC3HCHC3H2CHFeH8CH9SH9CNCHCFeCH3CH4C2H2C2HCHSNC11H24C2HCHCH2C3H6C2H2SH3C3H4C2FeH2SCHCHCHCH6CH5CH2CNH3CSCH3CSH7C2H7C3HCH2CH2SH5CH3CH6CHCH3CH2C2H8CH2CHCH6C2HCH2CHSHC5H2CH8CHC2H2CNH4FeSH2FeS2FeHC3FeS3FeS2FeSHCHSHFe2S2HNH3C2SH2FeS2FeS2FeSFeS3FeS2FeSHFeSFeS3CHFeSCFeS2FeSFeS3CH2CHC2H3C3HFeCH3C2H2CHCH5CHCHC6H4CHC2H3C6H5CH5CNHFeHC3HC7H7C4H2C2HC6H4C6H4CHC6H5NC4HC2FeC2H5CH9CH3C2H4C2HCNCHCHCHCH2CHCHCH2CHC2H3CH4CHCH3CH3CH3C2H2SH8CH7CH2CSHC2HCHSCH4NCHFeH2C3HCHCH5CHCH2NH8CH2C2H3CH3CFeH2CH4CH4SHCH2CH3NC12H18SC2H3CH2SCHC4H2CHSHC2H3CHSH2CH5NH4CHC2H3C2HSHCHC3HCHCNHCHCH2CH5CH2C2HCH2CH10CH3CFeHS2H4CNH4CH2CSH8SH2CFeH3CHCH2CH11CH3CHCH3CHC2H4CH7CHCH5CSC2H3CH3CH3CH3CHC2HSH2C3HCH3SH2C2H2CH2FeCHCNC3FeCH2SH5CHSCH2FeS2FeS2FeSFeS2FeS2FeS2FeSFeS3CHCHFeS2FeCSHFeHS2H4C2SFeCSCHCNH2SCSFeSHCFe2S2CHFeS2FeSFeHSCSCHFeSHC3H3C2H5SHCHC6H4C4HCH10CHCHCHCH4C7H4C2NC5H2C6H4C6H4C3SH6C6H5NH2C6H4CNH6NC6HC3H14CH8CH2CH4SC3HC2H4CH6C2H2CH2CHCH3CH13C2HCH3SHCH3CHC2FeHCHC2HSCH4NCHC2HC3H2CH14C2H2CH3C3HCHCHCH8SCH2C3HCH2CHCHCH4CHC2HCFeH10CHNCH2C2HCNH3C6H4CSHCH2C2H3SCHSH2C2SHCH2NSH3CH2CHNC12H22CH5C2H4CHCH3CH3C3SH2NC3H5CH2FeH11CH3CH2CH2CHNHCH3C4H2CHNC11H25CH5C2S2HSHFeHSCH5CH3CHCHCHCH2C3H8C2SC2H5FeCH2FeH4C4H3CHC2H2CHFeC2H3CH3C2HCH3SH2CH2CH3FeSHFeS2FeSFeNSHFeS2FeS2FeSFeS4HSCH3SFeS2CH2FeS2FeS2Fe2HS2FeS2FeSCFeSFeS3H3SHFeH6FeS2HFeHFeHSHCH4C4HSCH2C5H3C6H4C6H4CSFeC3SHFeC6H10SHCH2SHC6H4C6H3C6H4CH5CHC10HCH2SC2HC2H4CH2CH3CH2C3H3FeH8FeCH5CH2CHCH3CHC2SH2CHCSHCH4SHSCH4C2NC2H2CH2C2HC2HC2H4CH8C2H2CH3CH4CNC10H25FeCHCH5CNHC2HC3FeH2CHCH5CFeCH5FeCSC2H6NCHC5H8SH5CH3NC7HC3H22C2H6SCNC3HCNC10H11CH6C2H3C2NC12H21CH9CHFeSH3CHCHCH2SH3SCHCHC2H5SH2SH2SCNC12H17C2H8CHC2H6CH7CHCH4FeHCHCH7SHC2S2HCHCNC8HC3HSHCH13NCH4SH3CSCHC2H4CHCHNHC2H2CH6SHCH4CH6CH9CFeH7C2HCHSH3CHFeH2FeS2CHCHSHFeS2FeS2FeCFeS2FeS2FeS2FeSFeS2FeS2HFeSHFeS2FeSFeSFeS3FeSHFeS2FeSFeS3HCH4CSH3CHC2FeS2FeS2C2HCHCHC7HCH7C4H4CH2C6H4C6H5SCH3CH2C3H2C2HFeC2H4C6H4C3H6CHCH2C6H4CH2CHCHCH6C4H3NH2C6H4C2H2CHSHCHCHCH4CH2CH6FeC2H5C2H3CH3CH4CSH4SC2HFeCH5SHC2H2CSHSCHFeSH3CH2CNC12H18CH5CH2SH2CH6CH2SCH6NH2C2SCH2CHC2H3SH4CH5CH5CH2CH2C5H2CH2CHC2NC7H3CFeH16CSHC2H2C5HC2H2SCNC7HSCFeC2H2C2H4C2H2CHFeHFeHCH11SH3CH5CHCHFeCHNHCH3C2HCH5NC5HC5H4CH14CH4NH2C3HCHNCH2CHSH4C2HCH10NH5SH3CHC2H3CH2CH4CHCH3C2HCH2CH5CHC3H3C3H3CHC2H3C2H3CH4FeCHCNHC2H3SHNHCSCHCH2NC3HNH3C3HC3SH6CH4CH2CH11CH3C2H2CH7CHC2H2C2HC2HC3H4CH3CH3SH3CNC6H4CNH2SH6CHCHCHC2H8C2HCH6CHNH3CHSH5C2H8C3H2SH3CHFeSHFeSFeSFeSH2SCH2S2FeS2FeS2FeSFeS3HFeSFeS2FeSFeS3CHCHSCFeHCFeS2CFeSCSHC2NHC2H3C2HC2H11CHC2FeC6H4C6H8C6H4C6H2SHC6H5CH5C8H4C4H3CH3CHCH2CSCHC3H5CH2C2HSHC2H3CH3C2H2CH2CSCH3CHCFeH5SCH9CH2CH16CH3CHNC11H27C2HSH3NHCH3CH2C2H2C2HSC2H4NC5H2C2HC2H4C2H6C2H15NC7H2C2HCH3CH10CHCH10NC3HC2H13CH2CHCH2SNHCHCHCH4CHCH3CH3C3H4CH2CH4CHCH3CH3CH6C2H2C2H3CH2CHC3H2CHFeCNC5SH2CH3CH7NH2CFeH2CH6C2HCHCNC4HC4H2CH9CH9NHCHCSH3SH3CHCNCHC2FeHC2SCHC2H2CH3CHCH8CHCH3SH3SC2H3C4HCH7CHCH2CH2CHCS2H4CHFeSFeS2FeS3FeS2FeHSH2FeHS2H2SFeS2FeS2FeSFeS3H2FeCHFeSHFeS2HSC7H5CH2CHSC3H4C6H2CHC3H3C7H3CHCSH2CHC6NH5CHSFeC6H4C6H4CHFeHC2H2SC3H3CHC2HC2NC12H26C2H2S2C2H2CHCH2SH2C4H3CH4CHFeCSC2HCHCHC2H4C2H3CH3NFeC2H6CH5CNH2CH2SCHSH3CH2C3HC3SH4CH5C2H2CH4NC12H33CH3FeHCH4SH2SH4C2H3NHCHCH2SH3CH5C2H4C3HCHCH4C3H2CH4SC2H2CHC2H2C2H6SHCHCH4CHC2HC3HCHC3H4FeH4CHCH10CHNH2CH7CHCHSHCH2C3H9CH4CH4CH6CSH6CH3CH2CHC2SH2SHC2HSH4CH5CFeH4C2HCFeS2FeS2FeSFeHS3H2CFeS2FeCFeH2SCHSH2FeS2FeS2FeSFeS3FeS2H3FeSH2SCFeS2FeSFeS4CHCSCFeS3HFeS2FeS2FeS2FeHFeS3C6H4C6H4CH2CH3C3HCSH2C2H5CHC2H9CSC6H4C6H6C6H4CH2CHC2HC6H5CHCHCHCHCH2SC3HC7H6FeC6H4CFeHNH6CH3CHFeC4SH2CHC4H2CH5CH5CH2CH3CHC2H4CHSHCHCH5CNC10H17SH4CH4CH2NHC3FeC3HCNH6CH4C2H6FeHC3HC2H6CSH4FeNC6HCH13CHC2H4C2HC2H2SH2SCH2CNC12H28CHSFeSC2HC2H2NC8HC3H32CHSH4CH2NHCH3CHCNHCH6C2NHCHC4H4CH3C3H6C2HCSH4FeCH9SFeHCH10CH2CNCHSC3H7CH4CHNC3H5CH3C5HC2H3CH2CHCH5C2FeCH4FeH4CH2C2H3CH3SCH4C4HNCFeHCH2C4H3NH2CHFeNHCSH2SH3CH2C2H3C5HCH3CH3CH5SH4C2H4CHC2HCHFeCHSC2HSHCFeH4SCH6CSC2NCH3FeHC2H4CH6CHC2HCH5CH3CH7CHC2HC3H2CHCH2C2H2SFeS3Fe2S2FeSH3FeSFeSCSFeS2H3SHCSH2C2HCH2SFeHSH2CHFeSH3S2FeHSFeH2SCFeHSCHCH4SH3CHC2H3CHC6H4CH2CHC2H2CH2C2HNHC2HCHCHCH2CHC7H4C6HSH9SCH2C3HSH2C7H4C6H8CSHSC3NC9HC2H28CH2CH6C5H5CHCHC2H3CNH2C3H9CFeHCH2CH2CHNH2CH4CHCH3CH4CH4C2H3CH2C2HCFeHC2H3CSCH3CH5CH7CHCHC2H2SFeH2CH6CHSHSHCH5C2H2CHC2H12CH4CH4FeHCH2SHCH3CH2CH2FeH3C3H5C4HCSH6C4H4CHCHCH3FeC2HCH3C2H8C4H3SHCHCH2C3HCHCHNH2C2HCHCHCH2SHFeC4FeH11SCHC3H3C2H4SHNH2S2HCHFeSH2C4H3CHCHCHNH2C2HCHCH2CHSHNH5C2SH4C2HCH2FeH8CSH2CHSH2CH2CH4NHCFeS2FeSFe2S4FeCSH4SHSFeS2FeSHFeHFeS3FeS2FeSFeSFeSFeS2FeS2FeSFeS3FeSCH2CH2SFeCSHC4SHC3HC3H3CHSC6H4C3HC7H5C6H4C4H4C6H4SNH2C4H5C6H4CH2NH4C2H3C3H4C6H5SHNC12H23C2H4CHC2HCH2C2SH2NHC4H6CHCH2C2H4C3HCHCSCHCH3CHCHCHFeHCHCHCH3CH9CH4CH2CHCH2CHC2HCS2HCH5NC2H4C3HC3H20C2HC2HNC2H2C2H13CH3CH2C4HC4HCHCH2CSH2CH2SH4CHFeHC2H2NC12H18CH9NC12H18NH11CHSCH2C2HCH9FeH2CHCH4CHNH3CHCHC2NSHC2H5CHCHCFeCH6SCH3CH3CHCH5CHSH2C2HCH2CH9CHCNC2H2C6H4CHC2HC2H10N2CH2FeHCHC2FeSH2CSHC2HCH5C2HNCHCHCH3CH5CH3CHCSH2CHC2H16CH2CHC2H7C2SH4CH3CH3SHCSCH8C2H6SHC2H2CFeHSFeHSH4S2CHSHC2HNSHCHC2HCHCHSH4SFeS2FeS2FeSFeS3FeSFeS2FeS2FeS2FeS2FeSFeS3H2FeHS2H3FeCSH2CSCHSNC2HNHSH9NH4SH3SCSH2CH2C2H3CSCH5C2H4SC6H2CH4C4HCH3C6H4C6H4C6H4C6H4CHC4H4C6H4NCHCH5CH8NH2C2H3C4HC6H4C6H8C5H2CSC2SH3FeCH3CH6NH9C3H2CH4C3HSHNH6NC3HCH2C2H6CHCH9CH2SH4C2HCH5CHNHC3HC3H2CH4CHFeH4CH9CNC11H5FeH7CH3NH9CH2CSCH4FeCH2CH2FeCH4CHSHCH4C3HC3H7C2HCH5C2H3CH4C2HC2H4NH2C4H3C2H2CH15CH4CHCH2C2HCHNH2NC2HCHSH2CH2C2SH5NH2C2HC3HNC10H8FeH14CH2SCHC5HCH5CH3CH3FeH5FeC2HCHCHC3H4CFeCHCSC2H2CHC3HC3H3SH4CH3CHCH2C2H6CH4CHC2H3CHCFeC3H3CHC2H7C2H5CSHC2H2CH3FeCHCHCHFeH8CH2CHCFeHC2H3FeH2CSHNH5SCSHC2H3FeHFeHCH3S2HFeSCHCFeH4CSH3FeS2CH3SHFeS2FeSFeSFeS2FeH2FeH2SFeS2H4S2FeS2FeHSCSCS2CH3C5H4SH4C6H4C6H4C2HC3HCH2C3H2CH2CSH2CFeCSHFeC2S2H2C3H2CHNSCH2CH2FeC2H2CH2CSC2H8SH2CHCHCSC4H2C2H3NH2SH2SCNSHSC2H4CHNC12H28CHFeCH4C3H2CHCH2CH2CH4SH10C2H2SNC7H17CH8C3SC2H4C3H3FeCHCH3CH9C2H9C3H3CH2CH3C2HSCSC2H5CHC8HNC2H2C2H4FeH2C5NFeH3CHCH3CHCH12CH2CHC2HCHFeH4CHC2SNC11H26CHC3SCH8C3HC2HCH5C2H8CFeCHNCHSC2NH5C3H3C2HNCFeH2FeH3SCH2C2H2CH6CH2CHCHC2H3C2H3CSHCSHCHCHSHSHC2H3FeCH3CH2CH7CH6SH5C2H7CHC2SH8C2HFeSH4SHCFeHFeS2FeS2FeSFeS3FeS2FeS2Fe2S3HCHCH2SH3CHCSFeCFeS2HFeS3H3C2HCHC2HSHCSH5CHSHC4H2C5H3CHC3H4C6H7CFeC2H3C2H6C4HC2H2CHC6H4C6H5SH6CHC5H2C3HSHC2HFeH3C4H5C6H5C3HCFeHCH3CHC3H3NCH2SHCH4SH2CH4SC3NC12H24SHSHNC11H30CH5CSCH4CH2CH6C2NCH3NC2H2C2H2NCH5C2HNH3C3HCSH2SCHC2HCHCH2CHC2NH6CH3FeC2H2CH3CH2CH2NC2H2SHCSCH2CHC2FeH5C2H5NC7HNC3H14FeC2HCH6CHSCH6CH3CH2SH3C2NC3H3CHFeC3H8CH8SHC2H2CHSH6FeSH2CH2CHSH2C5HC2NHCHCH3CFeH4CHCH3C2FeHCSC2SHCH2CHC2SC2HSH3CHCHCSHSC2H2CH2FeH2SCH4CH2CH8NH4C2H10CH4CHC2H2C2HCHC2FeH4CHCSHCHCH13NHC3HFeS2FeS2FeSFeS3HC2HSH2S2HCHFeCH2SFeSCSC2S2FeH2SHFeSHFeSFeSFeS2HCH2CHC6H4FeC2H4CHCH2C6H3C3HCH3CH2Fe2C6H4C6H3CFeH2C2NH2SC2NFeH2FeC2H2SH5S2CHCH3FeHCSNCHS2HSH2CHCSHCHCH6C3HCH3CHC2HCH7CH4CFeH3CHNC3H4C2H2CH5SH4CHSH6SH2FeH2CH4SNC12H16CH7CH3SCH4CH4FeHCH2SHCHCSCSHSFeH4CHCNHC2H2SHCH6CH7CHC3HCHCHC2H2CH2CH2CHC2HNC12H29C2HFeHC2HSCH4CSC4H4SCFeC7HNC9H15CH2CH2C2H5CHCH3CSH4CH5SH2CHC4HNC12H28NC8H2CH10CH5CNC12H9CH8CH2CH6NC9HC2H19CHCH11CHCSH2CSCH6SCH4CHFeCH8CFeH2SH4C3H6CHCH5CHCH6CH5CH4CH3FeCHSHCHCHC2H5CNCH3CHCH2CH2CFeS2FeHCH2FeS4CSCH2FeS2FeSFeSH2FeS2FeS2FeSFeS3FeS2FeHSNFeHS2HC2H2FeSHCSH3CH4FeC2FeHSFeS2FeSHSH4CSHC6H3C2HCH2CH2CH2CH4CHC6H2C3H8C2SHC7H4C6H6C6H5C6H4C6H5SHCH2C3H6C2SHCHCH2CH4C2H2CHCFeH4CH2SH9CNH2C2H2FeCH4NCH2C2H7CH2FeHC2NH3CHNC12H25CHSC2HSFeH3FeC2H2CH3CHC5H16C3HCH2CH4SCH2CHC2H3CH2CH2CH2CH3NC12H35SC3H3CHNCSC3HFeCSH2CHCHC2H2CH2CNC12H31CHC2H2CHC3H2CH6CH2NC2H2SHCH5SH2CHCH3SCNHCH2C2H4CH2C2H3C2H2CH2CH3FeHC2H2C2H2CHCH2C2HC2H5SH2CH2C4H4CSC2H6CHSC2HSCH4C3SH2CHCHSH3C2HFeH4CHC2H4CHSH3CHSH2SHCH8CH6CH2CNCHCH3FeSHFeSHFeSFeS3HCHSHCHSCNSFeS2FeS2FeSFeS4CSHSHFeC2H4CHCHSFeS2FeS2FeSFeS5CH2C2H2S2H2SCSHC5H2C6H6CH2CH2C2H3CH2C6H4C6H2CHC6H4C6HCH2C2H2NH5CHC2H2FeCH6C6H5CH2CHCH3C4H3CNCH2FeC2SH5CHNC2HC3SC4SH2C3H5CH14FeH6C3H13CHCH2CNH3C2H3C2HCH2CH4CNC9HC2H9CH9CH8NC10HCH10C2H12CH4CH3CFeH3CH3CHCHC2H2CHC5H2C2H2CH2CH3CH5C2FeHCHNH4SCH5CH3NC11H16CH6CSH3CNHC3HC5HC2H7C2H13CH4NC12H4CH13CH4C2H3C2H3C5H2SH2CHSHSCHFeCH2SH8CH3C2H2NHCHCSCHCH4CH3C3H2FeSHCH3SHCH4FeCSFeCHCH4SH2CH4FeC3H2CH5FeH4CHNH2CHSCH7CH2CHCH3
_chemical_formula_sum              "Fe544 S1088 C4896 H8704 N272"
_cell_length_a       76.3165
_cell_length_b       76.6919
_cell_length_c       76.6065
_cell_angle_alpha    75.4834
_cell_angle_beta     75.4419
_cell_angle_gamma    75.5548

_space_group_name_H-M_alt    "P 1"
_space_group_IT_number       1

loop_
  _space_group_symop_operation_xyz
  'x, y, z'

loop_
  _atom_site_type_symbol
  _atom_site_label
  _atom_site_symmetry_multiplicity
  _atom_site_fract_x
  _atom_site_fract_y
  _atom_site_fract_z
  _atom_site_occupancy
  Fe  Fe1       1.0  0.09842  0.42203  0.01016  1.0000
  S   S1        1.0  0.07737  0.44481  0.02141  1.0000
  C   C1        1.0  0.12874  0.00811  0.12424  1.0000
  Fe  Fe2       1.0  0.12866  0.42851  0.02609  1.0000
  S   S2        1.0  0.10993  0.45144  0.03914  1.0000
  S   S3        1.0  0.15918  0.41893  0.02611  1.0000
  Fe  Fe3       1.0  0.08862  0.43371  0.04715  1.0000
  H   H1        1.0  0.00183  0.39936  0.01629  1.0000
  C   C2        1.0  0.16378  0.08351  0.98778  1.0000
  S   S4        1.0  0.10835  0.40986  0.03668  1.0000
  S   S5        1.0  0.12040  0.43901  0.99857  1.0000
  H   H2        1.0  0.17739  0.06468  0.00833  1.0000
  C   C3        1.0  0.15892  0.15647  0.35228  1.0000
  C   C4        1.0  0.17850  0.07863  0.99994  1.0000
  H   H3        1.0  0.99887  0.45195  0.02552  1.0000
  H   H4        1.0  0.02402  0.30483  0.34556  1.0000
  H   H5        1.0  0.98632  0.02209  0.17296  1.0000
  C   C5        1.0  0.00811  0.44719  0.08251  1.0000
  H   H6        1.0  0.98607  0.43340  0.41763  1.0000
  H   H7        1.0  0.17430  0.08777  0.01012  1.0000
  S   S6        1.0  0.14403  0.04021  0.99403  1.0000
  H   H8        1.0  0.01933  0.11910  0.32732  1.0000
  H   H9        1.0  0.00334  0.35718  0.22595  1.0000
  H   H10       1.0  0.01467  0.10141  0.28734  1.0000
  Fe  Fe4       1.0  0.02855  0.02676  0.27175  1.0000
  S   S7        1.0  0.05543  0.02880  0.25190  1.0000
  H   H11       1.0  0.13727  0.38828  0.00989  1.0000
  Fe  Fe5       1.0  0.06531  0.03352  0.27530  1.0000
  S   S8        1.0  0.08141  0.05627  0.26826  1.0000
  S   S9        1.0  0.03761  0.03413  0.29417  1.0000
  H   H12       1.0  0.02496  0.39493  0.17373  1.0000
  H   H13       1.0  0.01950  0.01451  0.15849  1.0000
  C   C6        1.0  0.12962  0.97897  0.19895  1.0000
  S   S10       1.0  0.02207  0.23872  0.32486  1.0000
  H   H14       1.0  0.00377  0.98121  0.18612  1.0000
  H   H15       1.0  0.16454  0.09659  0.97765  1.0000
  C   C7        1.0  0.17944  0.02225  0.99708  1.0000
  H   H16       1.0  0.14552  0.12786  0.37549  1.0000
  C   C8        1.0  0.11746  0.42428  0.30689  1.0000
  C   C9        1.0  0.17356  0.14220  0.30526  1.0000
  C   C10       1.0  0.98929  0.30683  0.31112  1.0000
  H   H17       1.0  0.01097  0.29021  0.40804  1.0000
  Fe  Fe6       1.0  0.10881  0.10903  0.32577  1.0000
  S   S11       1.0  0.08630  0.12528  0.34393  1.0000
  S   S12       1.0  0.10855  0.07882  0.32988  1.0000
  Fe  Fe7       1.0  0.12578  0.14234  0.30570  1.0000
  S   S13       1.0  0.10411  0.16137  0.32169  1.0000
  Fe  Fe8       1.0  0.10822  0.13873  0.34621  1.0000
  S   S14       1.0  0.10942  0.14834  0.37133  1.0000
  Fe  Fe9       1.0  0.08401  0.14639  0.31803  1.0000
  S   S15       1.0  0.05516  0.15760  0.31293  1.0000
  S   S16       1.0  0.13131  0.12053  0.33052  1.0000
  S   S17       1.0  0.10514  0.12937  0.29963  1.0000
  C   C11       1.0  0.09465  0.03383  0.21096  1.0000
  H   H18       1.0  0.16554  0.36624  0.99974  1.0000
  H   H19       1.0  0.03822  0.00548  0.20245  1.0000
  H   H20       1.0  0.17104  0.09137  0.44558  1.0000
  H   H21       1.0  0.10521  0.40075  0.31531  1.0000
  C   C12       1.0  0.01964  0.45403  0.06614  1.0000
  H   H22       1.0  0.11448  0.46136  0.07577  1.0000
  H   H23       1.0  0.07648  0.99760  0.36568  1.0000
  S   S18       1.0  0.07601  0.00359  0.28570  1.0000
  C   C13       1.0  0.05979  0.44526  0.30092  1.0000
  Fe  Fe10      1.0  0.00772  0.41242  0.27303  1.0000
  H   H24       1.0  0.11251  0.39408  0.11702  1.0000
  H   H25       1.0  0.01163  0.31440  0.40186  1.0000
  Fe  Fe11      1.0  0.04773  0.40066  0.27733  1.0000
  S   S19       1.0  0.04076  0.38147  0.30419  1.0000
  S   S20       1.0  0.07637  0.40600  0.26403  1.0000
  Fe  Fe12      1.0  0.02201  0.37328  0.29073  1.0000
  H   H26       1.0  0.08858  0.38631  0.34178  1.0000
  Fe  Fe13      1.0  0.01709  0.40430  0.31093  1.0000
  S   S21       1.0  0.03100  0.39059  0.26308  1.0000
  S   S22       1.0  0.02521  0.42424  0.28487  1.0000
  H   H27       1.0  0.00617  0.36337  0.35186  1.0000
  H   H28       1.0  0.10154  0.05372  0.22287  1.0000
  C   C14       1.0  0.08535  0.45063  0.33377  1.0000
  Fe  Fe14      1.0  0.16711  0.35510  0.28759  1.0000
  H   H29       1.0  0.14721  0.42222  0.30027  1.0000
  S   S23       1.0  0.14011  0.36261  0.30656  1.0000
  H   H30       1.0  0.99651  0.36857  0.25755  1.0000
  H   H31       1.0  0.01839  0.41558  0.23047  1.0000
  H   H32       1.0  0.10648  0.41664  0.10326  1.0000
  H   H33       1.0  0.15163  0.11840  0.40475  1.0000
  C   C15       1.0  0.10083  0.40479  0.11256  1.0000
  H   H34       1.0  0.00967  0.10982  0.31356  1.0000
  C   C16       1.0  0.16020  0.12327  0.36915  1.0000
  C   C17       1.0  0.99062  0.43129  0.23269  1.0000
  C   C18       1.0  0.17616  0.10892  0.26884  1.0000
  H   H35       1.0  0.00458  0.20827  0.32812  1.0000
  S   S24       1.0  0.06338  0.97834  0.12447  1.0000
  H   H36       1.0  0.00478  0.29652  0.34308  1.0000
  C   C19       1.0  0.09417  0.39349  0.27563  1.0000
  C   C20       1.0  0.09121  0.37892  0.29046  1.0000
  C   C21       1.0  0.10532  0.36963  0.30007  1.0000
  C   C22       1.0  0.12277  0.37420  0.29423  1.0000
  C   C23       1.0  0.12602  0.38833  0.27897  1.0000
  C   C24       1.0  0.11160  0.39823  0.26994  1.0000
  H   H37       1.0  0.07810  0.37476  0.29461  1.0000
  H   H38       1.0  0.10281  0.35864  0.31183  1.0000
  H   H39       1.0  0.13946  0.39204  0.27454  1.0000
  H   H40       1.0  0.11399  0.40952  0.25848  1.0000
  H   H41       1.0  0.15852  0.01497  0.45773  1.0000
  H   H42       1.0  0.15983  0.23933  0.31480  1.0000
  C   C25       1.0  0.08286  0.99115  0.06031  1.0000
  H   H43       1.0  0.07884  0.37699  0.98327  1.0000
  H   H44       1.0  0.11220  0.04379  0.18497  1.0000
  H   H45       1.0  0.09472  0.41599  0.13690  1.0000
  C   C26       1.0  0.01270  0.22610  0.38064  1.0000
  H   H46       1.0  0.14783  0.45641  0.07431  1.0000
  H   H47       1.0  0.05705  0.37599  0.05437  1.0000
  C   C27       1.0  0.11552  0.00719  0.04258  1.0000
  C   C28       1.0  0.99234  0.00779  0.17105  1.0000
  C   C29       1.0  0.13787  0.00260  0.08810  1.0000
  S   S25       1.0  0.01209  0.40937  0.33969  1.0000
  H   H48       1.0  0.07518  0.03564  0.14916  1.0000
  Fe  Fe15      1.0  0.06409  0.99890  0.26357  1.0000
  H   H49       1.0  0.00667  0.99138  0.32151  1.0000
  H   H50       1.0  0.07511  0.43373  0.15549  1.0000
  C   C30       1.0  0.08034  0.02370  0.15949  1.0000
  C   C31       1.0  0.98879  0.01114  0.26661  1.0000
  H   H51       1.0  0.14010  0.40044  0.30862  1.0000
  H   H52       1.0  0.16440  0.13358  0.31426  1.0000
  C   C32       1.0  0.10943  0.13225  0.39219  1.0000
  C   C33       1.0  0.11233  0.13732  0.40745  1.0000
  C   C34       1.0  0.11427  0.12422  0.42372  1.0000
  C   C35       1.0  0.11344  0.10600  0.42468  1.0000
  C   C36       1.0  0.10972  0.10115  0.40969  1.0000
  C   C37       1.0  0.10771  0.11425  0.39346  1.0000
  H   H53       1.0  0.11358  0.15128  0.40654  1.0000
  H   H54       1.0  0.11704  0.12807  0.43527  1.0000
  H   H55       1.0  0.10528  0.11029  0.38181  1.0000
  H   H56       1.0  0.02870  0.41184  0.14122  1.0000
  H   H57       1.0  0.07795  0.42537  0.34945  1.0000
  H   H58       1.0  0.16567  0.07243  0.98012  1.0000
  H   H59       1.0  0.11498  0.99896  0.05672  1.0000
  H   H60       1.0  0.05215  0.47238  0.17948  1.0000
  H   H61       1.0  0.08269  0.03289  0.20573  1.0000
  N   N1        1.0  0.99264  0.31057  0.37640  1.0000
  H   H62       1.0  0.15906  0.97903  0.14978  1.0000
  S   S26       1.0  0.07075  0.42772  0.07544  1.0000
  H   H63       1.0  0.10203  0.04745  0.06060  1.0000
  H   H64       1.0  0.00293  0.32936  0.33941  1.0000
  H   H65       1.0  0.07795  0.43461  0.97549  1.0000
  C   C38       1.0  0.14427  0.08551  0.99956  1.0000
  C   C39       1.0  0.03090  0.21655  0.32034  1.0000
  C   C40       1.0  0.04993  0.21113  0.31404  1.0000
  C   C41       1.0  0.05747  0.19309  0.31143  1.0000
  C   C42       1.0  0.04594  0.18052  0.31494  1.0000
  C   C43       1.0  0.02683  0.18611  0.32062  1.0000
  C   C44       1.0  0.01931  0.20408  0.32348  1.0000
  H   H66       1.0  0.05888  0.22083  0.31144  1.0000
  H   H67       1.0  0.07219  0.18893  0.30673  1.0000
  H   H68       1.0  0.01783  0.17648  0.32312  1.0000
  H   H69       1.0  0.14298  0.45674  0.05244  1.0000
  C   C45       1.0  0.08966  0.06152  0.28549  1.0000
  C   C46       1.0  0.09864  0.07641  0.28090  1.0000
  C   C47       1.0  0.10449  0.08174  0.29441  1.0000
  C   C48       1.0  0.10169  0.07203  0.31261  1.0000
  C   C49       1.0  0.09322  0.05674  0.31713  1.0000
  C   C50       1.0  0.08702  0.05160  0.30365  1.0000
  H   H70       1.0  0.10088  0.08402  0.26685  1.0000
  H   H71       1.0  0.11140  0.09323  0.29067  1.0000
  H   H72       1.0  0.09115  0.04905  0.33115  1.0000
  H   H73       1.0  0.08020  0.04003  0.30731  1.0000
  C   C51       1.0  0.14222  0.46538  0.06234  1.0000
  C   C52       1.0  0.98688  0.30760  0.39716  1.0000
  C   C53       1.0  0.12354  0.99515  0.10067  1.0000
  H   H74       1.0  0.02976  0.37993  0.15770  1.0000
  H   H75       1.0  0.04273  0.46717  0.15320  1.0000
  H   H76       1.0  0.99801  0.38114  0.46774  1.0000
  C   C54       1.0  0.01555  0.29408  0.35122  1.0000
  H   H77       1.0  0.02966  0.08116  0.29761  1.0000
  H   H78       1.0  0.06913  0.39894  0.35541  1.0000
  H   H79       1.0  0.06071  0.43966  0.33783  1.0000
  H   H80       1.0  0.02361  0.39376  0.97769  1.0000
  C   C55       1.0  0.12181  0.47295  0.06937  1.0000
  H   H81       1.0  0.04775  0.45399  0.05145  1.0000
  H   H82       1.0  0.99085  0.01865  0.22678  1.0000
  H   H83       1.0  0.02378  0.42028  0.36727  1.0000
  C   C56       1.0  0.99458  0.30577  0.42811  1.0000
  C   C57       1.0  0.02190  0.46445  0.34365  1.0000
  C   C58       1.0  0.07452  0.39101  0.97637  1.0000
  H   H84       1.0  0.14671  0.03941  0.03103  1.0000
  C   C59       1.0  0.17802  0.41017  0.08027  1.0000
  C   C60       1.0  0.04528  0.46243  0.11552  1.0000
  H   H85       1.0  0.15956  0.01740  0.08416  1.0000
  C   C61       1.0  0.98693  0.02437  0.21318  1.0000
  H   H86       1.0  0.00090  0.40789  0.98284  1.0000
  H   H87       1.0  0.15891  0.37795  0.03143  1.0000
  H   H88       1.0  0.15977  0.12016  0.35592  1.0000
  H   H89       1.0  0.06361  0.44705  0.27139  1.0000
  H   H90       1.0  0.15662  0.97893  0.05357  1.0000
  H   H91       1.0  0.11739  0.42433  0.29238  1.0000
  H   H92       1.0  0.14656  0.09204  0.39657  1.0000
  H   H93       1.0  0.09959  0.02446  0.01339  1.0000
  H   H94       1.0  0.14272  0.07286  0.01022  1.0000
  S   S27       1.0  0.05007  0.98410  0.17441  1.0000
  Fe  Fe16      1.0  0.04733  0.00371  0.30279  1.0000
  C   C62       1.0  0.05588  0.14406  0.42422  1.0000
  H   H95       1.0  0.11092  0.03685  0.03132  1.0000
  H   H96       1.0  0.15727  0.27306  0.28193  1.0000
  C   C63       1.0  0.98996  0.98134  0.22226  1.0000
  C   C64       1.0  0.07095  0.40879  0.32549  1.0000
  H   H97       1.0  0.15804  0.27370  0.30524  1.0000
  H   H98       1.0  0.17625  0.33957  0.05757  1.0000
  S   S28       1.0  0.08049  0.97890  0.24532  1.0000
  C   C65       1.0  0.16611  0.41549  0.04711  1.0000
  C   C66       1.0  0.15314  0.41659  0.06351  1.0000
  C   C67       1.0  0.15911  0.41394  0.08007  1.0000
  H   H99       1.0  0.00601  0.30308  0.43559  1.0000
  H   H100      1.0  0.06488  0.36783  0.35706  1.0000
  H   H101      1.0  0.15560  0.34732  0.01363  1.0000
  H   H102      1.0  0.13853  0.41944  0.06344  1.0000
  H   H103      1.0  0.14905  0.41475  0.09277  1.0000
  H   H104      1.0  0.01911  0.29217  0.37820  1.0000
  C   C68       1.0  0.16974  0.14007  0.36384  1.0000
  H   H105      1.0  0.04787  0.38466  0.34594  1.0000
  C   C69       1.0  0.03891  0.44792  0.06363  1.0000
  C   C70       1.0  0.04664  0.43453  0.07723  1.0000
  C   C71       1.0  0.03497  0.42697  0.09307  1.0000
  H   H106      1.0  0.18449  0.31378  0.23622  1.0000
  H   H107      1.0  0.08619  0.01171  0.15268  1.0000
  H   H108      1.0  0.09397  0.39899  0.10474  1.0000
  H   H109      1.0  0.03409  0.36391  0.21677  1.0000
  H   H110      1.0  0.99324  0.33763  0.25043  1.0000
  C   C72       1.0  0.13681  0.41493  0.31032  1.0000
  C   C73       1.0  0.01580  0.43354  0.09590  1.0000
  C   C74       1.0  0.00918  0.00845  0.15525  1.0000
  H   H111      1.0  0.04298  0.13872  0.42706  1.0000
  H   H112      1.0  0.00962  0.00004  0.19100  1.0000
  H   H113      1.0  0.05496  0.41744  0.03992  1.0000
  H   H114      1.0  0.00447  0.38337  0.99114  1.0000
  H   H115      1.0  0.17620  0.45447  0.99749  1.0000
  S   S29       1.0  0.18014  0.37334  0.26242  1.0000
  C   C75       1.0  0.01662  0.45113  0.46110  1.0000
  C   C76       1.0  0.07400  0.42347  0.97208  1.0000
  N   N2        1.0  0.04654  0.11220  0.29320  1.0000
  C   C77       1.0  0.05065  0.09791  0.30999  1.0000
  C   C78       1.0  0.04405  0.10273  0.27916  1.0000
  C   C79       1.0  0.06334  0.12079  0.28482  1.0000
  C   C80       1.0  0.02997  0.12723  0.29756  1.0000
  H   H116      1.0  0.05943  0.01432  0.37702  1.0000
  C   C81       1.0  0.05736  0.10469  0.32419  1.0000
  C   C82       1.0  0.06275  0.13476  0.26630  1.0000
  H   H117      1.0  0.08233  0.39835  0.13831  1.0000
  H   H118      1.0  0.14274  0.97891  0.18863  1.0000
  C   C83       1.0  0.05560  0.09150  0.34287  1.0000
  C   C84       1.0  0.07841  0.14538  0.26133  1.0000
  H   H119      1.0  0.06158  0.08623  0.30580  1.0000
  H   H120      1.0  0.03854  0.09162  0.31728  1.0000
  H   H121      1.0  0.04123  0.11288  0.26650  1.0000
  H   H122      1.0  0.05713  0.09305  0.27478  1.0000
  H   H123      1.0  0.07598  0.10999  0.28258  1.0000
  H   H124      1.0  0.06573  0.12818  0.29447  1.0000
  H   H125      1.0  0.03429  0.13888  0.30046  1.0000
  H   H126      1.0  0.02357  0.13336  0.28526  1.0000
  H   H127      1.0  0.18002  0.38774  0.99956  1.0000
  H   H128      1.0  0.10314  0.02420  0.07349  1.0000
  H   H129      1.0  0.07217  0.10555  0.31921  1.0000
  H   H130      1.0  0.04951  0.11855  0.32620  1.0000
  H   H131      1.0  0.04951  0.14490  0.26693  1.0000
  H   H132      1.0  0.06452  0.12747  0.25495  1.0000
  H   H133      1.0  0.01143  0.41506  0.39944  1.0000
  H   H134      1.0  0.99152  0.43719  0.01476  1.0000
  C   C85       1.0  0.01442  0.44566  0.32631  1.0000
  H   H135      1.0  0.00122  0.28124  0.37780  1.0000
  H   H136      1.0  0.00664  0.98262  0.10282  1.0000
  C   C86       1.0  0.10255  0.41391  0.32008  1.0000
  H   H137      1.0  0.04087  0.09097  0.34900  1.0000
  H   H138      1.0  0.06345  0.07748  0.34138  1.0000
  H   H139      1.0  0.06138  0.09626  0.35237  1.0000
  H   H140      1.0  0.09203  0.13578  0.26045  1.0000
  H   H141      1.0  0.07803  0.15487  0.24779  1.0000
  H   H142      1.0  0.07686  0.15368  0.27183  1.0000
  S   S30       1.0  0.00130  0.04253  0.26437  1.0000
  H   H143      1.0  0.99330  0.03296  0.30747  1.0000
  H   H144      1.0  0.08625  0.98423  0.03368  1.0000
  H   H145      1.0  0.00012  0.22036  0.38754  1.0000
  C   C87       1.0  0.03198  0.45081  0.99669  1.0000
  C   C88       1.0  0.00250  0.30428  0.40798  1.0000
  H   H146      1.0  0.01373  0.46460  0.05574  1.0000
  H   H147      1.0  0.16983  0.32439  0.03443  1.0000
  C   C89       1.0  0.17168  0.97554  0.05326  1.0000
  C   C90       1.0  0.16651  0.27161  0.29156  1.0000
  N   N3        1.0  0.10836  0.99834  0.03097  1.0000
  H   H148      1.0  0.15469  0.05933  0.37465  1.0000
  C   C91       1.0  0.18083  0.16465  0.27751  1.0000
  C   C92       1.0  0.99865  0.33850  0.34943  1.0000
  H   H149      1.0  0.04073  0.41613  0.10332  1.0000
  H   H150      1.0  0.17587  0.98735  0.05595  1.0000
  C   C93       1.0  0.05046  0.99547  0.20528  1.0000
  H   H151      1.0  0.06002  0.98291  0.08169  1.0000
  C   C94       1.0  0.06214  0.46370  0.17026  1.0000
  C   C95       1.0  0.06514  0.44353  0.14749  1.0000
  S   S31       1.0  0.09252  0.40021  0.99846  1.0000
  C   C96       1.0  0.99589  0.43293  0.19461  1.0000
  H   H152      1.0  0.17481  0.28254  0.28615  1.0000
  H   H153      1.0  0.02806  0.45201  0.44944  1.0000
  C   C97       1.0  0.00332  0.33387  0.30115  1.0000
  H   H154      1.0  0.03407  0.43804  0.12432  1.0000
  H   H155      1.0  0.07725  0.05429  0.22649  1.0000
  H   H156      1.0  0.07040  0.98785  0.40005  1.0000
  C   C98       1.0  0.99784  0.99529  0.18897  1.0000
  C   C99       1.0  0.10892  0.03291  0.06040  1.0000
  C   C100      1.0  0.05682  0.99419  0.22131  1.0000
  H   H157      1.0  0.17180  0.00456  0.15642  1.0000
  H   H158      1.0  0.17069  0.14465  0.37611  1.0000
  H   H159      1.0  0.09013  0.99914  0.00269  1.0000
  H   H160      1.0  0.07073  0.45261  0.17876  1.0000
  H   H161      1.0  0.03716  0.47311  0.00651  1.0000
  H   H162      1.0  0.09044  0.02915  0.04520  1.0000
  C   C101      1.0  0.02849  0.27577  0.34851  1.0000
  H   H163      1.0  0.11410  0.02474  0.97464  1.0000
  H   H164      1.0  0.05220  0.99974  0.36618  1.0000
  H   H165      1.0  0.06792  0.39081  0.06132  1.0000
  C   C102      1.0  0.06066  0.98617  0.39228  1.0000
  H   H166      1.0  0.01272  0.23084  0.36571  1.0000
  H   H167      1.0  0.01581  0.99442  0.15268  1.0000
  H   H168      1.0  0.16296  0.10840  0.26553  1.0000
  C   C103      1.0  0.08713  0.41076  0.12937  1.0000
  H   H169      1.0  0.13790  0.41524  0.32443  1.0000
  C   C104      1.0  0.02803  0.08222  0.26988  1.0000
  H   H170      1.0  0.00526  0.41004  0.03964  1.0000
  H   H171      1.0  0.01778  0.18967  0.38259  1.0000
  C   C105      1.0  0.16676  0.20400  0.31127  1.0000
  H   H172      1.0  0.06729  0.13231  0.42746  1.0000
  H   H173      1.0  0.00242  0.00364  0.26835  1.0000
  H   H174      1.0  0.03025  0.39357  0.44383  1.0000
  H   H175      1.0  0.07686  0.43700  0.11350  1.0000
  H   H176      1.0  0.13410  0.08775  0.99069  1.0000
  H   H177      1.0  0.13218  0.37147  0.00024  1.0000
  H   H178      1.0  0.02295  0.41661  0.19703  1.0000
  H   H179      1.0  0.08474  0.42636  0.29173  1.0000
  H   H180      1.0  0.07114  0.47240  0.15992  1.0000
  N   N4        1.0  0.11818  0.01408  0.18898  1.0000
  C   C106      1.0  0.12178  0.99797  0.20451  1.0000
  C   C107      1.0  0.11291  0.03152  0.19642  1.0000
  C   C108      1.0  0.10288  0.01162  0.18113  1.0000
  C   C109      1.0  0.13518  0.01519  0.17384  1.0000
  C   C110      1.0  0.15319  0.01492  0.18000  1.0000
  H   H181      1.0  0.18377  0.09463  0.27272  1.0000
  H   H182      1.0  0.18324  0.36144  0.18202  1.0000
  C   C111      1.0  0.07260  0.98124  0.22505  1.0000
  C   C112      1.0  0.04041  0.44570  0.13072  1.0000
  C   C113      1.0  0.16942  0.01609  0.16362  1.0000
  H   H183      1.0  0.05422  0.15384  0.43332  1.0000
  C   C114      1.0  0.05971  0.98372  0.19305  1.0000
  H   H184      1.0  0.07468  0.97715  0.43976  1.0000
  H   H185      1.0  0.13118  0.00039  0.21229  1.0000
  H   H186      1.0  0.12382  0.03249  0.20321  1.0000
  C   C115      1.0  0.11868  0.99824  0.11864  1.0000
  H   H187      1.0  0.05594  0.41497  0.32812  1.0000
  H   H188      1.0  0.10773  0.99978  0.17402  1.0000
  H   H189      1.0  0.13802  0.00394  0.16613  1.0000
  H   H190      1.0  0.13286  0.02804  0.16330  1.0000
  H   H191      1.0  0.15711  0.00211  0.18996  1.0000
  H   H192      1.0  0.15157  0.02677  0.18649  1.0000
  S   S32       1.0  0.02340  0.34321  0.29246  1.0000
  H   H193      1.0  0.05638  0.46297  0.99038  1.0000
  C   C116      1.0  0.05890  0.45631  0.28146  1.0000
  C   C117      1.0  0.01023  0.98045  0.22333  1.0000
  C   C118      1.0  0.07070  0.42574  0.12344  1.0000
  C   C119      1.0  0.10890  0.01091  0.01225  1.0000
  H   H194      1.0  0.02818  0.45041  0.37010  1.0000
  C   C120      1.0  0.04930  0.41793  0.15337  1.0000
  H   H195      1.0  0.11428  0.99270  0.99255  1.0000
  H   H196      1.0  0.08843  0.04038  0.17349  1.0000
  H   H197      1.0  0.04654  0.98972  0.40037  1.0000
  C   C121      1.0  0.18095  0.36462  0.06179  1.0000
  H   H198      1.0  0.05146  0.39806  0.13595  1.0000
  C   C122      1.0  0.01726  0.46260  0.32773  1.0000
  C   C123      1.0  0.06297  0.38862  0.04973  1.0000
  C   C124      1.0  0.12147  0.98045  0.02820  1.0000
  C   C125      1.0  0.09502  0.02828  0.16705  1.0000
  C   C126      1.0  0.99772  0.13796  0.31533  1.0000
  H   H199      1.0  0.03711  0.40691  0.05589  1.0000
  H   H200      1.0  0.13518  0.18931  0.32946  1.0000
  C   C127      1.0  0.14328  0.07149  0.37317  1.0000
  H   H201      1.0  0.00695  0.42798  0.10842  1.0000
  H   H202      1.0  0.18144  0.02085  0.98297  1.0000
  C   C128      1.0  0.99103  0.37662  0.24508  1.0000
  C   C129      1.0  0.00742  0.42272  0.22319  1.0000
  H   H203      1.0  0.03350  0.14463  0.38832  1.0000
  H   H204      1.0  0.01016  0.44454  0.31428  1.0000
  C   C130      1.0  0.09050  0.05257  0.21637  1.0000
  H   H205      1.0  0.02942  0.15023  0.34832  1.0000
  C   C131      1.0  0.99753  0.41155  0.40286  1.0000
  N   N5        1.0  0.04724  0.17892  0.37868  1.0000
  C   C132      1.0  0.03094  0.19450  0.37600  1.0000
  C   C133      1.0  0.04751  0.16510  0.36754  1.0000
  C   C134      1.0  0.04533  0.17036  0.39891  1.0000
  C   C135      1.0  0.06516  0.18570  0.37225  1.0000
  C   C136      1.0  0.06900  0.19604  0.35200  1.0000
  C   C137      1.0  0.03006  0.21165  0.38373  1.0000
  C   C138      1.0  0.06059  0.15340  0.40400  1.0000
  C   C139      1.0  0.03192  0.15382  0.37486  1.0000
  H   H206      1.0  0.01259  0.99415  0.22308  1.0000
  C   C140      1.0  0.08716  0.20282  0.34724  1.0000
  C   C141      1.0  0.15628  0.36179  0.01289  1.0000
  C   C142      1.0  0.10336  0.00404  0.99738  1.0000
  C   C143      1.0  0.17449  0.02550  0.03375  1.0000
  H   H207      1.0  0.03031  0.19925  0.36113  1.0000
  H   H208      1.0  0.04641  0.17214  0.35316  1.0000
  H   H209      1.0  0.06102  0.15527  0.36614  1.0000
  H   H210      1.0  0.03154  0.16657  0.40460  1.0000
  H   H211      1.0  0.04573  0.18050  0.40685  1.0000
  H   H212      1.0  0.06625  0.19449  0.38134  1.0000
  H   H213      1.0  0.07696  0.17397  0.37343  1.0000
  H   H214      1.0  0.05785  0.20813  0.34917  1.0000
  H   H215      1.0  0.07030  0.18663  0.34270  1.0000
  H   H216      1.0  0.01213  0.23816  0.38646  1.0000
  H   H217      1.0  0.04208  0.21823  0.37682  1.0000
  H   H218      1.0  0.07391  0.15775  0.40191  1.0000
  H   H219      1.0  0.06271  0.14292  0.39560  1.0000
  H   H220      1.0  0.02597  0.97537  0.39815  1.0000
  H   H221      1.0  0.01811  0.16297  0.37658  1.0000
  H   H222      1.0  0.10875  0.99655  0.21483  1.0000
  H   H223      1.0  0.16081  0.08962  0.35578  1.0000
  C   C144      1.0  0.07979  0.43507  0.30237  1.0000
  H   H224      1.0  0.08969  0.20983  0.33254  1.0000
  H   H225      1.0  0.08651  0.21274  0.35586  1.0000
  H   H226      1.0  0.09886  0.19107  0.34941  1.0000
  H   H227      1.0  0.17280  0.11579  0.28077  1.0000
  H   H228      1.0  0.16385  0.08475  0.41879  1.0000
  H   H229      1.0  0.15808  0.23953  0.29220  1.0000
  H   H230      1.0  0.16677  0.02933  0.15372  1.0000
  C   C145      1.0  0.00705  0.29395  0.37184  1.0000
  H   H231      1.0  0.98573  0.29550  0.43495  1.0000
  H   H232      1.0  0.09767  0.01424  0.96983  1.0000
  H   H233      1.0  0.00595  0.02305  0.32590  1.0000
  C   C146      1.0  0.01442  0.12208  0.31423  1.0000
  H   H234      1.0  0.14780  0.21286  0.29146  1.0000
  C   C147      1.0  0.06285  0.37857  0.34458  1.0000
  H   H235      1.0  0.13872  0.10082  0.36681  1.0000
  H   H236      1.0  0.08171  0.00342  0.06603  1.0000
  C   C148      1.0  0.14726  0.20900  0.30646  1.0000
  H   H237      1.0  0.10739  0.99282  0.12827  1.0000
  C   C149      1.0  0.10556  0.02726  0.04394  1.0000
  H   H238      1.0  0.07340  0.40215  0.31350  1.0000
  H   H239      1.0  0.15415  0.35599  0.04208  1.0000
  C   C150      1.0  0.14376  0.01463  0.11194  1.0000
  C   C151      1.0  0.01893  0.40488  0.44813  1.0000
  H   H240      1.0  0.05387  0.45775  0.10288  1.0000
  Fe  Fe17      1.0  0.99139  0.24509  0.33579  1.0000
  C   C152      1.0  0.06232  0.00026  0.37416  1.0000
  C   C153      1.0  0.17973  0.35630  0.08228  1.0000
  H   H241      1.0  0.10004  0.44543  0.33483  1.0000
  S   S33       1.0  0.15813  0.02420  0.11974  1.0000
  H   H242      1.0  0.13867  0.22077  0.31269  1.0000
  C   C154      1.0  0.02475  0.36898  0.22890  1.0000
  H   H243      1.0  0.13047  0.00745  0.03705  1.0000
  H   H244      1.0  0.00707  0.40606  0.44169  1.0000
  H   H245      1.0  0.11509  0.43874  0.30827  1.0000
  H   H246      1.0  0.05460  0.45503  0.31044  1.0000
  C   C155      1.0  0.13715  0.19297  0.31421  1.0000
  N   N6        1.0  0.05637  0.43322  0.13873  1.0000
  H   H247      1.0  0.09111  0.00793  0.19234  1.0000
  C   C156      1.0  0.01001  0.42345  0.20422  1.0000
  N   N7        1.0  0.08247  0.42339  0.32094  1.0000
  H   H248      1.0  0.00489  0.01708  0.14246  1.0000
  H   H249      1.0  0.02968  0.20800  0.39874  1.0000
  C   C157      1.0  0.16824  0.23711  0.30106  1.0000
  H   H250      1.0  0.08438  0.46035  0.32048  1.0000
  H   H251      1.0  0.04255  0.44742  0.17171  1.0000
  H   H252      1.0  0.06758  0.37193  0.33242  1.0000
  C   C158      1.0  0.16295  0.36329  0.02995  1.0000
  H   H253      1.0  0.17375  0.19026  0.30792  1.0000
  C   C159      1.0  0.14812  0.01215  0.09378  1.0000
  H   H254      1.0  0.03810  0.42372  0.16396  1.0000
  C   C160      1.0  0.02172  0.43216  0.35636  1.0000
  S   S34       1.0  0.11867  0.08862  0.44357  1.0000
  H   H255      1.0  0.12541  0.00999  0.13826  1.0000
  N   N8        1.0  0.11703  0.35853  0.23151  1.0000
  C   C161      1.0  0.10134  0.36601  0.22125  1.0000
  C   C162      1.0  0.13096  0.34356  0.22293  1.0000
  C   C163      1.0  0.10895  0.35002  0.25102  1.0000
  C   C164      1.0  0.12628  0.37341  0.23243  1.0000
  C   C165      1.0  0.13452  0.38487  0.21388  1.0000
  C   C166      1.0  0.08571  0.38125  0.22868  1.0000
  C   C167      1.0  0.12304  0.34027  0.26370  1.0000
  C   C168      1.0  0.13394  0.34542  0.20176  1.0000
  C   C169      1.0  0.15097  0.33178  0.19462  1.0000
  C   C170      1.0  0.14205  0.40030  0.21700  1.0000
  C   C171      1.0  0.07118  0.38817  0.21663  1.0000
  C   C172      1.0  0.11383  0.32923  0.28169  1.0000
  H   H256      1.0  0.09483  0.35456  0.22110  1.0000
  H   H257      1.0  0.10643  0.37189  0.20660  1.0000
  H   H258      1.0  0.14465  0.34202  0.22641  1.0000
  H   H259      1.0  0.12694  0.32994  0.22892  1.0000
  H   H260      1.0  0.10067  0.33995  0.25090  1.0000
  H   H261      1.0  0.09922  0.36060  0.25827  1.0000
  H   H262      1.0  0.11654  0.38302  0.24079  1.0000
  H   H263      1.0  0.13794  0.36743  0.23980  1.0000
  H   H264      1.0  0.12404  0.39127  0.20523  1.0000
  H   H265      1.0  0.14632  0.37613  0.20633  1.0000
  H   H266      1.0  0.07837  0.37607  0.24279  1.0000
  H   H267      1.0  0.09131  0.39324  0.22879  1.0000
  H   H268      1.0  0.12871  0.35061  0.26730  1.0000
  H   H269      1.0  0.13477  0.33064  0.25714  1.0000
  H   H270      1.0  0.12178  0.34249  0.19834  1.0000
  H   H271      1.0  0.13573  0.35933  0.19405  1.0000
  H   H272      1.0  0.14966  0.31745  0.20153  1.0000
  H   H273      1.0  0.15247  0.33311  0.17956  1.0000
  H   H274      1.0  0.16361  0.33469  0.19707  1.0000
  H   H275      1.0  0.14833  0.40806  0.20354  1.0000
  H   H276      1.0  0.13079  0.40995  0.22412  1.0000
  H   H277      1.0  0.15291  0.39453  0.22538  1.0000
  C   C173      1.0  0.08880  0.99546  0.03897  1.0000
  H   H278      1.0  0.07743  0.39438  0.20241  1.0000
  H   H279      1.0  0.12335  0.19685  0.31046  1.0000
  H   H280      1.0  0.10154  0.33804  0.28864  1.0000
  H   H281      1.0  0.10948  0.31752  0.27902  1.0000
  H   H282      1.0  0.12377  0.32373  0.29110  1.0000
  H   H283      1.0  0.18451  0.22121  0.32824  1.0000
  C   C174      1.0  0.00470  0.37057  0.22782  1.0000
  C   C175      1.0  0.18084  0.21617  0.26899  1.0000
  C   C176      1.0  0.15057  0.08926  0.36889  1.0000
  S   S35       1.0  0.99750  0.39439  0.29995  1.0000
  H   H284      1.0  0.01525  0.32488  0.37012  1.0000
  H   H285      1.0  0.17882  0.13331  0.24832  1.0000
  H   H286      1.0  0.00215  0.38081  0.21517  1.0000
  C   C177      1.0  0.17939  0.25273  0.29323  1.0000
  H   H287      1.0  0.01834  0.30615  0.30044  1.0000
  H   H288      1.0  0.99072  0.29210  0.31313  1.0000
  S   S36       1.0  0.03794  0.46835  0.39572  1.0000
  C   C178      1.0  0.04128  0.40456  0.14676  1.0000
  C   C179      1.0  0.02430  0.44916  0.35791  1.0000
  S   S37       1.0  0.99947  0.43319  0.17093  1.0000
  Fe  Fe18      1.0  0.10021  0.46080  0.01235  1.0000
  H   H289      1.0  0.08827  0.44581  0.29785  1.0000
  N   N9        1.0  0.02801  0.41925  0.01902  1.0000
  C   C180      1.0  0.02415  0.41468  0.00245  1.0000
  C   C181      1.0  0.03767  0.43543  0.01300  1.0000
  C   C182      1.0  0.04107  0.40281  0.02748  1.0000
  C   C183      1.0  0.01080  0.42284  0.03353  1.0000
  H   H290      1.0  0.16089  0.46797  0.02533  1.0000
  C   C184      1.0  0.01501  0.39783  0.00608  1.0000
  C   C185      1.0  0.04843  0.40530  0.04371  1.0000
  H   H291      1.0  0.00179  0.15045  0.31666  1.0000
  C   C186      1.0  0.16722  0.10289  0.43423  1.0000
  S   S38       1.0  0.03629  0.99631  0.28162  1.0000
  H   H292      1.0  0.16769  0.37422  0.05996  1.0000
  H   H293      1.0  0.02728  0.38264  0.22878  1.0000
  H   H294      1.0  0.03729  0.41217  0.99223  1.0000
  H   H295      1.0  0.01519  0.42643  0.99511  1.0000
  H   H296      1.0  0.03618  0.44200  0.02487  1.0000
  H   H297      1.0  0.05279  0.43056  0.00834  1.0000
  H   H298      1.0  0.05325  0.39864  0.01671  1.0000
  H   H299      1.0  0.03433  0.39072  0.03300  1.0000
  C   C187      1.0  0.00038  0.32795  0.36932  1.0000
  H   H300      1.0  0.01413  0.42662  0.04526  1.0000
  S   S39       1.0  0.17875  0.35274  0.22150  1.0000
  Fe  Fe19      1.0  0.18502  0.34892  0.24951  1.0000
  H   H301      1.0  0.02438  0.38495  0.01109  1.0000
  H   H302      1.0  0.01690  0.45591  0.99862  1.0000
  H   H303      1.0  0.17103  0.22950  0.26710  1.0000
  C   C188      1.0  0.03566  0.38915  0.16272  1.0000
  H   H304      1.0  0.03651  0.44556  0.98370  1.0000
  H   H305      1.0  0.17385  0.30552  0.22224  1.0000
  H   H306      1.0  0.06848  0.02054  0.17074  1.0000
  H   H307      1.0  0.10580  0.40998  0.33411  1.0000
  H   H308      1.0  0.17614  0.11547  0.99128  1.0000
  H   H309      1.0  0.07359  0.45257  0.13680  1.0000
  C   C189      1.0  0.99858  0.45460  0.45824  1.0000
  H   H310      1.0  0.17255  0.02683  0.04788  1.0000
  H   H311      1.0  0.15671  0.15265  0.34006  1.0000
  H   H312      1.0  0.02110  0.26417  0.35419  1.0000
  H   H313      1.0  0.13255  0.07074  0.38603  1.0000
  H   H314      1.0  0.06024  0.40967  0.16102  1.0000
  C   C190      1.0  0.17160  0.09590  0.41627  1.0000
  H   H315      1.0  0.99220  0.39099  0.24435  1.0000
  H   H316      1.0  0.08928  0.06387  0.20415  1.0000
  H   H317      1.0  0.16384  0.20190  0.32658  1.0000
  C   C191      1.0  0.99281  0.99549  0.31791  1.0000
  S   S40       1.0  0.03912  0.99207  0.33311  1.0000
  H   H318      1.0  0.16774  0.07745  0.38937  1.0000
  H   H319      1.0  0.04782  0.38091  0.16854  1.0000
  C   C192      1.0  0.02820  0.09189  0.28503  1.0000
  C   C193      1.0  0.07588  0.43436  0.33599  1.0000
  H   H320      1.0  0.02809  0.35918  0.24158  1.0000
  H   H321      1.0  0.12393  0.03163  0.05944  1.0000
  H   H322      1.0  0.04039  0.27330  0.35529  1.0000
  H   H323      1.0  0.06007  0.39884  0.22247  1.0000
  H   H324      1.0  0.14499  0.18073  0.30842  1.0000
  H   H325      1.0  0.01661  0.07449  0.27438  1.0000
  C   C194      1.0  0.16629  0.11176  0.40015  1.0000
  C   C195      1.0  0.05163  0.45553  0.16079  1.0000
  H   H326      1.0  0.02400  0.41800  0.44310  1.0000
  H   H327      1.0  0.14144  0.00052  0.07411  1.0000
  S   S41       1.0  0.16999  0.33158  0.27400  1.0000
  H   H328      1.0  0.07736  0.45241  0.36286  1.0000
  H   H329      1.0  0.17702  0.17363  0.26513  1.0000
  H   H330      1.0  0.00853  0.36070  0.32864  1.0000
  H   H331      1.0  0.16670  0.16781  0.34746  1.0000
  H   H332      1.0  0.99168  0.14117  0.30284  1.0000
  C   C196      1.0  0.00493  0.31482  0.30384  1.0000
  H   H333      1.0  0.99961  0.02443  0.20233  1.0000
  H   H334      1.0  0.12695  0.36954  0.02485  1.0000
  H   H335      1.0  0.07865  0.00789  0.03417  1.0000
  H   H336      1.0  0.17328  0.20481  0.27203  1.0000
  S   S42       1.0  0.14768  0.15435  0.28325  1.0000
  H   H337      1.0  0.10888  0.08709  0.41048  1.0000
  C   C197      1.0  0.01651  0.43045  0.34069  1.0000
  H   H338      1.0  0.98624  0.31973  0.42912  1.0000
  H   H339      1.0  0.13552  0.98317  0.02117  1.0000
  H   H340      1.0  0.06487  0.37673  0.21623  1.0000
  C   C198      1.0  0.16867  0.15369  0.28921  1.0000
  C   C199      1.0  0.07637  0.46140  0.34915  1.0000
  C   C200      1.0  0.15868  0.09088  0.38495  1.0000
  H   H341      1.0  0.05038  0.43550  0.30406  1.0000
  C   C201      1.0  0.03226  0.14166  0.36168  1.0000
  H   H342      1.0  0.02898  0.45056  0.14177  1.0000
  H   H343      1.0  0.04124  0.07231  0.26693  1.0000
  H   H344      1.0  0.15219  0.10853  0.43802  1.0000
  H   H345      1.0  0.13691  0.07114  0.36173  1.0000
  H   H346      1.0  0.12303  0.01377  0.00648  1.0000
  C   C202      1.0  0.15987  0.03254  0.02423  1.0000
  C   C203      1.0  0.99198  0.02737  0.32251  1.0000
  H   H347      1.0  0.07501  0.38669  0.03821  1.0000
  H   H348      1.0  0.09569  0.02313  0.22367  1.0000
  H   H349      1.0  0.02591  0.09236  0.25703  1.0000
  C   C204      1.0  0.16237  0.03104  0.00584  1.0000
  H   H350      1.0  0.18219  0.01538  0.16844  1.0000
  H   H351      1.0  0.14526  0.16152  0.36064  1.0000
  S   S43       1.0  0.11282  0.98094  0.09397  1.0000
  N   N10       1.0  0.16871  0.10651  0.38179  1.0000
  C   C205      1.0  0.10110  0.01946  0.98054  1.0000
  H   H352      1.0  0.10603  0.03230  0.15522  1.0000
  H   H353      1.0  0.02528  0.34696  0.34193  1.0000
  C   C206      1.0  0.07388  0.39330  0.34264  1.0000
  H   H354      1.0  0.05290  0.47046  0.12005  1.0000
  C   C207      1.0  0.99169  0.98258  0.10800  1.0000
  C   C208      1.0  0.13700  0.37347  0.01201  1.0000
  H   H355      1.0  0.06420  0.42014  0.11518  1.0000
  N   N11       1.0  0.17938  0.21770  0.30285  1.0000
  C   C209      1.0  0.01040  0.35327  0.34268  1.0000
  H   H356      1.0  0.16415  0.97817  0.11737  1.0000
  H   H357      1.0  0.02144  0.13328  0.36764  1.0000
  H   H358      1.0  0.03383  0.27607  0.33355  1.0000
  H   H359      1.0  0.04586  0.13222  0.35930  1.0000
  H   H360      1.0  0.04936  0.00305  0.23087  1.0000
  H   H361      1.0  0.14116  0.09743  0.00638  1.0000
  H   H362      1.0  0.17465  0.12212  0.39897  1.0000
  H   H363      1.0  0.04439  0.46336  0.28085  1.0000
  C   C210      1.0  0.04110  0.46720  0.99390  1.0000
  H   H364      1.0  0.17512  0.44963  0.03718  1.0000
  C   C211      1.0  0.99497  0.43847  0.02752  1.0000
  H   H365      1.0  0.17715  0.36747  0.09002  1.0000
  H   H366      1.0  0.11961  0.97514  0.19302  1.0000
  H   H367      1.0  0.08972  0.03098  0.98426  1.0000
  H   H368      1.0  0.05328  0.99657  0.06069  1.0000
  H   H369      1.0  0.99354  0.33812  0.37833  1.0000
  C   C212      1.0  0.06405  0.98551  0.06642  1.0000
  H   H370      1.0  0.06761  0.46686  0.27759  1.0000
  H   H371      1.0  0.09280  0.97992  0.06684  1.0000
  H   H372      1.0  0.17798  0.45145  0.06573  1.0000
  H   H373      1.0  0.99513  0.00173  0.30294  1.0000
  S   S44       1.0  0.99413  0.46036  0.43594  1.0000
  C   C213      1.0  0.17396  0.46440  0.03055  1.0000
  C   C214      1.0  0.07959  0.40539  0.98105  1.0000
  H   H374      1.0  0.99549  0.40641  0.39132  1.0000
  C   C215      1.0  0.01076  0.39564  0.98835  1.0000
  H   H375      1.0  0.01989  0.46805  0.10518  1.0000
  H   H376      1.0  0.17506  0.11372  0.43293  1.0000
  H   H377      1.0  0.16821  0.34872  0.08762  1.0000
  H   H378      1.0  0.98697  0.13414  0.32756  1.0000
  H   H379      1.0  0.99411  0.45020  0.38705  1.0000
  H   H380      1.0  0.18038  0.47173  0.07101  1.0000
  H   H381      1.0  0.17995  0.13443  0.46200  1.0000
  H   H382      1.0  0.01995  0.97501  0.21157  1.0000
  C   C216      1.0  0.18318  0.46442  0.05945  1.0000
  S   S45       1.0  0.98651  0.42989  0.25663  1.0000
  H   H383      1.0  0.99685  0.40037  0.41529  1.0000
  N   N12       1.0  0.18326  0.35615  0.03034  1.0000
  H   H384      1.0  0.18386  0.13668  0.35554  1.0000
  C   C217      1.0  0.98592  0.34495  0.30558  1.0000
  H   H385      1.0  0.98832  0.98294  0.12289  1.0000
  C   C218      1.0  0.18501  0.41182  0.04731  1.0000
  H   H386      1.0  0.08349  0.47290  0.34741  1.0000
  H   H387      1.0  0.06162  0.46729  0.34872  1.0000
  H   H388      1.0  0.99635  0.97471  0.29405  1.0000
  H   H389      1.0  0.98610  0.05169  0.21700  1.0000
  S   S46       1.0  0.18503  0.40699  0.10119  1.0000
  C   C219      1.0  0.18511  0.32199  0.03021  1.0000
  H   H390      1.0  0.07310  0.47394  0.45311  1.0000
  S   S47       1.0  0.03927  0.02711  0.94216  1.0000
  Fe  Fe20      1.0  0.06285  0.99297  0.89319  1.0000
  S   S48       1.0  0.07993  0.00744  0.86767  1.0000
  S   S49       1.0  0.03445  0.01001  0.89934  1.0000
  H   H391      1.0  0.09102  0.12832  0.59340  1.0000
  C   C220      1.0  0.01285  0.40150  0.46907  1.0000
  C   C221      1.0  0.06377  0.39467  0.96291  1.0000
  H   H392      1.0  0.11845  0.16040  0.54045  1.0000
  C   C222      1.0  0.06833  0.08978  0.54612  1.0000
  H   H393      1.0  0.00463  0.06388  0.76611  1.0000
  H   H394      1.0  0.13115  0.46164  0.66986  1.0000
  H   H395      1.0  0.00238  0.27930  0.63246  1.0000
  C   C223      1.0  0.99061  0.97731  0.70184  1.0000
  N   N13       1.0  0.13823  0.98560  0.90275  1.0000
  Fe  Fe21      1.0  0.03479  0.39781  0.92675  1.0000
  S   S50       1.0  0.00439  0.40200  0.92769  1.0000
  S   S51       1.0  0.04368  0.41832  0.93784  1.0000
  Fe  Fe22      1.0  0.04437  0.37025  0.90119  1.0000
  S   S52       1.0  0.01478  0.37240  0.90041  1.0000
  S   S53       1.0  0.06633  0.35594  0.88059  1.0000
  Fe  Fe23      1.0  0.01214  0.40267  0.89739  1.0000
  H   H396      1.0  0.00086  0.47260  0.68618  1.0000
  Fe  Fe24      1.0  0.00951  0.37139  0.93073  1.0000
  S   S54       1.0  0.04205  0.40072  0.89608  1.0000
  S   S55       1.0  0.03962  0.36684  0.93208  1.0000
  Fe  Fe25      1.0  0.07362  0.22999  0.84521  1.0000
  S   S56       1.0  0.10015  0.22866  0.82427  1.0000
  S   S57       1.0  0.04967  0.21706  0.84666  1.0000
  Fe  Fe26      1.0  0.08281  0.25678  0.86349  1.0000
  S   S58       1.0  0.11011  0.25785  0.84408  1.0000
  S   S59       1.0  0.07147  0.27073  0.88791  1.0000
  Fe  Fe27      1.0  0.09494  0.25916  0.82197  1.0000
  S   S60       1.0  0.09926  0.27993  0.79535  1.0000
  Fe  Fe28      1.0  0.11314  0.22732  0.84805  1.0000
  S   S61       1.0  0.14062  0.20843  0.85063  1.0000
  S   S62       1.0  0.06729  0.26078  0.84116  1.0000
  S   S63       1.0  0.08698  0.22593  0.86929  1.0000
  Fe  Fe29      1.0  0.01606  0.10043  0.83048  1.0000
  S   S64       1.0  0.02994  0.11589  0.80379  1.0000
  S   S65       1.0  0.01751  0.06982  0.83574  1.0000
  S   S66       1.0  0.00667  0.15359  0.81813  1.0000
  Fe  Fe30      1.0  0.00188  0.13397  0.80334  1.0000
  H   H397      1.0  0.03263  0.33583  0.87325  1.0000
  Fe  Fe31      1.0  0.03338  0.13400  0.82132  1.0000
  S   S67       1.0  0.05979  0.14407  0.81761  1.0000
  H   H398      1.0  0.03223  0.37750  0.49874  1.0000
  S   S68       1.0  0.08320  0.47191  0.65032  1.0000
  S   S69       1.0  0.10209  0.41958  0.64624  1.0000
  H   H399      1.0  0.02084  0.39858  0.53052  1.0000
  H   H400      1.0  0.06228  0.04026  0.95920  1.0000
  S   S70       1.0  0.12090  0.10106  0.51910  1.0000
  Fe  Fe32      1.0  0.09690  0.28372  0.69529  1.0000
  S   S71       1.0  0.10431  0.31057  0.69396  1.0000
  S   S72       1.0  0.09028  0.26304  0.72159  1.0000
  Fe  Fe33      1.0  0.10241  0.28946  0.65367  1.0000
  S   S73       1.0  0.11031  0.31677  0.64901  1.0000
  S   S74       1.0  0.10280  0.27961  0.62818  1.0000
  Fe  Fe34      1.0  0.12711  0.30298  0.67064  1.0000
  H   H401      1.0  0.06981  0.42591  0.88316  1.0000
  Fe  Fe35      1.0  0.08686  0.32202  0.67259  1.0000
  S   S75       1.0  0.06644  0.34891  0.67321  1.0000
  S   S76       1.0  0.12120  0.27509  0.67344  1.0000
  S   S77       1.0  0.07742  0.29569  0.67567  1.0000
  H   H402      1.0  0.06009  0.47295  0.78838  1.0000
  H   H403      1.0  0.02397  0.24524  0.51813  1.0000
  Fe  Fe36      1.0  0.06810  0.19580  0.58002  1.0000
  S   S78       1.0  0.06810  0.17951  0.60872  1.0000
  S   S79       1.0  0.09384  0.18819  0.55921  1.0000
  Fe  Fe37      1.0  0.03029  0.21879  0.59076  1.0000
  S   S80       1.0  0.02695  0.20396  0.62024  1.0000
  S   S81       1.0  0.00718  0.24271  0.58479  1.0000
  Fe  Fe38      1.0  0.05614  0.20643  0.61759  1.0000
  S   S82       1.0  0.06265  0.21310  0.64196  1.0000
  Fe  Fe39      1.0  0.03903  0.17844  0.60882  1.0000
  S   S83       1.0  0.03080  0.15089  0.61958  1.0000
  S   S84       1.0  0.05879  0.22307  0.58884  1.0000
  S   S85       1.0  0.03970  0.19292  0.57938  1.0000
  H   H404      1.0  0.05549  0.98720  0.81119  1.0000
  C   C224      1.0  0.01780  0.24447  0.54738  1.0000
  H   H405      1.0  0.00456  0.99290  0.83579  1.0000
  H   H406      1.0  0.02796  0.23207  0.55038  1.0000
  Fe  Fe40      1.0  0.11403  0.07777  0.51086  1.0000
  C   C225      1.0  0.00628  0.31197  0.60711  1.0000
  C   C226      1.0  0.10439  0.03988  0.50191  1.0000
  H   H407      1.0  0.05263  0.98708  0.59600  1.0000
  C   C227      1.0  0.00937  0.15080  0.63481  1.0000
  H   H408      1.0  0.99374  0.35652  0.51974  1.0000
  H   H409      1.0  0.00922  0.21767  0.78350  1.0000
  H   H410      1.0  0.04418  0.03120  0.55910  1.0000
  H   H411      1.0  0.00050  0.18022  0.62992  1.0000
  H   H412      1.0  0.01410  0.12124  0.64240  1.0000
  S   S86       1.0  0.98835  0.35657  0.95126  1.0000
  C   C228      1.0  0.09172  0.26108  0.63214  1.0000
  C   C229      1.0  0.08999  0.25474  0.61713  1.0000
  C   C230      1.0  0.08096  0.24011  0.62000  1.0000
  C   C231      1.0  0.07371  0.23170  0.63789  1.0000
  C   C232      1.0  0.07547  0.23803  0.65289  1.0000
  C   C233      1.0  0.08441  0.25274  0.65003  1.0000
  H   H413      1.0  0.09570  0.26115  0.60327  1.0000
  H   H414      1.0  0.07989  0.23516  0.60838  1.0000
  H   H415      1.0  0.06994  0.23152  0.66677  1.0000
  H   H416      1.0  0.08572  0.25755  0.66168  1.0000
  C   C234      1.0  0.08560  0.15692  0.51930  1.0000
  H   H417      1.0  0.00031  0.13982  0.57246  1.0000
  C   C235      1.0  0.09082  0.17674  0.54328  1.0000
  C   C236      1.0  0.07403  0.18079  0.53748  1.0000
  C   C237      1.0  0.07159  0.17115  0.52523  1.0000
  H   H418      1.0  0.06306  0.19160  0.54216  1.0000
  H   H419      1.0  0.05870  0.17450  0.52056  1.0000
  C   C238      1.0  0.09998  0.00907  0.50366  1.0000
  C   C239      1.0  0.10346  0.03609  0.52090  1.0000
  C   C240      1.0  0.10065  0.01877  0.53131  1.0000
  C   C241      1.0  0.09910  0.00521  0.52267  1.0000
  H   H420      1.0  0.10022  0.01570  0.54596  1.0000
  H   H421      1.0  0.05979  0.38354  0.95950  1.0000
  C   C242      1.0  0.01555  0.25194  0.52917  1.0000
  C   C243      1.0  0.06932  0.03953  0.94518  1.0000
  N   N14       1.0  0.00241  0.07513  0.90233  1.0000
  H   H422      1.0  0.02921  0.00019  0.77098  1.0000
  H   H423      1.0  0.11355  0.14238  0.51998  1.0000
  C   C244      1.0  0.00656  0.38275  0.47686  1.0000
  H   H424      1.0  0.09134  0.40993  0.88469  1.0000
  H   H425      1.0  0.15637  0.27108  0.68191  1.0000
  C   C245      1.0  0.09144  0.40044  0.65286  1.0000
  C   C246      1.0  0.10161  0.38366  0.64846  1.0000
  C   C247      1.0  0.09410  0.36776  0.65483  1.0000
  C   C248      1.0  0.07617  0.36865  0.66530  1.0000
  C   C249      1.0  0.06572  0.38556  0.66919  1.0000
  C   C250      1.0  0.07334  0.40147  0.66300  1.0000
  H   H426      1.0  0.11533  0.38297  0.64009  1.0000
  H   H427      1.0  0.10216  0.35487  0.65153  1.0000
  H   H428      1.0  0.05184  0.38626  0.67734  1.0000
  H   H429      1.0  0.06542  0.41435  0.66652  1.0000
  C   C251      1.0  0.98706  0.44886  0.49134  1.0000
  H   H430      1.0  0.16106  0.38800  0.68087  1.0000
  H   H431      1.0  0.09429  0.03707  0.89488  1.0000
  H   H432      1.0  0.13713  0.01172  0.50880  1.0000
  C   C252      1.0  0.08749  0.03770  0.90898  1.0000
  C   C253      1.0  0.09585  0.27511  0.77530  1.0000
  C   C254      1.0  0.09462  0.28929  0.75977  1.0000
  C   C255      1.0  0.09249  0.28582  0.74336  1.0000
  C   C256      1.0  0.09192  0.26807  0.74226  1.0000
  C   C257      1.0  0.09322  0.25386  0.75776  1.0000
  C   C258      1.0  0.09496  0.25738  0.77433  1.0000
  H   H433      1.0  0.09519  0.30304  0.76049  1.0000
  H   H434      1.0  0.09114  0.29693  0.73164  1.0000
  H   H435      1.0  0.09345  0.24002  0.75673  1.0000
  H   H436      1.0  0.09612  0.24631  0.78616  1.0000
  C   C259      1.0  0.05332  0.19582  0.84006  1.0000
  C   C260      1.0  0.07080  0.18719  0.83190  1.0000
  C   C261      1.0  0.07284  0.17083  0.82573  1.0000
  C   C262      1.0  0.05739  0.16325  0.82743  1.0000
  C   C263      1.0  0.04007  0.17157  0.83618  1.0000
  C   C264      1.0  0.03807  0.18777  0.84249  1.0000
  H   H437      1.0  0.08268  0.19321  0.83014  1.0000
  H   H438      1.0  0.08631  0.16429  0.81919  1.0000
  H   H439      1.0  0.02815  0.16563  0.83799  1.0000
  H   H440      1.0  0.02459  0.19420  0.84914  1.0000
  C   C265      1.0  0.06721  0.33239  0.88252  1.0000
  C   C266      1.0  0.07558  0.32415  0.86723  1.0000
  C   C267      1.0  0.07666  0.30529  0.86857  1.0000
  C   C268      1.0  0.06972  0.29455  0.88532  1.0000
  C   C269      1.0  0.06159  0.30277  0.90066  1.0000
  C   C270      1.0  0.06006  0.32168  0.89919  1.0000
  H   H441      1.0  0.08116  0.33239  0.85430  1.0000
  H   H442      1.0  0.08303  0.29904  0.85670  1.0000
  H   H443      1.0  0.05658  0.29447  0.91378  1.0000
  H   H444      1.0  0.05375  0.32791  0.91108  1.0000
  C   C271      1.0  0.04918  0.99763  0.55070  1.0000
  H   H445      1.0  0.07690  0.44263  0.80163  1.0000
  C   C272      1.0  0.00048  0.45196  0.84847  1.0000
  C   C273      1.0  0.00597  0.44127  0.86467  1.0000
  C   C274      1.0  0.01878  0.44639  0.87164  1.0000
  H   H446      1.0  0.14875  0.11989  0.56792  1.0000
  H   H447      1.0  0.03901  0.46865  0.80416  1.0000
  H   H448      1.0  0.02280  0.43847  0.88432  1.0000
  C   C275      1.0  0.09618  0.04287  0.92040  1.0000
  C   C276      1.0  0.12740  0.36366  0.68380  1.0000
  C   C277      1.0  0.16101  0.35210  0.68357  1.0000
  H   H449      1.0  0.10674  0.15914  0.86343  1.0000
  C   C278      1.0  0.00460  0.13398  0.64443  1.0000
  C   C279      1.0  0.05235  0.46206  0.79647  1.0000
  H   H450      1.0  0.01484  0.35343  0.50347  1.0000
  H   H451      1.0  0.01935  0.37202  0.47478  1.0000
  S   S87       1.0  0.08109  0.14355  0.50599  1.0000
  H   H452      1.0  0.11881  0.14270  0.59319  1.0000
  S   S88       1.0  0.17065  0.20525  0.92159  1.0000
  S   S89       1.0  0.16590  0.05475  0.90986  1.0000
  H   H453      1.0  0.13486  0.18897  0.54728  1.0000
  S   S90       1.0  0.11854  0.04758  0.91124  1.0000
  H   H454      1.0  0.12328  0.01378  0.89891  1.0000
  H   H455      1.0  0.02829  0.28957  0.63090  1.0000
  C   C280      1.0  0.16259  0.20590  0.90176  1.0000
  C   C281      1.0  0.14377  0.21250  0.90151  1.0000
  C   C282      1.0  0.13692  0.21361  0.88579  1.0000
  C   C283      1.0  0.14886  0.20770  0.87034  1.0000
  C   C284      1.0  0.16764  0.20093  0.87064  1.0000
  H   H456      1.0  0.12076  0.98746  0.56175  1.0000
  H   H457      1.0  0.13449  0.21668  0.91359  1.0000
  H   H458      1.0  0.12239  0.21879  0.88571  1.0000
  H   H459      1.0  0.08578  0.25931  0.94576  1.0000
  H   H460      1.0  0.13568  0.17084  0.87474  1.0000
  H   H461      1.0  0.00194  0.30166  0.96419  1.0000
  Fe  Fe41      1.0  0.15232  0.04384  0.96307  1.0000
  C   C285      1.0  0.03594  0.05314  0.84348  1.0000
  C   C286      1.0  0.05317  0.05698  0.84273  1.0000
  C   C287      1.0  0.06715  0.04286  0.84952  1.0000
  C   C288      1.0  0.06387  0.02497  0.85689  1.0000
  C   C289      1.0  0.04698  0.02117  0.85666  1.0000
  C   C290      1.0  0.03299  0.03523  0.85049  1.0000
  H   H462      1.0  0.05560  0.07082  0.83731  1.0000
  H   H463      1.0  0.08022  0.04592  0.84959  1.0000
  H   H464      1.0  0.04449  0.00733  0.86178  1.0000
  H   H465      1.0  0.01965  0.03226  0.85153  1.0000
  C   C291      1.0  0.06093  0.03377  0.93383  1.0000
  C   C292      1.0  0.07016  0.03287  0.91573  1.0000
  H   H466      1.0  0.04413  0.14583  0.53676  1.0000
  H   H467      1.0  0.06391  0.02852  0.90677  1.0000
  H   H468      1.0  0.04404  0.38775  0.52134  1.0000
  H   H469      1.0  0.16986  0.06266  0.53675  1.0000
  C   C293      1.0  0.14902  0.23864  0.79172  1.0000
  H   H470      1.0  0.09110  0.43165  0.86864  1.0000
  C   C294      1.0  0.98853  0.08873  0.91268  1.0000
  H   H471      1.0  0.13514  0.24228  0.70802  1.0000
  C   C295      1.0  0.05804  0.41278  0.95405  1.0000
  H   H472      1.0  0.05897  0.44115  0.95171  1.0000
  C   C296      1.0  0.00646  0.25278  0.56168  1.0000
  C   C297      1.0  0.99700  0.16721  0.63741  1.0000
  C   C298      1.0  0.10259  0.02644  0.49335  1.0000
  H   H473      1.0  0.02313  0.36807  0.52230  1.0000
  H   H474      1.0  0.06622  0.14258  0.55424  1.0000
  C   C299      1.0  0.15407  0.00755  0.47201  1.0000
  H   H475      1.0  0.04080  0.02781  0.81551  1.0000
  H   H476      1.0  0.01900  0.99526  0.57207  1.0000
  C   C300      1.0  0.99735  0.07427  0.88471  1.0000
  H   H477      1.0  0.03113  0.12393  0.59497  1.0000
  H   H478      1.0  0.02254  0.13929  0.54607  1.0000
  H   H479      1.0  0.15828  0.35485  0.61845  1.0000
  H   H480      1.0  0.10365  0.99684  0.92141  1.0000
  H   H481      1.0  0.99462  0.02442  0.81601  1.0000
  C   C301      1.0  0.99774  0.33064  0.59660  1.0000
  C   C302      1.0  0.98851  0.44902  0.70028  1.0000
  C   C303      1.0  0.02088  0.31240  0.87384  1.0000
  H   H482      1.0  0.02309  0.14756  0.58706  1.0000
  H   H483      1.0  0.11188  0.29813  0.88043  1.0000
  H   H484      1.0  0.08123  0.00240  0.80434  1.0000
  H   H485      1.0  0.07366  0.11438  0.57924  1.0000
  C   C304      1.0  0.03289  0.14535  0.54927  1.0000
  H   H486      1.0  0.07836  0.25539  0.92663  1.0000
  H   H487      1.0  0.14570  0.22018  0.72017  1.0000
  H   H488      1.0  0.11748  0.37449  0.67671  1.0000
  H   H489      1.0  0.00451  0.24032  0.62729  1.0000
  C   C305      1.0  0.05525  0.30297  0.63436  1.0000
  C   C306      1.0  0.18086  0.24474  0.62197  1.0000
  C   C307      1.0  0.12579  0.97976  0.89363  1.0000
  H   H490      1.0  0.99965  0.32265  0.89590  1.0000
  H   H491      1.0  0.98830  0.10623  0.79378  1.0000
  H   H492      1.0  0.98951  0.44754  0.62980  1.0000
  C   C308      1.0  0.16502  0.24845  0.75839  1.0000
  H   H493      1.0  0.03387  0.44336  0.48128  1.0000
  C   C309      1.0  0.12172  0.29662  0.88956  1.0000
  C   C310      1.0  0.07242  0.00137  0.81836  1.0000
  H   H494      1.0  0.11543  0.00745  0.93206  1.0000
  C   C311      1.0  0.15645  0.25346  0.85974  1.0000
  H   H495      1.0  0.98778  0.00172  0.86511  1.0000
  H   H496      1.0  0.18359  0.97916  0.84825  1.0000
  H   H497      1.0  0.09952  0.12413  0.90956  1.0000
  H   H498      1.0  0.11835  0.24771  0.93188  1.0000
  C   C312      1.0  0.15249  0.35882  0.64653  1.0000
  H   H499      1.0  0.04596  0.98391  0.55189  1.0000
  H   H500      1.0  0.17461  0.01459  0.48244  1.0000
  N   N15       1.0  0.01864  0.14363  0.70528  1.0000
  C   C313      1.0  0.01104  0.12618  0.71094  1.0000
  N   N16       1.0  0.99635  0.37950  0.49668  1.0000
  C   C314      1.0  0.02901  0.14511  0.68557  1.0000
  C   C315      1.0  0.03168  0.14356  0.71719  1.0000
  C   C316      1.0  0.02356  0.14094  0.73816  1.0000
  C   C317      1.0  0.02536  0.10789  0.71377  1.0000
  C   C318      1.0  0.03718  0.16272  0.67712  1.0000
  H   H501      1.0  0.01507  0.32314  0.49885  1.0000
  H   H502      1.0  0.99640  0.34998  0.48074  1.0000
  C   C319      1.0  0.03843  0.13909  0.74901  1.0000
  C   C320      1.0  0.01593  0.09136  0.71935  1.0000
  C   C321      1.0  0.04454  0.16435  0.65646  1.0000
  H   H503      1.0  0.00359  0.12531  0.70051  1.0000
  H   H504      1.0  0.00043  0.12629  0.72387  1.0000
  C   C322      1.0  0.13229  0.98234  0.92345  1.0000
  H   H505      1.0  0.18223  0.32905  0.72084  1.0000
  H   H506      1.0  0.02016  0.14389  0.67653  1.0000
  H   H507      1.0  0.04088  0.13335  0.68429  1.0000
  H   H508      1.0  0.04452  0.13300  0.71469  1.0000
  H   H509      1.0  0.03641  0.15687  0.71337  1.0000
  H   H510      1.0  0.01737  0.12852  0.74345  1.0000
  H   H511      1.0  0.99487  0.19600  0.80866  1.0000
  H   H512      1.0  0.03580  0.10642  0.70094  1.0000
  H   H513      1.0  0.03264  0.10708  0.72486  1.0000
  H   H514      1.0  0.04892  0.16233  0.68343  1.0000
  C   C323      1.0  0.10412  0.98469  0.94983  1.0000
  C   C324      1.0  0.99401  0.29857  0.95539  1.0000
  C   C325      1.0  0.17732  0.11333  0.50805  1.0000
  H   H515      1.0  0.00767  0.17246  0.70632  1.0000
  C   C326      1.0  0.02620  0.46202  0.86238  1.0000
  H   H516      1.0  0.03104  0.02868  0.77563  1.0000
  C   C327      1.0  0.04224  0.01684  0.80781  1.0000
  H   H517      1.0  0.04488  0.15140  0.74450  1.0000
  H   H518      1.0  0.11297  0.98252  0.95999  1.0000
  H   H519      1.0  0.02625  0.07850  0.72223  1.0000
  H   H520      1.0  0.00499  0.09238  0.73197  1.0000
  H   H521      1.0  0.00969  0.09053  0.70804  1.0000
  H   H522      1.0  0.05453  0.15171  0.65334  1.0000
  H   H523      1.0  0.08937  0.23631  0.94192  1.0000
  H   H524      1.0  0.05162  0.17619  0.65109  1.0000
  H   H525      1.0  0.12759  0.35091  0.67923  1.0000
  H   H526      1.0  0.12147  0.22944  0.72722  1.0000
  C   C328      1.0  0.13321  0.41719  0.69094  1.0000
  Fe  Fe42      1.0  0.10349  0.11931  0.49928  1.0000
  H   H527      1.0  0.13441  0.30074  0.88026  1.0000
  S   S91       1.0  0.99208  0.41190  0.56365  1.0000
  C   C329      1.0  0.03837  0.01154  0.53662  1.0000
  H   H528      1.0  0.06395  0.99671  0.54395  1.0000
  H   H529      1.0  0.09670  0.14081  0.87920  1.0000
  H   H530      1.0  0.14690  0.24435  0.91877  1.0000
  S   S92       1.0  0.15309  0.02332  0.94623  1.0000
  H   H531      1.0  0.01792  0.01864  0.57215  1.0000
  C   C330      1.0  0.10255  0.15312  0.52476  1.0000
  H   H532      1.0  0.01361  0.25927  0.93070  1.0000
  H   H533      1.0  0.10576  0.17311  0.89031  1.0000
  C   C331      1.0  0.16592  0.05807  0.52587  1.0000
  C   C332      1.0  0.99977  0.35908  0.50470  1.0000
  H   H534      1.0  0.00258  0.01999  0.93093  1.0000
  S   S93       1.0  0.09463  0.09602  0.49316  1.0000
  C   C333      1.0  0.04340  0.42148  0.55216  1.0000
  C   C334      1.0  0.08706  0.04387  0.93854  1.0000
  H   H535      1.0  0.98748  0.02523  0.66226  1.0000
  C   C335      1.0  0.00507  0.44548  0.49424  1.0000
  C   C336      1.0  0.04013  0.28578  0.61982  1.0000
  C   C337      1.0  0.02228  0.26930  0.60863  1.0000
  H   H536      1.0  0.04772  0.27210  0.62601  1.0000
  H   H537      1.0  0.99415  0.31799  0.49657  1.0000
  Fe  Fe43      1.0  0.08341  0.44712  0.63947  1.0000
  H   H538      1.0  0.03137  0.25558  0.60750  1.0000
  H   H539      1.0  0.05962  0.26589  0.59572  1.0000
  H   H540      1.0  0.01035  0.31449  0.61903  1.0000
  H   H541      1.0  0.15442  0.15090  0.60679  1.0000
  H   H542      1.0  0.06948  0.16437  0.89084  1.0000
  H   H543      1.0  0.99415  0.05723  0.71714  1.0000
  N   N17       1.0  0.04112  0.23265  0.78394  1.0000
  C   C338      1.0  0.03783  0.23363  0.76503  1.0000
  C   C339      1.0  0.02537  0.22628  0.79876  1.0000
  C   C340      1.0  0.04147  0.25195  0.78510  1.0000
  C   C341      1.0  0.05941  0.22061  0.78710  1.0000
  C   C342      1.0  0.06342  0.20084  0.78358  1.0000
  C   C343      1.0  0.05293  0.24004  0.74849  1.0000
  C   C344      1.0  0.04262  0.25476  0.80413  1.0000
  C   C345      1.0  0.01634  0.21174  0.79527  1.0000
  C   C346      1.0  0.00163  0.20574  0.81189  1.0000
  C   C347      1.0  0.08404  0.19238  0.78158  1.0000
  C   C348      1.0  0.04891  0.23887  0.73029  1.0000
  C   C349      1.0  0.04181  0.27505  0.80345  1.0000
  H   H544      1.0  0.02443  0.24308  0.76318  1.0000
  H   H545      1.0  0.03625  0.22019  0.76343  1.0000
  H   H546      1.0  0.02983  0.22080  0.81223  1.0000
  H   H547      1.0  0.01377  0.23816  0.80106  1.0000
  H   H548      1.0  0.02897  0.26166  0.78097  1.0000
  H   H549      1.0  0.05354  0.25685  0.77527  1.0000
  H   H550      1.0  0.07091  0.22740  0.77871  1.0000
  H   H551      1.0  0.06079  0.21908  0.80156  1.0000
  H   H552      1.0  0.05947  0.20017  0.77088  1.0000
  H   H553      1.0  0.05583  0.19213  0.79541  1.0000
  H   H554      1.0  0.05353  0.25456  0.74752  1.0000
  H   H555      1.0  0.06674  0.23134  0.74966  1.0000
  H   H556      1.0  0.05579  0.24683  0.80816  1.0000
  H   H557      1.0  0.03102  0.25043  0.81509  1.0000
  H   H558      1.0  0.99408  0.03332  0.94879  1.0000
  H   H559      1.0  0.02666  0.19934  0.79224  1.0000
  H   H560      1.0  0.00794  0.19867  0.82400  1.0000
  C   C350      1.0  0.17472  0.25974  0.63383  1.0000
  H   H561      1.0  0.04741  0.24865  0.92052  1.0000
  H   H562      1.0  0.08629  0.17755  0.78136  1.0000
  H   H563      1.0  0.09192  0.19932  0.76853  1.0000
  H   H564      1.0  0.08945  0.19372  0.79325  1.0000
  H   H565      1.0  0.15299  0.03084  0.48320  1.0000
  C   C351      1.0  0.05296  0.29967  0.61625  1.0000
  C   C352      1.0  0.09842  0.35909  0.70776  1.0000
  H   H566      1.0  0.02930  0.28380  0.79861  1.0000
  H   H567      1.0  0.04117  0.27716  0.81741  1.0000
  H   H568      1.0  0.05433  0.27952  0.79415  1.0000
  H   H569      1.0  0.05771  0.00323  0.51240  1.0000
  N   N18       1.0  0.05895  0.40446  0.59958  1.0000
  C   C353      1.0  0.04970  0.41165  0.61702  1.0000
  C   C354      1.0  0.07763  0.40988  0.59182  1.0000
  C   C355      1.0  0.04699  0.41363  0.58552  1.0000
  C   C356      1.0  0.06069  0.38396  0.60244  1.0000
  C   C357      1.0  0.07046  0.37200  0.61810  1.0000
  C   C358      1.0  0.03039  0.40712  0.62656  1.0000
  C   C359      1.0  0.03731  0.24451  0.91492  1.0000
  C   C360      1.0  0.08869  0.41117  0.60571  1.0000
  C   C361      1.0  0.10817  0.41413  0.59614  1.0000
  C   C362      1.0  0.02354  0.41321  0.64506  1.0000
  H   H570      1.0  0.04820  0.42689  0.61413  1.0000
  H   H571      1.0  0.05839  0.40642  0.62760  1.0000
  H   H572      1.0  0.08672  0.40033  0.58293  1.0000
  H   H573      1.0  0.07614  0.42379  0.58266  1.0000
  H   H574      1.0  0.04517  0.42878  0.58352  1.0000
  H   H575      1.0  0.03289  0.41052  0.59035  1.0000
  H   H576      1.0  0.04683  0.38051  0.60480  1.0000
  H   H577      1.0  0.06856  0.37896  0.58970  1.0000
  H   H578      1.0  0.06425  0.37652  0.63133  1.0000
  H   H579      1.0  0.08537  0.37243  0.61443  1.0000
  H   H580      1.0  0.01999  0.41433  0.61799  1.0000
  H   H581      1.0  0.03077  0.39215  0.62931  1.0000
  C   C363      1.0  0.08923  0.25091  0.93502  1.0000
  H   H582      1.0  0.09325  0.13766  0.56903  1.0000
  H   H583      1.0  0.08167  0.42298  0.61254  1.0000
  H   H584      1.0  0.08994  0.39859  0.61643  1.0000
  H   H585      1.0  0.10757  0.42703  0.58553  1.0000
  H   H586      1.0  0.11557  0.41530  0.60644  1.0000
  H   H587      1.0  0.11609  0.40234  0.58964  1.0000
  H   H588      1.0  0.00933  0.41072  0.65109  1.0000
  H   H589      1.0  0.03265  0.40529  0.65480  1.0000
  H   H590      1.0  0.02325  0.42807  0.64332  1.0000
  C   C364      1.0  0.13963  0.24264  0.73494  1.0000
  C   C365      1.0  0.06361  0.44858  0.80988  1.0000
  H   H591      1.0  0.06585  0.31149  0.63156  1.0000
  H   H592      1.0  0.06897  0.40898  0.56092  1.0000
  H   H593      1.0  0.04609  0.43557  0.54967  1.0000
  N   N19       1.0  0.03365  0.28415  0.60331  1.0000
  H   H594      1.0  0.98705  0.26025  0.62124  1.0000
  H   H595      1.0  0.01833  0.28697  0.93766  1.0000
  H   H596      1.0  0.02473  0.40176  0.47482  1.0000
  S   S94       1.0  0.15497  0.30990  0.66709  1.0000
  H   H597      1.0  0.07826  0.15092  0.58544  1.0000
  H   H598      1.0  0.12606  0.16180  0.94328  1.0000
  H   H599      1.0  0.00094  0.28421  0.88091  1.0000
  C   C366      1.0  0.04622  0.11382  0.56288  1.0000
  H   H600      1.0  0.13413  0.20253  0.59646  1.0000
  C   C367      1.0  0.16458  0.03781  0.53202  1.0000
  H   H601      1.0  0.07980  0.08770  0.53416  1.0000
  H   H602      1.0  0.17253  0.36036  0.70310  1.0000
  H   H603      1.0  0.16365  0.34698  0.65006  1.0000
  C   C368      1.0  0.00815  0.02088  0.82045  1.0000
  C   C369      1.0  0.01979  0.03088  0.78779  1.0000
  C   C370      1.0  0.14683  0.26979  0.86899  1.0000
  H   H604      1.0  0.99059  0.34841  0.91588  1.0000
  H   H605      1.0  0.99551  0.32262  0.51802  1.0000
  C   C371      1.0  0.01778  0.05106  0.78965  1.0000
  H   H606      1.0  0.16671  0.47386  0.57073  1.0000
  H   H607      1.0  0.14160  0.11970  0.89517  1.0000
  C   C372      1.0  0.03594  0.99302  0.78285  1.0000
  C   C373      1.0  0.98955  0.16394  0.69370  1.0000
  C   C374      1.0  0.01686  0.06439  0.77120  1.0000
  H   H608      1.0  0.09061  0.99354  0.95442  1.0000
  H   H609      1.0  0.16771  0.03618  0.50372  1.0000
  H   H610      1.0  0.00943  0.03338  0.82453  1.0000
  H   H611      1.0  0.17029  0.14789  0.84874  1.0000
  H   H612      1.0  0.00691  0.02992  0.78400  1.0000
  H   H613      1.0  0.04604  0.99507  0.83240  1.0000
  H   H614      1.0  0.15922  0.25653  0.93946  1.0000
  H   H615      1.0  0.98601  0.20346  0.56416  1.0000
  H   H616      1.0  0.13938  0.98347  0.57395  1.0000
  H   H617      1.0  0.00073  0.42350  0.69053  1.0000
  C   C375      1.0  0.13493  0.97969  0.56289  1.0000
  C   C376      1.0  0.99695  0.25384  0.63058  1.0000
  H   H618      1.0  0.02960  0.05274  0.79464  1.0000
  H   H619      1.0  0.00487  0.05535  0.79947  1.0000
  H   H620      1.0  0.15411  0.99184  0.50640  1.0000
  C   C377      1.0  0.99490  0.29465  0.92324  1.0000
  C   C378      1.0  0.02413  0.46061  0.59470  1.0000
  C   C379      1.0  0.00189  0.45069  0.58345  1.0000
  H   H621      1.0  0.13527  0.25023  0.89208  1.0000
  H   H622      1.0  0.01270  0.15305  0.74121  1.0000
  H   H623      1.0  0.13489  0.24993  0.76928  1.0000
  H   H624      1.0  0.16707  0.98139  0.90369  1.0000
  H   H625      1.0  0.99942  0.18625  0.59100  1.0000
  H   H626      1.0  0.03470  0.23093  0.92315  1.0000
  H   H627      1.0  0.14006  0.18407  0.61533  1.0000
  H   H628      1.0  0.01557  0.07863  0.77298  1.0000
  C   C380      1.0  0.15053  0.37414  0.65730  1.0000
  H   H629      1.0  0.14266  0.31492  0.72820  1.0000
  N   N20       1.0  0.04564  0.00203  0.56961  1.0000
  H   H630      1.0  0.14270  0.98537  0.92964  1.0000
  C   C381      1.0  0.02503  0.00436  0.57725  1.0000
  C   C382      1.0  0.05232  0.01950  0.56745  1.0000
  C   C383      1.0  0.05130  0.02581  0.58539  1.0000
  H   H631      1.0  0.05979  0.24379  0.71872  1.0000
  C   C384      1.0  0.01851  0.99970  0.59850  1.0000
  H   H632      1.0  0.99086  0.21775  0.81544  1.0000
  C   C385      1.0  0.06162  0.04155  0.58145  1.0000
  H   H633      1.0  0.03244  0.33223  0.85097  1.0000
  H   H634      1.0  0.05665  0.08445  0.54460  1.0000
  C   C386      1.0  0.99999  0.43849  0.68529  1.0000
  H   H635      1.0  0.13598  0.22118  0.53445  1.0000
  H   H636      1.0  0.06678  0.01836  0.55945  1.0000
  H   H637      1.0  0.05747  0.01457  0.59565  1.0000
  H   H638      1.0  0.03668  0.03104  0.59146  1.0000
  H   H639      1.0  0.01831  0.45969  0.62386  1.0000
  H   H640      1.0  0.01125  0.34188  0.86507  1.0000
  H   H641      1.0  0.07910  0.98935  0.82765  1.0000
  H   H642      1.0  0.02496  0.00643  0.60572  1.0000
  C   C387      1.0  0.02424  0.16568  0.55072  1.0000
  C   C388      1.0  0.14863  0.28875  0.71933  1.0000
  H   H643      1.0  0.07651  0.03703  0.57561  1.0000
  H   H644      1.0  0.05563  0.05343  0.57155  1.0000
  H   H645      1.0  0.06048  0.04612  0.59442  1.0000
  S   S95       1.0  0.06823  0.98848  0.92160  1.0000
  H   H646      1.0  0.01721  0.30014  0.58328  1.0000
  C   C389      1.0  0.98678  0.46999  0.69309  1.0000
  H   H647      1.0  0.98906  0.25154  0.64498  1.0000
  C   C390      1.0  0.15972  0.14911  0.87769  1.0000
  C   C391      1.0  0.99394  0.13044  0.60170  1.0000
  N   N21       1.0  0.06357  0.41760  0.83356  1.0000
  C   C392      1.0  0.05291  0.43347  0.82179  1.0000
  C   C393      1.0  0.05114  0.40440  0.84485  1.0000
  C   C394      1.0  0.06964  0.42545  0.84680  1.0000
  C   C395      1.0  0.08063  0.40769  0.82240  1.0000
  C   C396      1.0  0.07781  0.40050  0.80636  1.0000
  C   C397      1.0  0.08097  0.41135  0.86034  1.0000
  C   C398      1.0  0.03605  0.40174  0.83594  1.0000
  C   C399      1.0  0.02728  0.38548  0.84720  1.0000
  C   C400      1.0  0.09637  0.39313  0.79474  1.0000
  H   H648      1.0  0.04055  0.44033  0.83070  1.0000
  H   H649      1.0  0.04724  0.42866  0.81227  1.0000
  H   H650      1.0  0.05952  0.39060  0.84947  1.0000
  H   H651      1.0  0.04322  0.40914  0.85772  1.0000
  H   H652      1.0  0.05737  0.43325  0.85501  1.0000
  H   H653      1.0  0.09114  0.41652  0.81687  1.0000
  H   H654      1.0  0.08738  0.39539  0.83141  1.0000
  H   H655      1.0  0.07007  0.41141  0.79702  1.0000
  H   H656      1.0  0.07045  0.38889  0.81191  1.0000
  H   H657      1.0  0.09498  0.40600  0.85284  1.0000
  H   H658      1.0  0.07431  0.39947  0.86736  1.0000
  H   H659      1.0  0.02485  0.41423  0.83542  1.0000
  H   H660      1.0  0.04147  0.39939  0.82176  1.0000
  H   H661      1.0  0.01661  0.38387  0.84052  1.0000
  H   H662      1.0  0.03786  0.37254  0.84828  1.0000
  H   H663      1.0  0.02051  0.38793  0.86122  1.0000
  H   H664      1.0  0.10431  0.40426  0.78834  1.0000
  H   H665      1.0  0.10464  0.38180  0.80334  1.0000
  H   H666      1.0  0.09399  0.38767  0.78358  1.0000
  H   H667      1.0  0.15996  0.00796  0.87119  1.0000
  H   H668      1.0  0.04340  0.24305  0.90044  1.0000
  C   C401      1.0  0.03026  0.39435  0.51800  1.0000
  H   H669      1.0  0.02834  0.42201  0.55704  1.0000
  C   C402      1.0  0.12802  0.17594  0.59622  1.0000
  C   C403      1.0  0.12990  0.19029  0.60630  1.0000
  C   C404      1.0  0.10847  0.27294  0.91301  1.0000
  C   C405      1.0  0.13117  0.26485  0.88563  1.0000
  H   H670      1.0  0.17853  0.25169  0.60798  1.0000
  C   C406      1.0  0.11147  0.19695  0.61854  1.0000
  H   H671      1.0  0.16883  0.23340  0.72882  1.0000
  C   C407      1.0  0.99002  0.99220  0.71210  1.0000
  H   H672      1.0  0.03600  0.97512  0.86909  1.0000
  H   H673      1.0  0.14089  0.28115  0.85858  1.0000
  S   S96       1.0  0.04584  0.46662  0.59009  1.0000
  H   H674      1.0  0.11599  0.18177  0.58933  1.0000
  H   H675      1.0  0.16371  0.24226  0.86932  1.0000
  H   H676      1.0  0.11167  0.09820  0.89291  1.0000
  H   H677      1.0  0.05861  0.11752  0.53327  1.0000
  C   C408      1.0  0.02276  0.38088  0.51155  1.0000
  H   H678      1.0  0.99537  0.44403  0.71225  1.0000
  H   H679      1.0  0.07396  0.25607  0.56587  1.0000
  C   C409      1.0  0.01920  0.25869  0.91597  1.0000
  C   C410      1.0  0.17165  0.15528  0.85893  1.0000
  H   H680      1.0  0.04776  0.41672  0.53888  1.0000
  N   N22       1.0  0.02362  0.01626  0.80455  1.0000
  H   H681      1.0  0.10676  0.18537  0.62921  1.0000
  H   H682      1.0  0.11301  0.20734  0.62559  1.0000
  H   H683      1.0  0.10071  0.20342  0.61017  1.0000
  H   H684      1.0  0.02322  0.01335  0.54184  1.0000
  H   H685      1.0  0.15115  0.15263  0.56215  1.0000
  Fe  Fe44      1.0  0.03956  0.00471  0.92779  1.0000
  H   H686      1.0  0.16833  0.14622  0.58551  1.0000
  H   H687      1.0  0.16186  0.29120  0.71015  1.0000
  C   C411      1.0  0.15177  0.18448  0.56807  1.0000
  C   C412      1.0  0.06330  0.42712  0.95859  1.0000
  H   H688      1.0  0.00789  0.33986  0.59157  1.0000
  C   C413      1.0  0.10527  0.16329  0.53644  1.0000
  H   H689      1.0  0.16084  0.25351  0.71344  1.0000
  H   H690      1.0  0.01067  0.19076  0.53492  1.0000
  Fe  Fe45      1.0  0.99455  0.13550  0.84387  1.0000
  C   C414      1.0  0.07751  0.98276  0.57614  1.0000
  H   H691      1.0  0.07251  0.16389  0.86695  1.0000
  C   C415      1.0  0.17348  0.29104  0.66885  1.0000
  H   H692      1.0  0.99911  0.11434  0.90437  1.0000
  H   H693      1.0  0.12100  0.30900  0.91296  1.0000
  H   H694      1.0  0.99318  0.02061  0.60055  1.0000
  C   C416      1.0  0.12119  0.47027  0.67914  1.0000
  H   H695      1.0  0.99050  0.44813  0.84306  1.0000
  H   H696      1.0  0.14352  0.13995  0.91344  1.0000
  H   H697      1.0  0.03918  0.26311  0.57522  1.0000
  C   C417      1.0  0.99084  0.03016  0.93670  1.0000
  H   H698      1.0  0.13567  0.31600  0.70712  1.0000
  H   H699      1.0  0.17699  0.19659  0.85864  1.0000
  C   C418      1.0  0.13791  0.19683  0.55613  1.0000
  N   N23       1.0  0.16429  0.25854  0.73874  1.0000
  H   H700      1.0  0.07928  0.18200  0.87325  1.0000
  H   H701      1.0  0.15709  0.27922  0.61614  1.0000
  H   H702      1.0  0.05876  0.12687  0.59622  1.0000
  H   H703      1.0  0.07331  0.08182  0.55880  1.0000
  C   C419      1.0  0.11356  0.33066  0.89054  1.0000
  N   N24       1.0  0.12600  0.27690  0.89970  1.0000
  H   H704      1.0  0.16945  0.23336  0.75902  1.0000
  N   N25       1.0  0.14493  0.16905  0.58276  1.0000
  C   C420      1.0  0.02082  0.08103  0.89764  1.0000
  H   H705      1.0  0.01224  0.30941  0.86572  1.0000
  H   H706      1.0  0.99788  0.99468  0.75202  1.0000
  H   H707      1.0  0.09261  0.35590  0.72276  1.0000
  C   C421      1.0  0.03766  0.06755  0.88907  1.0000
  H   H708      1.0  0.14632  0.24810  0.85543  1.0000
  H   H709      1.0  0.14646  0.37777  0.62125  1.0000
  C   C422      1.0  0.15235  0.00676  0.50579  1.0000
  C   C423      1.0  0.13287  0.40268  0.68060  1.0000
  C   C424      1.0  0.05472  0.07625  0.88168  1.0000
  H   H710      1.0  0.18389  0.26870  0.71455  1.0000
  N   N26       1.0  0.14628  0.36855  0.67807  1.0000
  H   H711      1.0  0.01510  0.04620  0.90795  1.0000
  H   H712      1.0  0.00986  0.05705  0.92709  1.0000
  H   H713      1.0  0.02412  0.08334  0.91017  1.0000
  H   H714      1.0  0.02026  0.09440  0.88768  1.0000
  C   C425      1.0  0.16620  0.13557  0.52795  1.0000
  H   H715      1.0  0.00406  0.06074  0.88079  1.0000
  H   H716      1.0  0.01430  0.44109  0.68126  1.0000
  C   C426      1.0  0.01988  0.44625  0.47910  1.0000
  C   C427      1.0  0.18105  0.00131  0.51865  1.0000
  H   H717      1.0  0.12825  0.11325  0.58316  1.0000
  H   H718      1.0  0.03462  0.06309  0.87767  1.0000
  H   H719      1.0  0.04131  0.05524  0.89965  1.0000
  H   H720      1.0  0.99930  0.98635  0.72201  1.0000
  H   H721      1.0  0.99677  0.16866  0.67941  1.0000
  H   H722      1.0  0.17081  0.23534  0.62729  1.0000
  H   H723      1.0  0.12788  0.16417  0.56637  1.0000
  C   C428      1.0  0.14699  0.38468  0.68566  1.0000
  H   H724      1.0  0.98717  0.27621  0.90227  1.0000
  H   H725      1.0  0.15335  0.34918  0.71391  1.0000
  H   H726      1.0  0.98990  0.28513  0.96189  1.0000
  C   C429      1.0  0.00593  0.29798  0.93617  1.0000
  H   H727      1.0  0.14992  0.16069  0.93139  1.0000
  H   H728      1.0  0.14829  0.22203  0.55137  1.0000
  H   H729      1.0  0.05829  0.08077  0.89282  1.0000
  H   H730      1.0  0.06665  0.06596  0.87638  1.0000
  H   H731      1.0  0.05232  0.08818  0.87023  1.0000
  H   H732      1.0  0.16334  0.25288  0.89951  1.0000
  H   H733      1.0  0.13834  0.00645  0.86669  1.0000
  H   H734      1.0  0.13619  0.40870  0.66568  1.0000
  C   C430      1.0  0.13768  0.00598  0.89584  1.0000
  C   C431      1.0  0.15938  0.01595  0.48558  1.0000
  H   H735      1.0  0.12957  0.41217  0.70605  1.0000
  H   H736      1.0  0.10606  0.34082  0.89932  1.0000
  C   C432      1.0  0.14475  0.01226  0.87485  1.0000
  H   H737      1.0  0.15047  0.28476  0.90259  1.0000
  H   H738      1.0  0.13015  0.08973  0.90563  1.0000
  H   H739      1.0  0.05157  0.15420  0.57132  1.0000
  C   C433      1.0  0.14032  0.03318  0.86896  1.0000
  H   H740      1.0  0.01037  0.31139  0.93089  1.0000
  H   H741      1.0  0.16744  0.17029  0.85387  1.0000
  H   H742      1.0  0.14487  0.38125  0.70089  1.0000
  C   C434      1.0  0.98755  0.13357  0.65671  1.0000
  C   C435      1.0  0.15920  0.24696  0.72827  1.0000
  H   H743      1.0  0.12245  0.30630  0.72886  1.0000
  C   C436      1.0  0.16576  0.34922  0.70275  1.0000
  C   C437      1.0  0.02089  0.47260  0.84607  1.0000
  H   H744      1.0  0.07497  0.11479  0.54751  1.0000
  C   C438      1.0  0.16029  0.15769  0.59260  1.0000
  H   H745      1.0  0.12515  0.03842  0.87169  1.0000
  H   H746      1.0  0.15066  0.22417  0.79046  1.0000
  H   H747      1.0  0.03292  0.16683  0.64933  1.0000
  H   H748      1.0  0.12798  0.33276  0.88525  1.0000
  H   H749      1.0  0.12906  0.25536  0.73572  1.0000
  C   C439      1.0  0.13533  0.23303  0.72173  1.0000
  C   C440      1.0  0.11576  0.09763  0.90600  1.0000
  H   H750      1.0  0.15913  0.20793  0.53429  1.0000
  C   C441      1.0  0.99738  0.45050  0.61592  1.0000
  H   H751      1.0  0.03439  0.30268  0.87227  1.0000
  S   S97       1.0  0.02166  0.11697  0.84820  1.0000
  H   H752      1.0  0.14679  0.03963  0.87653  1.0000
  H   H753      1.0  0.14578  0.03728  0.85398  1.0000
  H   H754      1.0  0.03207  0.13790  0.76388  1.0000
  Fe  Fe46      1.0  0.13925  0.04770  0.92767  1.0000
  C   C442      1.0  0.10628  0.15807  0.89262  1.0000
  C   C443      1.0  0.09801  0.15530  0.87719  1.0000
  C   C444      1.0  0.11412  0.11698  0.90903  1.0000
  C   C445      1.0  0.07867  0.16716  0.87713  1.0000
  C   C446      1.0  0.05610  0.98590  0.58135  1.0000
  H   H755      1.0  0.03296  0.28173  0.90948  1.0000
  H   H756      1.0  0.12617  0.12572  0.88004  1.0000
  C   C447      1.0  0.05063  0.27841  0.58925  1.0000
  H   H757      1.0  0.09659  0.15480  0.90598  1.0000
  S   S98       1.0  0.10680  0.05249  0.53157  1.0000
  H   H758      1.0  0.05913  0.28922  0.58433  1.0000
  Fe  Fe47      1.0  0.16375  0.07272  0.92962  1.0000
  S   S99       1.0  0.16613  0.10257  0.92066  1.0000
  H   H759      1.0  0.04925  0.12659  0.74723  1.0000
  H   H760      1.0  0.04966  0.45500  0.78668  1.0000
  H   H761      1.0  0.13541  0.27846  0.92364  1.0000
  C   C448      1.0  0.05417  0.40842  0.56626  1.0000
  H   H762      1.0  0.09359  0.04811  0.94734  1.0000
  H   H763      1.0  0.05239  0.39428  0.56705  1.0000
  S   S100      1.0  0.13834  0.07592  0.48739  1.0000
  H   H764      1.0  0.06693  0.29421  0.60871  1.0000
  H   H765      1.0  0.00890  0.11574  0.58038  1.0000
  H   H766      1.0  0.07858  0.43550  0.83931  1.0000
  H   H767      1.0  0.17081  0.37037  0.62187  1.0000
  C   C449      1.0  0.00263  0.38869  0.50867  1.0000
  Fe  Fe48      1.0  0.14375  0.10081  0.49397  1.0000
  H   H768      1.0  0.99762  0.44794  0.57216  1.0000
  N   N27       1.0  0.04034  0.13337  0.56574  1.0000
  S   S101      1.0  0.05259  0.45180  0.64266  1.0000
  H   H769      1.0  0.14519  0.26375  0.63458  1.0000
  C   C450      1.0  0.16730  0.25486  0.92553  1.0000
  H   H770      1.0  0.03179  0.40670  0.50694  1.0000
  H   H771      1.0  0.04743  0.31318  0.60816  1.0000
  H   H772      1.0  0.11976  0.14361  0.92341  1.0000
  H   H773      1.0  0.06236  0.26473  0.54674  1.0000
  S   S102      1.0  0.02604  0.98011  0.93654  1.0000
  H   H774      1.0  0.07533  0.34630  0.60854  1.0000
  H   H775      1.0  0.06521  0.45993  0.47508  1.0000
  S   S103      1.0  0.99714  0.27503  0.50305  1.0000
  C   C451      1.0  0.00457  0.05645  0.91497  1.0000
  C   C452      1.0  0.08350  0.13687  0.58253  1.0000
  C   C453      1.0  0.98881  0.01234  0.85224  1.0000
  H   H776      1.0  0.16421  0.17870  0.55844  1.0000
  H   H777      1.0  0.99534  0.30371  0.61200  1.0000
  C   C454      1.0  0.08343  0.42033  0.87505  1.0000
  H   H778      1.0  0.10338  0.02948  0.47862  1.0000
  S   S104      1.0  0.98903  0.14468  0.77818  1.0000
  H   H779      1.0  0.17264  0.19565  0.50470  1.0000
  H   H780      1.0  0.00422  0.17020  0.53332  1.0000
  C   C455      1.0  0.13330  0.13909  0.58573  1.0000
  N   N28       1.0  0.00542  0.29295  0.90403  1.0000
  N   N29       1.0  0.12565  0.14750  0.89373  1.0000
  H   H781      1.0  0.11613  0.17748  0.91334  1.0000
  C   C456      1.0  0.14590  0.21297  0.54329  1.0000
  H   H782      1.0  0.02913  0.27575  0.89020  1.0000
  H   H783      1.0  0.02647  0.17542  0.52104  1.0000
  C   C457      1.0  0.01790  0.45780  0.58011  1.0000
  H   H784      1.0  0.01305  0.16680  0.56305  1.0000
  H   H785      1.0  0.15572  0.00647  0.54979  1.0000
  C   C458      1.0  0.06902  0.35187  0.62126  1.0000
  C   C459      1.0  0.11333  0.99402  0.93086  1.0000
  C   C460      1.0  0.14975  0.00411  0.53895  1.0000
  C   C461      1.0  0.02237  0.27780  0.90442  1.0000
  H   H786      1.0  0.09672  0.27765  0.90574  1.0000
  C   C462      1.0  0.15617  0.27200  0.63075  1.0000
  C   C463      1.0  0.13659  0.30763  0.72108  1.0000
  H   H787      1.0  0.12628  0.13136  0.56310  1.0000
  S   S105      1.0  0.08847  0.46154  0.60984  1.0000
  C   C464      1.0  0.06260  0.11023  0.54658  1.0000
  C   C465      1.0  0.13954  0.15673  0.57327  1.0000
  C   C466      1.0  0.02295  0.30217  0.59445  1.0000
  H   H788      1.0  0.14911  0.12769  0.51386  1.0000
  H   H789      1.0  0.11755  0.11548  0.92265  1.0000
  C   C467      1.0  0.99543  0.04989  0.73139  1.0000
  S   S106      1.0  0.00921  0.44123  0.51660  1.0000
  H   H790      1.0  0.13851  0.23327  0.74862  1.0000
  C   C468      1.0  0.00607  0.00601  0.83833  1.0000
  C   C469      1.0  0.15126  0.27700  0.73853  1.0000
  H   H791      1.0  0.13546  0.01253  0.54038  1.0000
  H   H792      1.0  0.17442  0.35286  0.67365  1.0000
  H   H793      1.0  0.01969  0.25951  0.63847  1.0000
  H   H794      1.0  0.14459  0.03809  0.51625  1.0000
  H   H795      1.0  0.00876  0.99760  0.80024  1.0000
  H   H796      1.0  0.03840  0.99158  0.52068  1.0000
  H   H797      1.0  0.16381  0.13397  0.88152  1.0000
  C   C470      1.0  0.99102  0.27620  0.53957  1.0000
  H   H798      1.0  0.09864  0.31045  0.90820  1.0000
  H   H799      1.0  0.15645  0.19380  0.57411  1.0000
  H   H800      1.0  0.16896  0.18002  0.59997  1.0000
  S   S107      1.0  0.98759  0.11745  0.82888  1.0000
  C   C471      1.0  0.12752  0.12744  0.89362  1.0000
  H   H801      1.0  0.04235  0.02513  0.53337  1.0000
  H   H802      1.0  0.12483  0.20261  0.56480  1.0000
  H   H803      1.0  0.15238  0.06668  0.52344  1.0000
  H   H804      1.0  0.07649  0.34360  0.63230  1.0000
  H   H805      1.0  0.07308  0.27966  0.55368  1.0000
  C   C472      1.0  0.15905  0.03092  0.51714  1.0000
  C   C473      1.0  0.01590  0.17609  0.53395  1.0000
  H   H806      1.0  0.09712  0.34801  0.70150  1.0000
  H   H807      1.0  0.14570  0.01101  0.90324  1.0000
  H   H808      1.0  0.13994  0.17515  0.90182  1.0000
  C   C474      1.0  0.04708  0.27428  0.57171  1.0000
  H   H809      1.0  0.09013  0.37226  0.70160  1.0000
  C   C475      1.0  0.99234  0.34687  0.49598  1.0000
  H   H810      1.0  0.15594  0.28533  0.74584  1.0000
  H   H811      1.0  0.14173  0.28194  0.71252  1.0000
  H   H812      1.0  0.16325  0.15509  0.88783  1.0000
  C   C476      1.0  0.13001  0.14894  0.91138  1.0000
  C   C477      1.0  0.04269  0.00491  0.51848  1.0000
  S   S108      1.0  0.13607  0.06742  0.94590  1.0000
  H   H813      1.0  0.98882  0.46361  0.73008  1.0000
  H   H814      1.0  0.03925  0.28662  0.56384  1.0000
  C   C478      1.0  0.00710  0.12969  0.58308  1.0000
  H   H815      1.0  0.00949  0.25357  0.91083  1.0000
  H   H816      1.0  0.03508  0.01513  0.50849  1.0000
  C   C479      1.0  0.13007  0.16862  0.91327  1.0000
  C   C480      1.0  0.06527  0.26833  0.55876  1.0000
  C   C481      1.0  0.06758  0.12830  0.58223  1.0000
  H   H817      1.0  0.14198  0.13219  0.59608  1.0000
  N   N30       1.0  0.16084  0.01035  0.52003  1.0000
  H   H818      1.0  0.99587  0.01594  0.72718  1.0000
  H   H819      1.0  0.10662  0.05315  0.49373  1.0000
  H   H820      1.0  0.11408  0.99131  0.89045  1.0000
  C   C482      1.0  0.16285  0.12565  0.51642  1.0000
  H   H821      1.0  0.02960  0.06105  0.76081  1.0000
  C   C483      1.0  0.02590  0.13392  0.58323  1.0000
  C   C484      1.0  0.13552  0.16830  0.93125  1.0000
  H   H822      1.0  0.13474  0.18256  0.93261  1.0000
  H   H823      1.0  0.12597  0.34752  0.71189  1.0000
  H   H824      1.0  0.13686  0.15231  0.86447  1.0000
  C   C485      1.0  0.13417  0.12508  0.57425  1.0000
  H   H825      1.0  0.14706  0.42086  0.68726  1.0000
  H   H826      1.0  0.12373  0.16428  0.60713  1.0000
  C   C486      1.0  0.05640  0.14041  0.56763  1.0000
  H   H827      1.0  0.10651  0.09016  0.91746  1.0000
  H   H828      1.0  0.08289  0.98235  0.56145  1.0000
  C   C487      1.0  0.01367  0.45732  0.61259  1.0000
  H   H829      1.0  0.99188  0.08745  0.92636  1.0000
  C   C488      1.0  0.14714  0.25174  0.77333  1.0000
  C   C489      1.0  0.13882  0.15553  0.87714  1.0000
  H   H830      1.0  0.14435  0.26597  0.77575  1.0000
  H   H831      1.0  0.05435  0.35040  0.62576  1.0000
  C   C490      1.0  0.05322  0.99894  0.81802  1.0000
  H   H832      1.0  0.16682  0.25778  0.84735  1.0000
  S   S109      1.0  0.09859  0.99239  0.49218  1.0000
  H   H833      1.0  0.15494  0.14529  0.53404  1.0000
  C   C491      1.0  0.10817  0.25272  0.92280  1.0000
  H   H834      1.0  0.01299  0.27171  0.59878  1.0000
  H   H835      1.0  0.13958  0.38559  0.65240  1.0000
  H   H836      1.0  0.13713  0.27557  0.74629  1.0000
  H   H837      1.0  0.02677  0.17540  0.67911  1.0000
  C   C492      1.0  0.00176  0.26748  0.52534  1.0000
  H   H838      1.0  0.08246  0.99392  0.57915  1.0000
  H   H839      1.0  0.10662  0.33323  0.87875  1.0000
  H   H840      1.0  0.98944  0.02534  0.85574  1.0000
  H   H841      1.0  0.17900  0.22334  0.59927  1.0000
  C   C493      1.0  0.17032  0.27333  0.67686  1.0000
  H   H842      1.0  0.17304  0.13806  0.91809  1.0000
  C   C494      1.0  0.17518  0.16757  0.59406  1.0000
  H   H843      1.0  0.04202  0.31027  0.64162  1.0000
  H   H844      1.0  0.99402  0.15734  0.72142  1.0000
  C   C495      1.0  0.02449  0.33178  0.86532  1.0000
  C   C496      1.0  0.14130  0.27479  0.90987  1.0000
  C   C497      1.0  0.17933  0.33104  0.70690  1.0000
  H   H845      1.0  0.09773  0.99165  0.53053  1.0000
  H   H846      1.0  0.99166  0.14415  0.60522  1.0000
  C   C498      1.0  0.11329  0.31119  0.90183  1.0000
  H   H847      1.0  0.13943  0.35375  0.64954  1.0000
  H   H848      1.0  0.03457  0.10929  0.56019  1.0000
  S   S110      1.0  0.12687  0.12091  0.47457  1.0000
  H   H849      1.0  0.99966  0.11979  0.61275  1.0000
  H   H850      1.0  0.11886  0.37198  0.71091  1.0000
  H   H851      1.0  0.13636  0.24196  0.80223  1.0000
  H   H852      1.0  0.15219  0.28256  0.63942  1.0000
  C   C499      1.0  0.15446  0.25570  0.91278  1.0000
  H   H853      1.0  0.15395  0.03659  0.54494  1.0000
  H   H854      1.0  0.00103  0.40374  0.50344  1.0000
  S   S111      1.0  0.99683  0.42149  0.87588  1.0000
  C   C500      1.0  0.11866  0.36056  0.70459  1.0000
  H   H855      1.0  0.99577  0.00349  0.70180  1.0000
  H   H856      1.0  0.04938  0.99729  0.78034  1.0000
  H   H857      1.0  0.03227  0.31202  0.58744  1.0000
  C   C501      1.0  0.99295  0.28840  0.89403  1.0000
  H   H858      1.0  0.03608  0.46590  0.86788  1.0000
  H   H859      1.0  0.02164  0.31330  0.90129  1.0000
  H   H860      1.0  0.16102  0.24007  0.79660  1.0000
  H   H861      1.0  0.02216  0.98461  0.60356  1.0000
  H   H862      1.0  0.15733  0.33922  0.68270  1.0000
  H   H863      1.0  0.02593  0.46039  0.56625  1.0000
  H   H864      1.0  0.12286  0.42975  0.68709  1.0000
  H   H865      1.0  0.04968  0.10425  0.57566  1.0000
  H   H866      1.0  0.04894  0.22445  0.73003  1.0000
  H   H867      1.0  0.11086  0.24375  0.91272  1.0000
  H   H868      1.0  0.05988  0.28975  0.64350  1.0000
  H   H869      1.0  0.14336  0.97918  0.53428  1.0000
  H   H870      1.0  0.06630  0.45674  0.81866  1.0000
  H   H871      1.0  0.03535  0.24767  0.72818  1.0000
  C   C502      1.0  0.00270  0.15970  0.70736  1.0000
  H   H872      1.0  0.13344  0.97664  0.87999  1.0000
  C   C503      1.0  0.99755  0.00544  0.60420  1.0000
  H   H873      1.0  0.00309  0.08454  0.87294  1.0000
  H   H874      1.0  0.10494  0.28093  0.92413  1.0000
  H   H875      1.0  0.16088  0.99283  0.47311  1.0000
  H   H876      1.0  0.15749  0.27449  0.87320  1.0000
  H   H877      1.0  0.11888  0.26534  0.87998  1.0000
  H   H878      1.0  0.03491  0.17285  0.55141  1.0000
  H   H879      1.0  0.11855  0.40026  0.68411  1.0000
  C   C504      1.0  0.01146  0.31086  0.89448  1.0000
  C   C505      1.0  0.17451  0.20013  0.88625  1.0000
  C   C506      1.0  0.15729  0.36598  0.62576  1.0000
  H   H880      1.0  0.16356  0.37957  0.65261  1.0000
  H   H881      1.0  0.16014  0.97609  0.85133  1.0000
  C   C507      1.0  0.99173  0.44679  0.60138  1.0000
  H   H882      1.0  0.07158  0.01394  0.82344  1.0000
  H   H883      1.0  0.18080  0.15052  0.62031  1.0000
  C   C508      1.0  0.17203  0.98090  0.84118  1.0000
  H   H884      1.0  0.17813  0.02982  0.53503  1.0000
  C   C509      1.0  0.02308  0.99799  0.80089  1.0000
  S   S112      1.0  0.17975  0.05067  0.94815  1.0000
  H   H885      1.0  0.16771  0.99577  0.83551  1.0000
  H   H886      1.0  0.17689  0.24128  0.92690  1.0000
  H   H887      1.0  0.16203  0.97500  0.54645  1.0000
  C   C510      1.0  0.18370  0.18311  0.50507  1.0000
  C   C511      1.0  0.14836  0.98359  0.54454  1.0000
  H   H888      1.0  0.17654  0.06029  0.51306  1.0000
  S   S113      1.0  0.17352  0.10100  0.49325  1.0000
  C   C512      1.0  0.99977  0.32646  0.50281  1.0000
  C   C513      1.0  0.18399  0.13312  0.53134  1.0000
  Fe  Fe49      1.0  0.05759  0.46810  0.61376  1.0000
  H   H889      1.0  0.17290  0.25325  0.64866  1.0000
  H   H890      1.0  0.05167  0.02091  0.79448  1.0000
  H   H891      1.0  0.00935  0.04095  0.73116  1.0000
  H   H892      1.0  0.02642  0.98660  0.81253  1.0000
  H   H893      1.0  0.18368  0.17170  0.58019  1.0000
  Fe  Fe50      1.0  0.17950  0.03196  0.92981  1.0000
  C   C514      1.0  0.99350  0.26896  0.55767  1.0000
  H   H894      1.0  0.18486  0.26881  0.63057  1.0000
  C   C515      1.0  0.15807  0.97589  0.89782  1.0000
  H   H895      1.0  0.99367  0.44268  0.67291  1.0000
  H   H896      1.0  0.01799  0.00346  0.84496  1.0000
  Fe  Fe51      1.0  0.98542  0.43304  0.53886  1.0000
  H   H897      1.0  0.99044  0.99888  0.59737  1.0000
  H   H898      1.0  0.99293  0.32898  0.58467  1.0000
  H   H899      1.0  0.99357  0.38731  0.52266  1.0000
  C   C516      1.0  0.00795  0.46760  0.83916  1.0000
  C   C517      1.0  0.98570  0.98809  0.75750  1.0000
  C   C518      1.0  0.01048  0.26629  0.62848  1.0000
  C   C519      1.0  0.98721  0.10924  0.90297  1.0000
  H   H900      1.0  0.99388  0.06033  0.73971  1.0000
  H   H901      1.0  0.16317  0.97864  0.88270  1.0000
  H   H902      1.0  0.12765  0.47016  0.69067  1.0000
  H   H903      1.0  0.17720  0.17102  0.50768  1.0000
  H   H904      1.0  0.03036  0.47136  0.49237  1.0000
  H   H905      1.0  0.98865  0.28238  0.93014  1.0000
  H   H906      1.0  0.06128  0.46927  0.68935  1.0000
  H   H907      1.0  0.99450  0.23493  0.51186  1.0000
  H   H908      1.0  0.17351  0.31932  0.70641  1.0000
  H   H909      1.0  0.06947  0.46861  0.71891  1.0000
  H   H910      1.0  0.13886  0.00871  0.47477  1.0000
  H   H911      1.0  0.00185  0.41328  0.47250  1.0000
  H   H912      1.0  0.10860  0.46424  0.68471  1.0000
  H   H913      1.0  0.98749  0.11122  0.88805  1.0000
  H   H914      1.0  0.98732  0.47082  0.76012  1.0000
  Fe  Fe52      1.0  0.11945  0.09600  0.47009  1.0000
  H   H915      1.0  0.99326  0.00096  0.61934  1.0000
  Fe  Fe53      1.0  0.02522  0.98304  0.90678  1.0000
  H   H916      1.0  0.18276  0.24476  0.68477  1.0000
  C   C520      1.0  0.18338  0.26212  0.72930  1.0000
  H   H917      1.0  0.17568  0.26570  0.91984  1.0000
  C   C521      1.0  0.98727  0.04765  0.92213  1.0000
  H   H918      1.0  0.17571  0.25237  0.76343  1.0000
  H   H919      1.0  0.98758  0.97613  0.75108  1.0000
  S   S114      1.0  0.00249  0.97595  0.89722  1.0000
  H   H920      1.0  0.18499  0.99892  0.53224  1.0000
  H   H921      1.0  0.98563  0.33734  0.60582  1.0000
  Fe  Fe54      1.0  0.05949  0.95044  0.12413  1.0000
  S   S115      1.0  0.03763  0.95102  0.10895  1.0000
  H   H922      1.0  0.17516  0.76176  0.40755  1.0000
  S   S116      1.0  0.09707  0.95744  0.14648  1.0000
  S   S117      1.0  0.02434  0.48604  0.34545  1.0000
  Fe  Fe55      1.0  0.09072  0.93113  0.14423  1.0000
  S   S118      1.0  0.15241  0.51214  0.44196  1.0000
  C   C522      1.0  0.99551  0.85200  0.36781  1.0000
  S   S119      1.0  0.05999  0.93930  0.15408  1.0000
  Fe  Fe56      1.0  0.00726  0.88259  0.07518  1.0000
  S   S120      1.0  0.02080  0.88339  0.04546  1.0000
  S   S121      1.0  0.02315  0.87723  0.09780  1.0000
  H   H923      1.0  0.07368  0.87554  0.12706  1.0000
  C   C523      1.0  0.98903  0.65118  0.14450  1.0000
  H   H924      1.0  0.09793  0.78408  0.40674  1.0000
  C   C524      1.0  0.99726  0.72785  0.27026  1.0000
  H   H925      1.0  0.10503  0.68838  0.02212  1.0000
  C   C525      1.0  0.07595  0.97139  0.19633  1.0000
  S   S122      1.0  0.99839  0.49742  0.39262  1.0000
  C   C526      1.0  0.01354  0.66047  0.19951  1.0000
  H   H926      1.0  0.11235  0.49599  0.40317  1.0000
  Fe  Fe57      1.0  0.07780  0.75633  0.32392  1.0000
  S   S123      1.0  0.09318  0.72715  0.32643  1.0000
  S   S124      1.0  0.07569  0.77629  0.29687  1.0000
  Fe  Fe58      1.0  0.06575  0.75305  0.36540  1.0000
  S   S125      1.0  0.08046  0.72346  0.37122  1.0000
  S   S126      1.0  0.04719  0.76552  0.38910  1.0000
  Fe  Fe59      1.0  0.10357  0.73269  0.34898  1.0000
  S   S127      1.0  0.13432  0.72339  0.34751  1.0000
  Fe  Fe60      1.0  0.06878  0.72038  0.34831  1.0000
  S   S128      1.0  0.05920  0.69420  0.35052  1.0000
  S   S129      1.0  0.08994  0.76262  0.34502  1.0000
  S   S130      1.0  0.05239  0.74921  0.34400  1.0000
  H   H927      1.0  0.03933  0.88025  0.98485  1.0000
  Fe  Fe61      1.0  0.10013  0.77421  0.15897  1.0000
  S   S131      1.0  0.12524  0.75752  0.16968  1.0000
  S   S132      1.0  0.08653  0.76842  0.13866  1.0000
  Fe  Fe62      1.0  0.09785  0.80595  0.17710  1.0000
  S   S133      1.0  0.07808  0.83274  0.18010  1.0000
  Fe  Fe63      1.0  0.11090  0.76699  0.19620  1.0000
  S   S134      1.0  0.11096  0.74655  0.22314  1.0000
  S   S135      1.0  0.08476  0.78118  0.18611  1.0000
  H   H928      1.0  0.04749  0.67632  0.00826  1.0000
  Fe  Fe64      1.0  0.12641  0.59416  0.01808  1.0000
  S   S136      1.0  0.10388  0.59710  0.04336  1.0000
  S   S137      1.0  0.15309  0.57384  0.01969  1.0000
  Fe  Fe65      1.0  0.05113  0.68557  0.13339  1.0000
  S   S138      1.0  0.06280  0.65807  0.12560  1.0000
  S   S139      1.0  0.06200  0.69203  0.15537  1.0000
  Fe  Fe66      1.0  0.02462  0.69664  0.10685  1.0000
  S   S140      1.0  0.03397  0.66996  0.09700  1.0000
  H   H929      1.0  0.08299  0.91984  0.27468  1.0000
  Fe  Fe67      1.0  0.03339  0.65714  0.12688  1.0000
  S   S141      1.0  0.02403  0.63057  0.14114  1.0000
  Fe  Fe68      1.0  0.06248  0.67323  0.09663  1.0000
  S   S142      1.0  0.08696  0.67073  0.07321  1.0000
  S   S143      1.0  0.02157  0.68361  0.13697  1.0000
  S   S144      1.0  0.05323  0.70086  0.10425  1.0000
  C   C527      1.0  0.13887  0.63256  0.38578  1.0000
  Fe  Fe69      1.0  0.03766  0.85847  0.41437  1.0000
  S   S145      1.0  0.02512  0.86832  0.38930  1.0000
  S   S146      1.0  0.05328  0.82988  0.42374  1.0000
  Fe  Fe70      1.0  0.02417  0.89517  0.42651  1.0000
  S   S147      1.0  0.01056  0.90824  0.40231  1.0000
  S   S148      1.0  0.02001  0.91126  0.44871  1.0000
  Fe  Fe71      1.0  0.00062  0.88184  0.40788  1.0000
  H   H930      1.0  0.02864  0.90502  0.00529  1.0000
  Fe  Fe72      1.0  0.03612  0.89383  0.38574  1.0000
  S   S149      1.0  0.05097  0.90560  0.35745  1.0000
  S   S150      1.0  0.01213  0.86984  0.43347  1.0000
  S   S151      1.0  0.05076  0.88291  0.40950  1.0000
  H   H931      1.0  0.00003  0.55409  0.19795  1.0000
  C   C528      1.0  0.01753  0.68224  0.33453  1.0000
  H   H932      1.0  0.13989  0.97169  0.14598  1.0000
  C   C529      1.0  0.08991  0.91035  0.38115  1.0000
  C   C530      1.0  0.10557  0.65258  0.13921  1.0000
  C   C531      1.0  0.01380  0.88957  0.97424  1.0000
  N   N31       1.0  0.04535  0.73254  0.27642  1.0000
  Fe  Fe73      1.0  0.01146  0.51864  0.39684  1.0000
  S   S152      1.0  0.03730  0.51190  0.37614  1.0000
  C   C532      1.0  0.99564  0.72047  0.07715  1.0000
  H   H933      1.0  0.00605  0.54166  0.11973  1.0000
  N   N32       1.0  0.06089  0.95107  0.40503  1.0000
  C   C533      1.0  0.11399  0.68372  0.12487  1.0000
  Fe  Fe74      1.0  0.04783  0.49208  0.39993  1.0000
  H   H934      1.0  0.98699  0.61037  0.29714  1.0000
  Fe  Fe75      1.0  0.02513  0.48911  0.37371  1.0000
  C   C534      1.0  0.11446  0.66209  0.43470  1.0000
  S   S153      1.0  0.02285  0.50050  0.42108  1.0000
  Fe  Fe76      1.0  0.06625  0.96655  0.15373  1.0000
  S   S154      1.0  0.00647  0.60883  0.32702  1.0000
  H   H935      1.0  0.04200  0.66726  0.34492  1.0000
  S   S155      1.0  0.16338  0.69456  0.42204  1.0000
  C   C535      1.0  0.13355  0.96395  0.21566  1.0000
  C   C536      1.0  0.05509  0.83103  0.09851  1.0000
  Fe  Fe77      1.0  0.12982  0.53737  0.44137  1.0000
  S   S156      1.0  0.14395  0.55288  0.41493  1.0000
  S   S157      1.0  0.09923  0.53729  0.44657  1.0000
  C   C537      1.0  0.99603  0.70355  0.07311  1.0000
  C   C538      1.0  0.01543  0.96757  0.24082  1.0000
  H   H936      1.0  0.05730  0.58551  0.08126  1.0000
  H   H937      1.0  0.01591  0.58011  0.15580  1.0000
  S   S158      1.0  0.00042  0.93391  0.02052  1.0000
  H   H938      1.0  0.12086  0.96340  0.22658  1.0000
  Fe  Fe78      1.0  0.99733  0.90687  0.03979  1.0000
  H   H939      1.0  0.12021  0.48121  0.07989  1.0000
  C   C539      1.0  0.06384  0.81831  0.12853  1.0000
  H   H940      1.0  0.04173  0.64115  0.07238  1.0000
  H   H941      1.0  0.17093  0.71367  0.35483  1.0000
  H   H942      1.0  0.10306  0.91545  0.37717  1.0000
  C   C540      1.0  0.10013  0.69075  0.00907  1.0000
  H   H943      1.0  0.09571  0.67073  0.35528  1.0000
  H   H944      1.0  0.02541  0.96895  0.42273  1.0000
  C   C541      1.0  0.13532  0.65596  0.40444  1.0000
  H   H945      1.0  0.10626  0.92499  0.21831  1.0000
  H   H946      1.0  0.13447  0.59641  0.39874  1.0000
  H   H947      1.0  0.07358  0.67035  0.02080  1.0000
  H   H948      1.0  0.12614  0.64966  0.35377  1.0000
  C   C542      1.0  0.10643  0.85172  0.16829  1.0000
  C   C543      1.0  0.03095  0.91822  0.99706  1.0000
  H   H949      1.0  0.99452  0.92564  0.96994  1.0000
  C   C544      1.0  0.08316  0.50307  0.41408  1.0000
  C   C545      1.0  0.10175  0.50367  0.41227  1.0000
  C   C546      1.0  0.10678  0.51414  0.42219  1.0000
  C   C547      1.0  0.09323  0.52395  0.43412  1.0000
  C   C548      1.0  0.07460  0.52334  0.43599  1.0000
  C   C549      1.0  0.06957  0.51303  0.42588  1.0000
  H   H950      1.0  0.14587  0.72634  0.14080  1.0000
  H   H951      1.0  0.12118  0.51454  0.42061  1.0000
  H   H952      1.0  0.06409  0.53089  0.44522  1.0000
  H   H953      1.0  0.05525  0.51261  0.42729  1.0000
  H   H954      1.0  0.04525  0.70041  0.00268  1.0000
  S   S159      1.0  0.00527  0.72185  0.09525  1.0000
  S   S160      1.0  0.99014  0.65756  0.30119  1.0000
  N   N33       1.0  0.14889  0.74695  0.27928  1.0000
  C   C550      1.0  0.12528  0.76800  0.30052  1.0000
  H   H955      1.0  0.99544  0.97004  0.41541  1.0000
  H   H956      1.0  0.10405  0.67771  0.00390  1.0000
  H   H957      1.0  0.07249  0.87868  0.20492  1.0000
  H   H958      1.0  0.07258  0.92236  0.41427  1.0000
  H   H959      1.0  0.98904  0.80362  0.11788  1.0000
  S   S161      1.0  0.11136  0.80006  0.14917  1.0000
  H   H960      1.0  0.12917  0.80235  0.38074  1.0000
  C   C551      1.0  0.01347  0.57417  0.34725  1.0000
  H   H961      1.0  0.07492  0.52458  0.03883  1.0000
  C   C552      1.0  0.18108  0.63260  0.03436  1.0000
  C   C553      1.0  0.04561  0.48502  0.46702  1.0000
  H   H962      1.0  0.11530  0.48165  0.05781  1.0000
  C   C554      1.0  0.15879  0.75815  0.22524  1.0000
  H   H963      1.0  0.00566  0.74823  0.13013  1.0000
  H   H964      1.0  0.16447  0.68411  0.06595  1.0000
  H   H965      1.0  0.05191  0.72509  0.24144  1.0000
  C   C555      1.0  0.08451  0.85512  0.43793  1.0000
  H   H966      1.0  0.01433  0.96394  0.99526  1.0000
  H   H967      1.0  0.01229  0.54370  0.16808  1.0000
  H   H968      1.0  0.15553  0.61254  0.46432  1.0000
  H   H969      1.0  0.05935  0.89743  0.43789  1.0000
  H   H970      1.0  0.04240  0.59199  0.13502  1.0000
  C   C556      1.0  0.07442  0.93348  0.40185  1.0000
  C   C557      1.0  0.12084  0.62536  0.39503  1.0000
  C   C558      1.0  0.04346  0.72972  0.05416  1.0000
  H   H971      1.0  0.01502  0.66864  0.23261  1.0000
  H   H972      1.0  0.09373  0.71202  0.06346  1.0000
  H   H973      1.0  0.00318  0.88265  0.97296  1.0000
  C   C559      1.0  0.04713  0.92964  0.35041  1.0000
  C   C560      1.0  0.05698  0.93762  0.33346  1.0000
  H   H974      1.0  0.03023  0.96678  0.24061  1.0000
  C   C561      1.0  0.18011  0.49320  0.03524  1.0000
  H   H975      1.0  0.14444  0.96658  0.22136  1.0000
  C   C562      1.0  0.03463  0.94094  0.36164  1.0000
  H   H976      1.0  0.06665  0.92892  0.32468  1.0000
  H   H977      1.0  0.98535  0.49068  0.33982  1.0000
  C   C563      1.0  0.00454  0.80722  0.08897  1.0000
  H   H978      1.0  0.02682  0.93489  0.37454  1.0000
  C   C564      1.0  0.00028  0.63438  0.15032  1.0000
  C   C565      1.0  0.04775  0.93412  0.20462  1.0000
  H   H979      1.0  0.09040  0.89896  0.39338  1.0000
  H   H980      1.0  0.00130  0.60784  0.16849  1.0000
  C   C566      1.0  0.09942  0.61762  0.05154  1.0000
  C   C567      1.0  0.11012  0.63104  0.04337  1.0000
  C   C568      1.0  0.10629  0.64727  0.05018  1.0000
  C   C569      1.0  0.09176  0.65014  0.06519  1.0000
  C   C570      1.0  0.08108  0.63673  0.07341  1.0000
  C   C571      1.0  0.08489  0.62052  0.06657  1.0000
  H   H981      1.0  0.12146  0.62887  0.03194  1.0000
  H   H982      1.0  0.11469  0.65753  0.04387  1.0000
  H   H983      1.0  0.06996  0.63880  0.08510  1.0000
  H   H984      1.0  0.07664  0.61016  0.07301  1.0000
  C   C572      1.0  0.07952  0.74729  0.14375  1.0000
  C   C573      1.0  0.07036  0.74364  0.13174  1.0000
  C   C574      1.0  0.06484  0.72675  0.13528  1.0000
  C   C575      1.0  0.06849  0.71343  0.15082  1.0000
  C   C576      1.0  0.07768  0.71708  0.16282  1.0000
  C   C577      1.0  0.08320  0.73400  0.15930  1.0000
  H   H985      1.0  0.06750  0.75391  0.11970  1.0000
  H   H986      1.0  0.05763  0.72411  0.12608  1.0000
  H   H987      1.0  0.08056  0.70679  0.17485  1.0000
  H   H988      1.0  0.09033  0.73674  0.16858  1.0000
  S   S162      1.0  0.98523  0.90753  0.06964  1.0000
  C   C578      1.0  0.99842  0.80582  0.41569  1.0000
  H   H989      1.0  0.10994  0.60056  0.40016  1.0000
  H   H990      1.0  0.10378  0.63976  0.13620  1.0000
  C   C579      1.0  0.99376  0.81470  0.10656  1.0000
  C   C580      1.0  0.11175  0.50276  0.99742  1.0000
  C   C581      1.0  0.12789  0.49353  0.00378  1.0000
  C   C582      1.0  0.14147  0.50326  0.00298  1.0000
  C   C583      1.0  0.13884  0.52228  0.99643  1.0000
  H   H991      1.0  0.99789  0.56122  0.28591  1.0000
  C   C584      1.0  0.05969  0.73546  0.24161  1.0000
  H   H992      1.0  0.15407  0.49608  0.00743  1.0000
  H   H993      1.0  0.10518  0.77627  0.08583  1.0000
  C   C585      1.0  0.04125  0.67431  0.04689  1.0000
  C   C586      1.0  0.01072  0.56025  0.36288  1.0000
  C   C587      1.0  0.99710  0.56391  0.37826  1.0000
  H   H994      1.0  0.02640  0.71019  0.03999  1.0000
  H   H995      1.0  0.11390  0.90175  0.21415  1.0000
  H   H996      1.0  0.01933  0.54680  0.36305  1.0000
  S   S163      1.0  0.09401  0.49102  0.99948  1.0000
  H   H997      1.0  0.04684  0.55971  0.42731  1.0000
  C   C588      1.0  0.05172  0.78334  0.39696  1.0000
  C   C589      1.0  0.05070  0.80126  0.38641  1.0000
  C   C590      1.0  0.05105  0.81584  0.39442  1.0000
  C   C591      1.0  0.05302  0.81234  0.41278  1.0000
  C   C592      1.0  0.05491  0.79432  0.42290  1.0000
  C   C593      1.0  0.05362  0.78004  0.41525  1.0000
  H   H998      1.0  0.04881  0.80401  0.37237  1.0000
  H   H999      1.0  0.04981  0.82972  0.38642  1.0000
  H   H1000     1.0  0.05642  0.79152  0.43707  1.0000
  H   H1001     1.0  0.05377  0.76641  0.42368  1.0000
  C   C594      1.0  0.14240  0.71398  0.36812  1.0000
  C   C595      1.0  0.16137  0.71086  0.36779  1.0000
  C   C596      1.0  0.16803  0.70461  0.38424  1.0000
  C   C597      1.0  0.15572  0.70141  0.40108  1.0000
  C   C598      1.0  0.13682  0.70411  0.40134  1.0000
  C   C599      1.0  0.13016  0.71029  0.38491  1.0000
  H   H1002     1.0  0.17556  0.63243  0.38616  1.0000
  H   H1003     1.0  0.03795  0.58528  0.11592  1.0000
  H   H1004     1.0  0.12728  0.70155  0.41435  1.0000
  H   H1005     1.0  0.11557  0.71234  0.38526  1.0000
  C   C600      1.0  0.08572  0.76813  0.27633  1.0000
  C   C601      1.0  0.08625  0.78041  0.25930  1.0000
  C   C602      1.0  0.09406  0.77401  0.24279  1.0000
  C   C603      1.0  0.10141  0.75530  0.24333  1.0000
  C   C604      1.0  0.10095  0.74309  0.26034  1.0000
  C   C605      1.0  0.09302  0.74947  0.27675  1.0000
  H   H1006     1.0  0.08051  0.79489  0.25884  1.0000
  H   H1007     1.0  0.09430  0.78353  0.22968  1.0000
  H   H1008     1.0  0.10656  0.72859  0.26078  1.0000
  H   H1009     1.0  0.09226  0.73986  0.28969  1.0000
  C   C606      1.0  0.03831  0.69632  0.34359  1.0000
  C   C607      1.0  0.01134  0.71519  0.33208  1.0000
  C   C608      1.0  0.02706  0.71355  0.33918  1.0000
  H   H1010     1.0  0.00287  0.72861  0.32838  1.0000
  H   H1011     1.0  0.03058  0.72565  0.34099  1.0000
  H   H1012     1.0  0.14543  0.77736  0.39825  1.0000
  H   H1013     1.0  0.11016  0.67537  0.33282  1.0000
  C   C609      1.0  0.10845  0.67584  0.34753  1.0000
  H   H1014     1.0  0.02366  0.94999  0.19376  1.0000
  H   H1015     1.0  0.13984  0.93811  0.05364  1.0000
  H   H1016     1.0  0.10680  0.69035  0.34865  1.0000
  C   C610      1.0  0.12347  0.66518  0.37537  1.0000
  S   S164      1.0  0.08958  0.93984  0.11430  1.0000
  H   H1017     1.0  0.10894  0.63384  0.38900  1.0000
  H   H1018     1.0  0.15223  0.96610  0.08779  1.0000
  H   H1019     1.0  0.02073  0.73560  0.25036  1.0000
  C   C611      1.0  0.02906  0.72428  0.27707  1.0000
  C   C612      1.0  0.08558  0.73499  0.41519  1.0000
  H   H1020     1.0  0.00619  0.59428  0.28695  1.0000
  S   S165      1.0  0.15554  0.53398  0.99752  1.0000
  H   H1021     1.0  0.12335  0.67973  0.37540  1.0000
  H   H1022     1.0  0.04194  0.83929  0.10476  1.0000
  H   H1023     1.0  0.14589  0.68405  0.30398  1.0000
  Fe  Fe79      1.0  0.16482  0.52612  0.45711  1.0000
  H   H1024     1.0  0.09696  0.84451  0.44055  1.0000
  H   H1025     1.0  0.10714  0.70115  0.99873  1.0000
  S   S166      1.0  0.98952  0.86297  0.07610  1.0000
  H   H1026     1.0  0.98816  0.89494  0.12064  1.0000
  H   H1027     1.0  0.09741  0.52872  0.98417  1.0000
  C   C613      1.0  0.00700  0.78870  0.06624  1.0000
  H   H1028     1.0  0.99210  0.96501  0.09010  1.0000
  H   H1029     1.0  0.09577  0.96120  0.44357  1.0000
  H   H1030     1.0  0.00792  0.83612  0.39041  1.0000
  C   C614      1.0  0.01975  0.69183  0.01662  1.0000
  C   C615      1.0  0.10147  0.88510  0.15983  1.0000
  C   C616      1.0  0.08738  0.85265  0.17164  1.0000
  C   C617      1.0  0.07542  0.86978  0.16885  1.0000
  C   C618      1.0  0.08246  0.88599  0.16277  1.0000
  H   H1031     1.0  0.06068  0.87050  0.17136  1.0000
  H   H1032     1.0  0.07316  0.89912  0.16058  1.0000
  C   C619      1.0  0.03490  0.93010  0.10558  1.0000
  C   C620      1.0  0.02663  0.93038  0.09112  1.0000
  C   C621      1.0  0.02339  0.91411  0.08850  1.0000
  C   C622      1.0  0.02804  0.89751  0.10056  1.0000
  C   C623      1.0  0.03637  0.89717  0.11505  1.0000
  C   C624      1.0  0.03998  0.91344  0.11746  1.0000
  H   H1033     1.0  0.02293  0.94318  0.08174  1.0000
  H   H1034     1.0  0.01744  0.91446  0.07701  1.0000
  H   H1035     1.0  0.03981  0.88440  0.12455  1.0000
  H   H1036     1.0  0.04629  0.91317  0.12872  1.0000
  H   H1037     1.0  0.01032  0.83534  0.10270  1.0000
  C   C625      1.0  0.01644  0.58286  0.14078  1.0000
  H   H1038     1.0  0.02627  0.67889  0.05238  1.0000
  Fe  Fe80      1.0  0.13541  0.60397  0.97647  1.0000
  H   H1039     1.0  0.16157  0.73482  0.31308  1.0000
  H   H1040     1.0  0.99935  0.69915  0.24005  1.0000
  H   H1041     1.0  0.04502  0.56796  0.13519  1.0000
  N   N34       1.0  0.11838  0.69859  0.10826  1.0000
  H   H1042     1.0  0.05833  0.52120  0.00530  1.0000
  H   H1043     1.0  0.07990  0.59677  0.98535  1.0000
  Fe  Fe81      1.0  0.09354  0.96681  0.11719  1.0000
  H   H1044     1.0  0.00140  0.77835  0.06255  1.0000
  H   H1045     1.0  0.99798  0.69068  0.17604  1.0000
  C   C626      1.0  0.02069  0.55229  0.43168  1.0000
  H   H1046     1.0  0.01512  0.79556  0.38442  1.0000
  H   H1047     1.0  0.00828  0.55615  0.42544  1.0000
  N   N35       1.0  0.98826  0.56767  0.14514  1.0000
  C   C627      1.0  0.98807  0.70296  0.05864  1.0000
  H   H1048     1.0  0.03986  0.94011  0.29925  1.0000
  H   H1049     1.0  0.01914  0.48119  0.12211  1.0000
  H   H1050     1.0  0.98823  0.57446  0.17098  1.0000
  H   H1051     1.0  0.14370  0.70393  0.08904  1.0000
  C   C628      1.0  0.06225  0.95470  0.42309  1.0000
  H   H1052     1.0  0.99027  0.78096  0.43538  1.0000
  C   C629      1.0  0.98777  0.56253  0.29905  1.0000
  C   C630      1.0  0.15888  0.76053  0.24442  1.0000
  H   H1053     1.0  0.00773  0.85839  0.36116  1.0000
  H   H1054     1.0  0.05877  0.85656  0.11395  1.0000
  H   H1055     1.0  0.11897  0.64783  0.44212  1.0000
  H   H1056     1.0  0.10901  0.79469  0.29034  1.0000
  C   C631      1.0  0.04176  0.94781  0.40679  1.0000
  C   C632      1.0  0.17884  0.57917  0.05796  1.0000
  H   H1057     1.0  0.07391  0.95478  0.45468  1.0000
  H   H1058     1.0  0.17723  0.73255  0.27871  1.0000
  N   N36       1.0  0.07496  0.55375  0.03181  1.0000
  C   C633      1.0  0.06989  0.57056  0.01735  1.0000
  C   C634      1.0  0.06327  0.55681  0.05026  1.0000
  C   C635      1.0  0.09527  0.55106  0.03168  1.0000
  C   C636      1.0  0.07146  0.53674  0.02790  1.0000
  C   C637      1.0  0.07686  0.56835  0.99700  1.0000
  C   C638      1.0  0.10301  0.53491  0.04629  1.0000
  C   C639      1.0  0.07221  0.90574  0.45571  1.0000
  C   C640      1.0  0.12264  0.53565  0.04703  1.0000
  H   H1059     1.0  0.07539  0.58221  0.01873  1.0000
  H   H1060     1.0  0.00205  0.69094  0.08137  1.0000
  H   H1061     1.0  0.06429  0.54379  0.06074  1.0000
  H   H1062     1.0  0.09861  0.56391  0.03307  1.0000
  H   H1063     1.0  0.10369  0.54848  0.01816  1.0000
  H   H1064     1.0  0.08086  0.53329  0.01509  1.0000
  H   H1065     1.0  0.98972  0.72961  0.28434  1.0000
  H   H1066     1.0  0.09196  0.56331  0.99392  1.0000
  H   H1067     1.0  0.03942  0.47840  0.45935  1.0000
  H   H1068     1.0  0.10360  0.52156  0.04274  1.0000
  H   H1069     1.0  0.09449  0.53517  0.06028  1.0000
  H   H1070     1.0  0.12869  0.79581  0.29894  1.0000
  C   C641      1.0  0.99738  0.54477  0.17420  1.0000
  H   H1071     1.0  0.13194  0.53486  0.03344  1.0000
  H   H1072     1.0  0.12281  0.54861  0.05094  1.0000
  H   H1073     1.0  0.12798  0.52385  0.05738  1.0000
  H   H1074     1.0  0.01361  0.50170  0.45988  1.0000
  C   C642      1.0  0.11969  0.71493  0.11524  1.0000
  C   C643      1.0  0.04450  0.65456  0.04338  1.0000
  H   H1075     1.0  0.01865  0.93562  0.29667  1.0000
  H   H1076     1.0  0.17910  0.97342  0.03926  1.0000
  N   N37       1.0  0.04827  0.68842  0.03074  1.0000
  H   H1077     1.0  0.12304  0.73754  0.13699  1.0000
  S   S167      1.0  0.15753  0.59364  0.42666  1.0000
  H   H1078     1.0  0.09759  0.86763  0.12872  1.0000
  C   C644      1.0  0.03669  0.58186  0.13110  1.0000
  H   H1079     1.0  0.03948  0.58005  0.07319  1.0000
  C   C645      1.0  0.16725  0.96117  0.08732  1.0000
  H   H1080     1.0  0.11618  0.64893  0.14783  1.0000
  H   H1081     1.0  0.16434  0.62813  0.42777  1.0000
  H   H1082     1.0  0.12545  0.73372  0.28824  1.0000
  H   H1083     1.0  0.05417  0.56210  0.08651  1.0000
  H   H1084     1.0  0.08150  0.56744  0.06149  1.0000
  H   H1085     1.0  0.02059  0.64679  0.06374  1.0000
  H   H1086     1.0  0.00759  0.89912  0.98388  1.0000
  C   C646      1.0  0.03614  0.78112  0.04271  1.0000
  H   H1087     1.0  0.06221  0.96293  0.31484  1.0000
  C   C647      1.0  0.08200  0.95430  0.42534  1.0000
  H   H1088     1.0  0.02937  0.77257  0.03774  1.0000
  Fe  Fe82      1.0  0.00100  0.86590  0.04588  1.0000
  C   C648      1.0  0.99653  0.53704  0.13276  1.0000
  H   H1089     1.0  0.00524  0.94701  0.42573  1.0000
  H   H1090     1.0  0.09988  0.84049  0.11657  1.0000
  H   H1091     1.0  0.12816  0.70344  0.14188  1.0000
  C   C649      1.0  0.04893  0.70966  0.05206  1.0000
  H   H1092     1.0  0.10967  0.67664  0.40796  1.0000
  H   H1093     1.0  0.07020  0.55850  0.99387  1.0000
  C   C650      1.0  0.02284  0.95140  0.99136  1.0000
  C   C651      1.0  0.99328  0.81833  0.02309  1.0000
  C   C652      1.0  0.98590  0.58150  0.37772  1.0000
  C   C653      1.0  0.04172  0.70709  0.03584  1.0000
  C   C654      1.0  0.13641  0.72931  0.13106  1.0000
  H   H1094     1.0  0.11267  0.78397  0.10257  1.0000
  H   H1095     1.0  0.07478  0.67986  0.03901  1.0000
  H   H1096     1.0  0.10588  0.65350  0.41412  1.0000
  C   C655      1.0  0.05932  0.84083  0.07799  1.0000
  H   H1097     1.0  0.99485  0.66166  0.13395  1.0000
  C   C656      1.0  0.05131  0.53741  0.02667  1.0000
  H   H1098     1.0  0.05119  0.77526  0.04076  1.0000
  H   H1099     1.0  0.08162  0.93878  0.25534  1.0000
  C   C657      1.0  0.06537  0.96629  0.38872  1.0000
  H   H1100     1.0  0.16167  0.75585  0.43056  1.0000
  H   H1101     1.0  0.16182  0.75088  0.35023  1.0000
  C   C658      1.0  0.03928  0.91315  0.45624  1.0000
  H   H1102     1.0  0.07338  0.83535  0.07081  1.0000
  C   C659      1.0  0.16444  0.92863  0.10032  1.0000
  H   H1103     1.0  0.03861  0.62775  0.05761  1.0000
  C   C660      1.0  0.15491  0.96777  0.14606  1.0000
  H   H1104     1.0  0.01746  0.55532  0.13865  1.0000
  H   H1105     1.0  0.03131  0.84507  0.07358  1.0000
  H   H1106     1.0  0.98939  0.63121  0.19893  1.0000
  H   H1107     1.0  0.15053  0.77435  0.24591  1.0000
  C   C661      1.0  0.00230  0.59171  0.34670  1.0000
  H   H1108     1.0  0.99383  0.60733  0.22724  1.0000
  C   C662      1.0  0.13663  0.69220  0.09602  1.0000
  H   H1109     1.0  0.02486  0.54587  0.30077  1.0000
  H   H1110     1.0  0.05548  0.50780  0.02851  1.0000
  H   H1111     1.0  0.00348  0.52948  0.20067  1.0000
  C   C663      1.0  0.02945  0.93541  0.19920  1.0000
  C   C664      1.0  0.98838  0.59537  0.36189  1.0000
  H   H1112     1.0  0.09513  0.82694  0.08842  1.0000
  C   C665      1.0  0.07232  0.84764  0.10954  1.0000
  C   C666      1.0  0.98576  0.56313  0.16583  1.0000
  H   H1113     1.0  0.07840  0.79204  0.10557  1.0000
  H   H1114     1.0  0.02222  0.65393  0.20999  1.0000
  H   H1115     1.0  0.11538  0.79644  0.07890  1.0000
  C   C667      1.0  0.15969  0.95017  0.12067  1.0000
  H   H1116     1.0  0.99044  0.81688  0.42320  1.0000
  H   H1117     1.0  0.10091  0.66813  0.11277  1.0000
  H   H1118     1.0  0.09770  0.81385  0.11043  1.0000
  H   H1119     1.0  0.13115  0.76996  0.41954  1.0000
  N   N38       1.0  0.07447  0.91049  0.21819  1.0000
  C   C668      1.0  0.08000  0.89006  0.22524  1.0000
  C   C669      1.0  0.06955  0.92073  0.23387  1.0000
  C   C670      1.0  0.05742  0.91369  0.21024  1.0000
  C   C671      1.0  0.08934  0.91774  0.20304  1.0000
  C   C672      1.0  0.08462  0.87758  0.21090  1.0000
  H   H1120     1.0  0.98526  0.86147  0.37604  1.0000
  C   C673      1.0  0.08001  0.91266  0.25002  1.0000
  C   C674      1.0  0.07612  0.92623  0.26278  1.0000
  C   C675      1.0  0.09028  0.85737  0.21979  1.0000
  H   H1121     1.0  0.04888  0.84587  0.05292  1.0000
  H   H1122     1.0  0.06874  0.88525  0.23649  1.0000
  H   H1123     1.0  0.09232  0.88683  0.23153  1.0000
  H   H1124     1.0  0.07110  0.93530  0.22847  1.0000
  H   H1125     1.0  0.05470  0.92143  0.24065  1.0000
  H   H1126     1.0  0.04695  0.90631  0.22021  1.0000
  H   H1127     1.0  0.06078  0.90792  0.19755  1.0000
  H   H1128     1.0  0.09186  0.91127  0.19094  1.0000
  H   H1129     1.0  0.08465  0.93253  0.19768  1.0000
  H   H1130     1.0  0.09220  0.65899  0.14707  1.0000
  H   H1131     1.0  0.09629  0.88117  0.19965  1.0000
  H   H1132     1.0  0.14899  0.90826  0.08505  1.0000
  H   H1133     1.0  0.12135  0.54598  0.98355  1.0000
  H   H1134     1.0  0.07531  0.89993  0.25837  1.0000
  H   H1135     1.0  0.09515  0.90910  0.24524  1.0000
  H   H1136     1.0  0.06104  0.93020  0.26810  1.0000
  H   H1137     1.0  0.00063  0.71299  0.26984  1.0000
  H   H1138     1.0  0.05377  0.90678  0.97724  1.0000
  C   C676      1.0  0.08147  0.96238  0.44184  1.0000
  H   H1139     1.0  0.98548  0.62975  0.26601  1.0000
  H   H1140     1.0  0.10288  0.85513  0.22546  1.0000
  H   H1141     1.0  0.13311  0.76207  0.31166  1.0000
  C   C677      1.0  0.13917  0.73203  0.29163  1.0000
  H   H1142     1.0  0.14528  0.49109  0.04304  1.0000
  C   C678      1.0  0.04123  0.74321  0.29159  1.0000
  C   C679      1.0  0.06172  0.71709  0.27947  1.0000
  H   H1143     1.0  0.07436  0.72268  0.27728  1.0000
  C   C680      1.0  0.05989  0.70415  0.29866  1.0000
  C   C681      1.0  0.02489  0.75986  0.29115  1.0000
  C   C682      1.0  0.02294  0.76990  0.30666  1.0000
  C   C683      1.0  0.07535  0.68708  0.29898  1.0000
  H   H1144     1.0  0.03771  0.73427  0.30522  1.0000
  H   H1145     1.0  0.05376  0.74808  0.29181  1.0000
  H   H1146     1.0  0.02146  0.72087  0.29156  1.0000
  H   H1147     1.0  0.01067  0.75029  0.26657  1.0000
  H   H1148     1.0  0.04647  0.69960  0.30272  1.0000
  H   H1149     1.0  0.06103  0.71132  0.30913  1.0000
  H   H1150     1.0  0.02677  0.76995  0.27798  1.0000
  H   H1151     1.0  0.01175  0.75513  0.29338  1.0000
  H   H1152     1.0  0.01100  0.78165  0.30622  1.0000
  H   H1153     1.0  0.02053  0.76050  0.32028  1.0000
  H   H1154     1.0  0.03556  0.77533  0.30509  1.0000
  C   C684      1.0  0.04106  0.68898  0.01394  1.0000
  H   H1155     1.0  0.08906  0.69106  0.29524  1.0000
  H   H1156     1.0  0.07385  0.67845  0.31308  1.0000
  H   H1157     1.0  0.07458  0.67879  0.28930  1.0000
  C   C685      1.0  0.10245  0.70460  0.09832  1.0000
  C   C686      1.0  0.14939  0.71194  0.29098  1.0000
  C   C687      1.0  0.06908  0.68324  0.02630  1.0000
  H   H1158     1.0  0.10124  0.68915  0.13438  1.0000
  H   H1159     1.0  0.17826  0.58325  0.37586  1.0000
  H   H1160     1.0  0.08120  0.84174  0.13620  1.0000
  H   H1161     1.0  0.01337  0.95352  0.24170  1.0000
  C   C688      1.0  0.08804  0.81813  0.10068  1.0000
  S   S168      1.0  0.13992  0.61630  0.99830  1.0000
  C   C689      1.0  0.10318  0.72219  0.08298  1.0000
  H   H1162     1.0  0.08846  0.90490  0.36955  1.0000
  C   C690      1.0  0.04558  0.83875  0.06752  1.0000
  C   C691      1.0  0.13713  0.76572  0.28123  1.0000
  H   H1163     1.0  0.18263  0.70268  0.38391  1.0000
  C   C692      1.0  0.15290  0.48128  0.05339  1.0000
  H   H1164     1.0  0.04701  0.73096  0.06692  1.0000
  H   H1165     1.0  0.02141  0.86762  0.99676  1.0000
  C   C693      1.0  0.15253  0.74839  0.40910  1.0000
  H   H1166     1.0  0.02324  0.96774  0.31114  1.0000
  H   H1167     1.0  0.08602  0.89916  0.45000  1.0000
  H   H1168     1.0  0.06417  0.70564  0.05015  1.0000
  C   C694      1.0  0.99884  0.56122  0.31396  1.0000
  H   H1169     1.0  0.01480  0.94779  0.32501  1.0000
  H   H1170     1.0  0.05180  0.81746  0.09932  1.0000
  C   C695      1.0  0.99312  0.60402  0.28492  1.0000
  C   C696      1.0  0.16765  0.75135  0.41723  1.0000
  S   S169      1.0  0.12301  0.79239  0.18937  1.0000
  H   H1171     1.0  0.01397  0.67013  0.33264  1.0000
  H   H1172     1.0  0.16646  0.61908  0.02268  1.0000
  C   C697      1.0  0.02542  0.96395  0.41035  1.0000
  H   H1173     1.0  0.17654  0.83067  0.16982  1.0000
  H   H1174     1.0  0.08055  0.85312  0.42568  1.0000
  H   H1175     1.0  0.14260  0.73757  0.11787  1.0000
  C   C698      1.0  0.99811  0.61950  0.26879  1.0000
  H   H1176     1.0  0.05658  0.94139  0.19263  1.0000
  H   H1177     1.0  0.17385  0.92273  0.08863  1.0000
  C   C699      1.0  0.08226  0.96996  0.21245  1.0000
  H   H1178     1.0  0.05092  0.73847  0.04221  1.0000
  H   H1179     1.0  0.07365  0.73382  0.41001  1.0000
  H   H1180     1.0  0.00919  0.57218  0.12054  1.0000
  C   C700      1.0  0.06035  0.74937  0.22340  1.0000
  H   H1181     1.0  0.12190  0.73741  0.40966  1.0000
  C   C701      1.0  0.07348  0.92589  0.38518  1.0000
  C   C702      1.0  0.00694  0.95813  0.41333  1.0000
  H   H1182     1.0  0.12519  0.67942  0.13285  1.0000
  H   H1183     1.0  0.08983  0.81927  0.39856  1.0000
  H   H1184     1.0  0.01295  0.70552  0.01991  1.0000
  H   H1185     1.0  0.14632  0.73723  0.41903  1.0000
  C   C703      1.0  0.04252  0.81628  0.15992  1.0000
  H   H1186     1.0  0.05442  0.81314  0.16686  1.0000
  H   H1187     1.0  0.03034  0.82366  0.16850  1.0000
  H   H1188     1.0  0.03945  0.80318  0.15893  1.0000
  N   N39       1.0  0.13820  0.65255  0.38518  1.0000
  C   C704      1.0  0.15659  0.65709  0.37446  1.0000
  C   C705      1.0  0.12523  0.66394  0.35507  1.0000
  H   H1189     1.0  0.04576  0.55001  0.01732  1.0000
  H   H1190     1.0  0.16685  0.84093  0.14936  1.0000
  H   H1191     1.0  0.03179  0.48692  0.09886  1.0000
  H   H1192     1.0  0.14263  0.66685  0.40440  1.0000
  H   H1193     1.0  0.15587  0.67222  0.37180  1.0000
  H   H1194     1.0  0.16000  0.65329  0.36073  1.0000
  H   H1195     1.0  0.14359  0.62943  0.37174  1.0000
  H   H1196     1.0  0.14942  0.62359  0.39357  1.0000
  H   H1197     1.0  0.13758  0.66904  0.34620  1.0000
  H   H1198     1.0  0.10102  0.69347  0.09224  1.0000
  H   H1199     1.0  0.03151  0.92748  0.18829  1.0000
  H   H1200     1.0  0.07891  0.85281  0.23095  1.0000
  H   H1201     1.0  0.01215  0.80953  0.40940  1.0000
  H   H1202     1.0  0.06793  0.76003  0.22330  1.0000
  C   C706      1.0  0.99979  0.67137  0.23729  1.0000
  H   H1203     1.0  0.04817  0.67298  0.05844  1.0000
  Fe  Fe83      1.0  0.15702  0.56335  0.43230  1.0000
  H   H1204     1.0  0.12509  0.60508  0.37802  1.0000
  H   H1205     1.0  0.03661  0.47803  0.98233  1.0000
  C   C707      1.0  0.01974  0.64811  0.18503  1.0000
  C   C708      1.0  0.09018  0.72417  0.07004  1.0000
  H   H1206     1.0  0.99250  0.53308  0.17216  1.0000
  C   C709      1.0  0.03579  0.64184  0.06035  1.0000
  H   H1207     1.0  0.05818  0.85576  0.07698  1.0000
  C   C710      1.0  0.04024  0.64702  0.17638  1.0000
  S   S170      1.0  0.11998  0.58327  0.99627  1.0000
  C   C711      1.0  0.11262  0.75109  0.40808  1.0000
  C   C712      1.0  0.06854  0.85329  0.45453  1.0000
  H   H1208     1.0  0.16540  0.91736  0.11265  1.0000
  H   H1209     1.0  0.04278  0.70125  0.06514  1.0000
  H   H1210     1.0  0.13011  0.69318  0.06929  1.0000
  C   C713      1.0  0.12303  0.53144  0.98943  1.0000
  H   H1211     1.0  0.02290  0.96878  0.36516  1.0000
  N   N40       1.0  0.17297  0.47573  0.04454  1.0000
  C   C714      1.0  0.08579  0.84804  0.12156  1.0000
  H   H1212     1.0  0.01200  0.65349  0.17370  1.0000
  H   H1213     1.0  0.01796  0.63388  0.19158  1.0000
  C   C715      1.0  0.13775  0.76632  0.40584  1.0000
  H   H1214     1.0  0.08104  0.80416  0.08221  1.0000
  H   H1215     1.0  0.05950  0.64864  0.04018  1.0000
  H   H1216     1.0  0.16067  0.73200  0.25698  1.0000
  C   C716      1.0  0.14433  0.93225  0.09735  1.0000
  C   C717      1.0  0.04514  0.91923  0.98119  1.0000
  H   H1217     1.0  0.12034  0.80209  0.40480  1.0000
  C   C718      1.0  0.10630  0.78863  0.09020  1.0000
  H   H1218     1.0  0.08918  0.70732  0.10831  1.0000
  H   H1219     1.0  0.04453  0.63772  0.16639  1.0000
  H   H1220     1.0  0.04287  0.66081  0.16889  1.0000
  H   H1221     1.0  0.04883  0.64157  0.18704  1.0000
  H   H1222     1.0  0.09151  0.87493  0.10640  1.0000
  C   C719      1.0  0.11740  0.78828  0.30110  1.0000
  C   C720      1.0  0.05371  0.57497  0.07587  1.0000
  C   C721      1.0  0.04684  0.82833  0.14081  1.0000
  C   C722      1.0  0.10214  0.81882  0.38718  1.0000
  H   H1223     1.0  0.04219  0.53702  0.04051  1.0000
  C   C723      1.0  0.13115  0.76049  0.37763  1.0000
  C   C724      1.0  0.14388  0.77272  0.36375  1.0000
  C   C725      1.0  0.15288  0.76455  0.34659  1.0000
  H   H1224     1.0  0.13889  0.74605  0.37938  1.0000
  H   H1225     1.0  0.12004  0.76073  0.37050  1.0000
  H   H1226     1.0  0.15517  0.77411  0.36969  1.0000
  H   H1227     1.0  0.13565  0.78649  0.35913  1.0000
  H   H1228     1.0  0.10113  0.74321  0.38816  1.0000
  H   H1229     1.0  0.00425  0.80156  0.05587  1.0000
  H   H1230     1.0  0.98938  0.85021  0.35683  1.0000
  H   H1231     1.0  0.99700  0.82989  0.12559  1.0000
  H   H1232     1.0  0.01754  0.81389  0.11792  1.0000
  H   H1233     1.0  0.04933  0.84130  0.14276  1.0000
  C   C726      1.0  0.00663  0.69958  0.32959  1.0000
  H   H1234     1.0  0.08789  0.86899  0.43481  1.0000
  H   H1235     1.0  0.01877  0.79928  0.44221  1.0000
  C   C727      1.0  0.11671  0.80160  0.39178  1.0000
  H   H1236     1.0  0.13612  0.73320  0.30627  1.0000
  H   H1237     1.0  0.17231  0.94681  0.06429  1.0000
  C   C728      1.0  0.99484  0.68641  0.24857  1.0000
  H   H1238     1.0  0.09784  0.81910  0.37427  1.0000
  H   H1239     1.0  0.98727  0.77434  0.11084  1.0000
  C   C729      1.0  0.98769  0.52273  0.12933  1.0000
  C   C730      1.0  0.17357  0.64761  0.38352  1.0000
  H   H1240     1.0  0.10831  0.78958  0.31470  1.0000
  H   H1241     1.0  0.05651  0.86405  0.45109  1.0000
  H   H1242     1.0  0.99070  0.80300  0.36386  1.0000
  H   H1243     1.0  0.14258  0.94219  0.08433  1.0000
  C   C731      1.0  0.10957  0.52165  0.98975  1.0000
  H   H1244     1.0  0.13943  0.90453  0.10960  1.0000
  H   H1245     1.0  0.16821  0.77212  0.18204  1.0000
  C   C732      1.0  0.13926  0.91453  0.09630  1.0000
  H   H1246     1.0  0.04627  0.82405  0.06783  1.0000
  H   H1247     1.0  0.01657  0.55613  0.44539  1.0000
  H   H1248     1.0  0.99888  0.69374  0.00119  1.0000
  C   C733      1.0  0.99255  0.62073  0.16375  1.0000
  C   C734      1.0  0.00231  0.78775  0.43007  1.0000
  H   H1249     1.0  0.05660  0.94430  0.43477  1.0000
  H   H1250     1.0  0.12659  0.97021  0.05661  1.0000
  H   H1251     1.0  0.02720  0.95587  0.28281  1.0000
  H   H1252     1.0  0.03930  0.93558  0.41786  1.0000
  C   C735      1.0  0.17960  0.50638  0.04786  1.0000
  C   C736      1.0  0.00743  0.79147  0.44667  1.0000
  H   H1253     1.0  0.13839  0.95039  0.21153  1.0000
  H   H1254     1.0  0.14721  0.70346  0.12229  1.0000
  N   N41       1.0  0.05756  0.56592  0.38742  1.0000
  C   C737      1.0  0.05074  0.58647  0.38366  1.0000
  C   C738      1.0  0.07454  0.56161  0.39561  1.0000
  C   C739      1.0  0.06180  0.55928  0.36956  1.0000
  C   C740      1.0  0.04312  0.55622  0.40083  1.0000
  N   N42       1.0  0.98866  0.80508  0.40108  1.0000
  C   C741      1.0  0.03209  0.59330  0.37712  1.0000
  C   C742      1.0  0.07283  0.53926  0.36985  1.0000
  C   C743      1.0  0.09137  0.56945  0.38311  1.0000
  C   C744      1.0  0.10843  0.56182  0.39170  1.0000
  H   H1255     1.0  0.04840  0.56089  0.04940  1.0000
  C   C745      1.0  0.02658  0.61426  0.37357  1.0000
  C   C746      1.0  0.07558  0.53390  0.35128  1.0000
  H   H1256     1.0  0.06098  0.59325  0.37273  1.0000
  H   H1257     1.0  0.04964  0.59219  0.39598  1.0000
  H   H1258     1.0  0.07149  0.56718  0.40836  1.0000
  H   H1259     1.0  0.07894  0.54650  0.40015  1.0000
  H   H1260     1.0  0.06944  0.56849  0.35819  1.0000
  H   H1261     1.0  0.04875  0.56005  0.36515  1.0000
  H   H1262     1.0  0.03114  0.55739  0.39449  1.0000
  H   H1263     1.0  0.04867  0.54123  0.40410  1.0000
  H   H1264     1.0  0.02950  0.57742  0.41758  1.0000
  H   H1265     1.0  0.00685  0.81299  0.01570  1.0000
  H   H1266     1.0  0.03320  0.58905  0.36404  1.0000
  H   H1267     1.0  0.02072  0.58781  0.38751  1.0000
  H   H1268     1.0  0.06553  0.52938  0.38053  1.0000
  H   H1269     1.0  0.08677  0.53750  0.37275  1.0000
  H   H1270     1.0  0.09489  0.56597  0.36929  1.0000
  H   H1271     1.0  0.08850  0.58464  0.38137  1.0000
  H   H1272     1.0  0.12016  0.56812  0.38299  1.0000
  H   H1273     1.0  0.10564  0.56492  0.40568  1.0000
  H   H1274     1.0  0.11255  0.54669  0.39277  1.0000
  C   C747      1.0  0.08709  0.80053  0.09470  1.0000
  H   H1275     1.0  0.17337  0.76027  0.24484  1.0000
  C   C748      1.0  0.15542  0.67384  0.07164  1.0000
  H   H1276     1.0  0.01328  0.61868  0.36875  1.0000
  H   H1277     1.0  0.02475  0.61936  0.38639  1.0000
  H   H1278     1.0  0.03718  0.62055  0.36272  1.0000
  H   H1279     1.0  0.06208  0.53544  0.34747  1.0000
  H   H1280     1.0  0.08413  0.54259  0.34036  1.0000
  H   H1281     1.0  0.08279  0.51929  0.35217  1.0000
  C   C749      1.0  0.98836  0.64585  0.22088  1.0000
  C   C750      1.0  0.03566  0.56253  0.41954  1.0000
  C   C751      1.0  0.05453  0.95682  0.32791  1.0000
  C   C752      1.0  0.03242  0.96010  0.35630  1.0000
  H   H1282     1.0  0.07717  0.58453  0.96932  1.0000
  H   H1283     1.0  0.07508  0.70055  0.99867  1.0000
  H   H1284     1.0  0.03554  0.52123  0.01940  1.0000
  H   H1285     1.0  0.05847  0.96627  0.37750  1.0000
  H   H1286     1.0  0.12354  0.67089  0.43583  1.0000
  H   H1287     1.0  0.03831  0.65436  0.03182  1.0000
  H   H1288     1.0  0.11056  0.95971  0.05091  1.0000
  C   C753      1.0  0.13605  0.68286  0.08037  1.0000
  C   C754      1.0  0.01518  0.95750  0.31152  1.0000
  H   H1289     1.0  0.01407  0.68118  0.02780  1.0000
  H   H1290     1.0  0.99446  0.69028  0.21248  1.0000
  H   H1291     1.0  0.17436  0.75668  0.27413  1.0000
  C   C755      1.0  0.00140  0.83348  0.38016  1.0000
  H   H1292     1.0  0.01190  0.82479  0.37136  1.0000
  H   H1293     1.0  0.01935  0.93005  0.21134  1.0000
  H   H1294     1.0  0.14162  0.64346  0.41345  1.0000
  H   H1295     1.0  0.14587  0.77634  0.27651  1.0000
  H   H1296     1.0  0.10008  0.66740  0.44142  1.0000
  H   H1297     1.0  0.01978  0.67719  0.99559  1.0000
  H   H1298     1.0  0.09452  0.96000  0.21524  1.0000
  H   H1299     1.0  0.98936  0.96694  0.22233  1.0000
  H   H1300     1.0  0.02213  0.54354  0.32525  1.0000
  H   H1301     1.0  0.08351  0.96289  0.18650  1.0000
  H   H1302     1.0  0.11349  0.76090  0.30366  1.0000
  H   H1303     1.0  0.00959  0.53164  0.31670  1.0000
  H   H1304     1.0  0.04466  0.94180  0.21587  1.0000
  H   H1305     1.0  0.09137  0.73664  0.05906  1.0000
  C   C756      1.0  0.18157  0.76934  0.17309  1.0000
  H   H1306     1.0  0.13766  0.74440  0.25693  1.0000
  C   C757      1.0  0.05715  0.90478  0.44881  1.0000
  Fe  Fe84      1.0  0.16735  0.52851  0.41658  1.0000
  H   H1307     1.0  0.98802  0.73520  0.26048  1.0000
  S   S171      1.0  0.16367  0.78561  0.14424  1.0000
  H   H1308     1.0  0.99564  0.95322  0.11276  1.0000
  H   H1309     1.0  0.98866  0.95531  0.30897  1.0000
  H   H1310     1.0  0.00187  0.68166  0.26047  1.0000
  H   H1311     1.0  0.07334  0.93681  0.37254  1.0000
  H   H1312     1.0  0.02439  0.57138  0.33560  1.0000
  C   C758      1.0  0.17335  0.82788  0.15754  1.0000
  H   H1313     1.0  0.02917  0.74911  0.12941  1.0000
  H   H1314     1.0  0.01939  0.70158  0.98743  1.0000
  H   H1315     1.0  0.14628  0.68258  0.10455  1.0000
  H   H1316     1.0  0.02179  0.78376  0.35573  1.0000
  C   C759      1.0  0.99972  0.77449  0.09951  1.0000
  C   C760      1.0  0.15115  0.74506  0.25959  1.0000
  N   N43       1.0  0.17067  0.94492  0.10274  1.0000
  C   C761      1.0  0.01645  0.77025  0.10909  1.0000
  H   H1317     1.0  0.01792  0.67381  0.19297  1.0000
  C   C762      1.0  0.99533  0.96675  0.30847  1.0000
  C   C763      1.0  0.02813  0.78145  0.06306  1.0000
  C   C764      1.0  0.02579  0.94662  0.29659  1.0000
  C   C765      1.0  0.01888  0.75084  0.12082  1.0000
  H   H1318     1.0  0.17774  0.73820  0.41976  1.0000
  H   H1319     1.0  0.07770  0.85477  0.09536  1.0000
  S   S172      1.0  0.01012  0.84080  0.03327  1.0000
  H   H1320     1.0  0.01932  0.80287  0.08980  1.0000
  H   H1321     1.0  0.10593  0.72091  0.12288  1.0000
  H   H1322     1.0  0.00528  0.61392  0.25623  1.0000
  Fe  Fe85      1.0  0.16619  0.59503  0.99794  1.0000
  H   H1323     1.0  0.01404  0.77789  0.42376  1.0000
  H   H1324     1.0  0.16739  0.57254  0.06683  1.0000
  C   C766      1.0  0.00941  0.77742  0.36152  1.0000
  H   H1325     1.0  0.01430  0.77989  0.11842  1.0000
  H   H1326     1.0  0.02958  0.77152  0.09912  1.0000
  C   C767      1.0  0.02814  0.87445  0.98300  1.0000
  H   H1327     1.0  0.98685  0.72830  0.97556  1.0000
  C   C768      1.0  0.08717  0.86777  0.12082  1.0000
  C   C769      1.0  0.05014  0.52089  0.01956  1.0000
  H   H1328     1.0  0.03539  0.79017  0.06711  1.0000
  H   H1329     1.0  0.03122  0.76713  0.07090  1.0000
  N   N44       1.0  0.99741  0.79211  0.08521  1.0000
  H   H1330     1.0  0.12369  0.72608  0.10351  1.0000
  H   H1331     1.0  0.12750  0.67221  0.08518  1.0000
  H   H1332     1.0  0.17206  0.97297  0.08914  1.0000
  S   S173      1.0  0.98762  0.70233  0.31944  1.0000
  H   H1333     1.0  0.11570  0.83852  0.17046  1.0000
  C   C770      1.0  0.10804  0.91616  0.20829  1.0000
  C   C771      1.0  0.01480  0.73576  0.26512  1.0000
  H   H1334     1.0  0.10220  0.78553  0.38269  1.0000
  H   H1335     1.0  0.06086  0.92007  0.38815  1.0000
  C   C772      1.0  0.03337  0.68063  0.34150  1.0000
  C   C773      1.0  0.11345  0.86797  0.16259  1.0000
  S   S174      1.0  0.11044  0.90525  0.15358  1.0000
  H   H1336     1.0  0.10784  0.83129  0.38533  1.0000
  H   H1337     1.0  0.00413  0.81921  0.07715  1.0000
  C   C774      1.0  0.06753  0.57172  0.05814  1.0000
  H   H1338     1.0  0.99781  0.96687  0.34449  1.0000
  H   H1339     1.0  0.07416  0.72834  0.24239  1.0000
  H   H1340     1.0  0.10730  0.75393  0.42226  1.0000
  H   H1341     1.0  0.00041  0.63726  0.22675  1.0000
  H   H1342     1.0  0.13422  0.93777  0.10883  1.0000
  H   H1343     1.0  0.09460  0.72117  0.41759  1.0000
  H   H1344     1.0  0.15936  0.74358  0.39608  1.0000
  C   C775      1.0  0.18297  0.77394  0.15402  1.0000
  N   N45       1.0  0.12300  0.76569  0.39614  1.0000
  C   C776      1.0  0.09621  0.74860  0.40103  1.0000
  H   H1345     1.0  0.08646  0.76176  0.39813  1.0000
  H   H1346     1.0  0.12816  0.86725  0.16033  1.0000
  H   H1347     1.0  0.12541  0.91395  0.18127  1.0000
  H   H1348     1.0  0.06141  0.75250  0.25934  1.0000
  N   N46       1.0  0.06981  0.82882  0.10928  1.0000
  H   H1349     1.0  0.03934  0.75618  0.25461  1.0000
  H   H1350     1.0  0.06469  0.70821  0.26918  1.0000
  H   H1351     1.0  0.07539  0.81408  0.13611  1.0000
  H   H1352     1.0  0.06049  0.80515  0.12806  1.0000
  H   H1353     1.0  0.05466  0.57551  0.01945  1.0000
  H   H1354     1.0  0.06685  0.58503  0.04817  1.0000
  H   H1355     1.0  0.10946  0.66297  0.38272  1.0000
  C   C777      1.0  0.98739  0.73672  0.06661  1.0000
  H   H1356     1.0  0.08020  0.73975  0.42843  1.0000
  H   H1357     1.0  0.00054  0.76248  0.09340  1.0000
  C   C778      1.0  0.12219  0.92291  0.19148  1.0000
  H   H1358     1.0  0.13519  0.92246  0.19576  1.0000
  C   C779      1.0  0.05103  0.74506  0.25825  1.0000
  H   H1359     1.0  0.03378  0.71080  0.27264  1.0000
  C   C780      1.0  0.98991  0.67741  0.22065  1.0000
  H   H1360     1.0  0.03437  0.83161  0.13474  1.0000
  C   C781      1.0  0.10928  0.78385  0.39427  1.0000
  H   H1361     1.0  0.15937  0.93781  0.13199  1.0000
  C   C782      1.0  0.01947  0.93436  0.00189  1.0000
  C   C783      1.0  0.11520  0.66231  0.41451  1.0000
  C   C784      1.0  0.12277  0.60566  0.39278  1.0000
  H   H1362     1.0  0.02396  0.74050  0.11189  1.0000
  Fe  Fe86      1.0  0.13542  0.78400  0.16201  1.0000
  H   H1363     1.0  0.02835  0.73481  0.05521  1.0000
  C   C785      1.0  0.16892  0.74498  0.30286  1.0000
  H   H1364     1.0  0.11783  0.62509  0.41003  1.0000
  H   H1365     1.0  0.00411  0.77570  0.34995  1.0000
  H   H1366     1.0  0.16328  0.81856  0.16233  1.0000
  H   H1367     1.0  0.11735  0.72220  0.07466  1.0000
  H   H1368     1.0  0.11691  0.93729  0.18488  1.0000
  H   H1369     1.0  0.00909  0.59712  0.13634  1.0000
  H   H1370     1.0  0.12686  0.76985  0.27205  1.0000
  H   H1371     1.0  0.07569  0.72562  0.07777  1.0000
  H   H1372     1.0  0.06771  0.74229  0.21182  1.0000
  H   H1373     1.0  0.16742  0.74474  0.22251  1.0000
  H   H1374     1.0  0.04618  0.75608  0.22121  1.0000
  C   C786      1.0  0.00803  0.56877  0.13577  1.0000
  Fe  Fe87      1.0  0.14785  0.56468  0.99616  1.0000
  H   H1375     1.0  0.09882  0.73456  0.08931  1.0000
  C   C787      1.0  0.12346  0.96522  0.04560  1.0000
  H   H1376     1.0  0.12485  0.65839  0.11408  1.0000
  H   H1377     1.0  0.08974  0.93986  0.42785  1.0000
  H   H1378     1.0  0.09334  0.84873  0.20930  1.0000
  H   H1379     1.0  0.16447  0.76933  0.21478  1.0000
  H   H1380     1.0  0.00708  0.97281  0.25320  1.0000
  H   H1381     1.0  0.17432  0.59427  0.05686  1.0000
  H   H1382     1.0  0.16872  0.63859  0.04312  1.0000
  H   H1383     1.0  0.99609  0.93669  0.36557  1.0000
  C   C788      1.0  0.11152  0.66564  0.12115  1.0000
  H   H1384     1.0  0.15111  0.70891  0.27716  1.0000
  C   C789      1.0  0.01420  0.69100  0.99908  1.0000
  H   H1385     1.0  0.13647  0.94324  0.03031  1.0000
  H   H1386     1.0  0.12510  0.91761  0.09349  1.0000
  H   H1387     1.0  0.99854  0.51204  0.12329  1.0000
  C   C790      1.0  0.99519  0.54284  0.19495  1.0000
  S   S175      1.0  0.99435  0.54694  0.39847  1.0000
  H   H1388     1.0  0.12455  0.70023  0.30161  1.0000
  H   H1389     1.0  0.15253  0.95358  0.03626  1.0000
  H   H1390     1.0  0.17209  0.65184  0.39673  1.0000
  H   H1391     1.0  0.02578  0.53719  0.43352  1.0000
  C   C791      1.0  0.04235  0.96806  0.33942  1.0000
  H   H1392     1.0  0.06503  0.83969  0.45621  1.0000
  C   C792      1.0  0.17820  0.60042  0.42576  1.0000
  C   C793      1.0  0.01481  0.54455  0.31409  1.0000
  H   H1393     1.0  0.04627  0.49917  0.45920  1.0000
  C   C794      1.0  0.00131  0.79183  0.38959  1.0000
  H   H1394     1.0  0.98721  0.74981  0.06955  1.0000
  C   C795      1.0  0.04771  0.93631  0.97004  1.0000
  S   S176      1.0  0.14084  0.54996  0.45888  1.0000
  H   H1395     1.0  0.15754  0.95508  0.15663  1.0000
  H   H1396     1.0  0.14497  0.95592  0.11970  1.0000
  H   H1397     1.0  0.00463  0.57361  0.31181  1.0000
  H   H1398     1.0  0.05743  0.59234  0.98608  1.0000
  H   H1399     1.0  0.04045  0.94450  0.39400  1.0000
  H   H1400     1.0  0.15464  0.66775  0.06019  1.0000
  H   H1401     1.0  0.00605  0.95322  0.40117  1.0000
  H   H1402     1.0  0.03411  0.79531  0.03430  1.0000
  H   H1403     1.0  0.16155  0.77376  0.33656  1.0000
  H   H1404     1.0  0.00406  0.77781  0.39823  1.0000
  H   H1405     1.0  0.00745  0.62659  0.27226  1.0000
  C   C796      1.0  0.16787  0.74512  0.28291  1.0000
  C   C797      1.0  0.13905  0.94909  0.04110  1.0000
  H   H1406     1.0  0.16316  0.70925  0.29455  1.0000
  S   S177      1.0  0.18177  0.54037  0.43166  1.0000
  H   H1407     1.0  0.01353  0.76361  0.37003  1.0000
  C   C798      1.0  0.07920  0.69768  0.01216  1.0000
  H   H1408     1.0  0.04500  0.71811  0.02366  1.0000
  H   H1409     1.0  0.08886  0.93538  0.39966  1.0000
  C   C799      1.0  0.13843  0.69835  0.30475  1.0000
  C   C800      1.0  0.99444  0.78961  0.37308  1.0000
  C   C801      1.0  0.07252  0.58666  0.98372  1.0000
  H   H1410     1.0  0.14215  0.76299  0.33994  1.0000
  C   C802      1.0  0.00544  0.82399  0.11356  1.0000
  C   C803      1.0  0.13357  0.71129  0.12809  1.0000
  C   C804      1.0  0.16610  0.96480  0.12709  1.0000
  C   C805      1.0  0.17747  0.61877  0.42603  1.0000
  H   H1411     1.0  0.12997  0.47889  0.00917  1.0000
  H   H1412     1.0  0.98713  0.51775  0.44501  1.0000
  H   H1413     1.0  0.16302  0.75887  0.30598  1.0000
  H   H1414     1.0  0.07621  0.71076  0.01705  1.0000
  C   C806      1.0  0.03705  0.95236  0.97567  1.0000
  C   C807      1.0  0.17665  0.95820  0.06754  1.0000
  H   H1415     1.0  0.03423  0.86390  0.97437  1.0000
  N   N47       1.0  0.99332  0.66351  0.20862  1.0000
  H   H1416     1.0  0.17981  0.53084  0.02588  1.0000
  C   C808      1.0  0.02791  0.47541  0.11014  1.0000
  H   H1417     1.0  0.08979  0.96204  0.41280  1.0000
  S   S178      1.0  0.17993  0.51881  0.38989  1.0000
  H   H1418     1.0  0.08041  0.96378  0.38248  1.0000
  H   H1419     1.0  0.13678  0.70029  0.31902  1.0000
  H   H1420     1.0  0.00489  0.53008  0.14335  1.0000
  H   H1421     1.0  0.16176  0.66265  0.08190  1.0000
  H   H1422     1.0  0.98689  0.58877  0.26822  1.0000
  C   C809      1.0  0.99091  0.83257  0.03242  1.0000
  H   H1423     1.0  0.15151  0.48866  0.06459  1.0000
  H   H1424     1.0  0.05344  0.96801  0.42573  1.0000
  H   H1425     1.0  0.98992  0.55955  0.32791  1.0000
  H   H1426     1.0  0.14448  0.75901  0.22374  1.0000
  S   S179      1.0  0.07746  0.48963  0.40151  1.0000
  Fe  Fe88      1.0  0.01199  0.47847  0.41503  1.0000
  H   H1427     1.0  0.17210  0.50127  0.02452  1.0000
  H   H1428     1.0  0.99577  0.65881  0.24669  1.0000
  H   H1429     1.0  0.18158  0.57596  0.04403  1.0000
  H   H1430     1.0  0.18086  0.96079  0.12811  1.0000
  H   H1431     1.0  0.99526  0.79953  0.45462  1.0000
  C   C810      1.0  0.98737  0.96527  0.10495  1.0000
  H   H1432     1.0  0.98812  0.68986  0.05572  1.0000
  S   S180      1.0  0.16289  0.58448  0.97437  1.0000
  H   H1433     1.0  0.16523  0.51175  0.05447  1.0000
  H   H1434     1.0  0.06465  0.97265  0.06190  1.0000
  H   H1435     1.0  0.17909  0.55989  0.37479  1.0000
  C   C811      1.0  0.17978  0.62157  0.02280  1.0000
  H   H1436     1.0  0.01204  0.77824  0.45581  1.0000
  H   H1437     1.0  0.18468  0.62032  0.46463  1.0000
  C   C812      1.0  0.06531  0.47428  0.46743  1.0000
  Fe  Fe89      1.0  0.98514  0.63508  0.32594  1.0000
  H   H1438     1.0  0.01547  0.47438  0.31662  1.0000
  H   H1439     1.0  0.11707  0.97404  0.01894  1.0000
  H   H1440     1.0  0.02119  0.52487  0.46825  1.0000
  Fe  Fe90      1.0  0.07830  0.61584  0.87906  1.0000
  S   S181      1.0  0.08792  0.60238  0.85451  1.0000
  S   S182      1.0  0.08147  0.59783  0.90679  1.0000
  Fe  Fe91      1.0  0.06514  0.65338  0.85610  1.0000
  S   S183      1.0  0.07376  0.64291  0.82963  1.0000
  Fe  Fe92      1.0  0.06145  0.61849  0.84605  1.0000
  S   S184      1.0  0.03993  0.60617  0.84003  1.0000
  Fe  Fe93      1.0  0.09942  0.62784  0.84038  1.0000
  S   S185      1.0  0.12867  0.62638  0.82398  1.0000
  S   S186      1.0  0.05088  0.63021  0.87181  1.0000
  S   S187      1.0  0.09179  0.64000  0.86558  1.0000
  C   C813      1.0  0.14199  0.89636  0.71084  1.0000
  C   C814      1.0  0.11665  0.96319  0.90457  1.0000
  H   H1441     1.0  0.08931  0.84686  0.81833  1.0000
  H   H1442     1.0  0.02341  0.90107  0.91328  1.0000
  C   C815      1.0  0.14779  0.92747  0.70448  1.0000
  S   S188      1.0  0.12498  0.62419  0.95253  1.0000
  H   H1443     1.0  0.03248  0.86835  0.51775  1.0000
  S   S189      1.0  0.06612  0.95828  0.50150  1.0000
  H   H1444     1.0  0.15870  0.80747  0.75490  1.0000
  H   H1445     1.0  0.16252  0.54790  0.48484  1.0000
  H   H1446     1.0  0.14774  0.50698  0.51980  1.0000
  N   N48       1.0  0.05965  0.85321  0.48975  1.0000
  H   H1447     1.0  0.00900  0.85970  0.77036  1.0000
  H   H1448     1.0  0.08655  0.86172  0.70373  1.0000
  H   H1449     1.0  0.04454  0.90078  0.91999  1.0000
  H   H1450     1.0  0.05011  0.93872  0.57297  1.0000
  H   H1451     1.0  0.15014  0.82361  0.78048  1.0000
  H   H1452     1.0  0.14752  0.85393  0.82359  1.0000
  H   H1453     1.0  0.99811  0.72959  0.84645  1.0000
  S   S190      1.0  0.05421  0.68373  0.85580  1.0000
  S   S191      1.0  0.02347  0.92647  0.78507  1.0000
  H   H1454     1.0  0.06952  0.58736  0.78071  1.0000
  S   S192      1.0  0.01866  0.53703  0.75864  1.0000
  C   C816      1.0  0.03014  0.69163  0.85953  1.0000
  S   S193      1.0  0.06299  0.93751  0.94838  1.0000
  C   C817      1.0  0.00804  0.91340  0.54520  1.0000
  S   S194      1.0  0.05856  0.88461  0.76713  1.0000
  C   C818      1.0  0.04665  0.82531  0.51224  1.0000
  S   S195      1.0  0.16356  0.85760  0.75954  1.0000
  H   H1455     1.0  0.99114  0.50610  0.50794  1.0000
  H   H1456     1.0  0.12394  0.91188  0.68112  1.0000
  Fe  Fe94      1.0  0.15957  0.88456  0.76757  1.0000
  C   C819      1.0  0.02281  0.70981  0.85184  1.0000
  C   C820      1.0  0.09438  0.84382  0.80425  1.0000
  H   H1457     1.0  0.01064  0.66038  0.85020  1.0000
  H   H1458     1.0  0.13425  0.57875  0.87899  1.0000
  H   H1459     1.0  0.04939  0.93047  0.48871  1.0000
  Fe  Fe95      1.0  0.03434  0.50806  0.76586  1.0000
  H   H1460     1.0  0.03674  0.66720  0.83168  1.0000
  Fe  Fe96      1.0  0.03086  0.54300  0.77998  1.0000
  S   S196      1.0  0.04574  0.56657  0.77467  1.0000
  Fe  Fe97      1.0  0.02422  0.50737  0.80716  1.0000
  S   S197      1.0  0.03109  0.49166  0.83456  1.0000
  S   S198      1.0  0.04822  0.51475  0.78515  1.0000
  C   C821      1.0  0.00067  0.95830  0.59782  1.0000
  H   H1461     1.0  0.04806  0.90961  0.88655  1.0000
  H   H1462     1.0  0.04867  0.96489  0.79352  1.0000
  H   H1463     1.0  0.00799  0.72638  0.92686  1.0000
  H   H1464     1.0  0.03203  0.71907  0.84429  1.0000
  H   H1465     1.0  0.99478  0.96818  0.57051  1.0000
  S   S199      1.0  0.05294  0.48956  0.74702  1.0000
  C   C822      1.0  0.99232  0.69150  0.92813  1.0000
  H   H1466     1.0  0.02374  0.66596  0.87587  1.0000
  H   H1467     1.0  0.01555  0.74579  0.89828  1.0000
  H   H1468     1.0  0.14063  0.83919  0.80227  1.0000
  N   N49       1.0  0.12813  0.51404  0.54409  1.0000
  H   H1469     1.0  0.02281  0.92944  0.47603  1.0000
  H   H1470     1.0  0.12221  0.54264  0.53082  1.0000
  H   H1471     1.0  0.08733  0.87248  0.49183  1.0000
  H   H1472     1.0  0.11172  0.80497  0.81274  1.0000
  H   H1473     1.0  0.14081  0.50505  0.48944  1.0000
  H   H1474     1.0  0.12196  0.49324  0.50082  1.0000
  C   C823      1.0  0.05319  0.47897  0.69784  1.0000
  C   C824      1.0  0.02243  0.92362  0.73849  1.0000
  C   C825      1.0  0.01820  0.67984  0.86953  1.0000
  H   H1475     1.0  0.07929  0.93973  0.72506  1.0000
  H   H1476     1.0  0.01599  0.90142  0.53901  1.0000
  Fe  Fe98      1.0  0.08402  0.93024  0.50200  1.0000
  H   H1477     1.0  0.09635  0.96883  0.88725  1.0000
  C   C826      1.0  0.06884  0.85273  0.50527  1.0000
  Fe  Fe99      1.0  0.09693  0.93069  0.53639  1.0000
  Fe  Fe100     1.0  0.05273  0.47798  0.65096  1.0000
  Fe  Fe101     1.0  0.05771  0.94874  0.53206  1.0000
  H   H1478     1.0  0.01546  0.93324  0.96056  1.0000
  H   H1479     1.0  0.01581  0.67185  0.91665  1.0000
  N   N50       1.0  0.11419  0.83339  0.80209  1.0000
  S   S200      1.0  0.07375  0.91989  0.53215  1.0000
  S   S201      1.0  0.10866  0.93856  0.50625  1.0000
  H   H1480     1.0  0.02633  0.75774  0.86541  1.0000
  H   H1481     1.0  0.99721  0.63604  0.78538  1.0000
  H   H1482     1.0  0.11982  0.57030  0.54323  1.0000
  C   C827      1.0  0.10794  0.51489  0.55291  1.0000
  H   H1483     1.0  0.07778  0.86896  0.46876  1.0000
  H   H1484     1.0  0.10143  0.97128  0.94926  1.0000
  H   H1485     1.0  0.01589  0.51416  0.69926  1.0000
  H   H1486     1.0  0.09962  0.94597  0.90109  1.0000
  H   H1487     1.0  0.04941  0.55751  0.89029  1.0000
  C   C828      1.0  0.11579  0.92302  0.71441  1.0000
  C   C829      1.0  0.15489  0.62929  0.89868  1.0000
  C   C830      1.0  0.13309  0.50658  0.52664  1.0000
  H   H1488     1.0  0.16311  0.94034  0.73800  1.0000
  H   H1489     1.0  0.10730  0.86657  0.81827  1.0000
  H   H1490     1.0  0.14590  0.53354  0.53051  1.0000
  H   H1491     1.0  0.15464  0.61704  0.48656  1.0000
  H   H1492     1.0  0.13476  0.93862  0.52937  1.0000
  C   C831      1.0  0.03208  0.94226  0.59908  1.0000
  C   C832      1.0  0.99241  0.90761  0.56089  1.0000
  C   C833      1.0  0.03634  0.94424  0.57983  1.0000
  H   H1493     1.0  0.04264  0.93527  0.60699  1.0000
  H   H1494     1.0  0.17452  0.90081  0.54055  1.0000
  H   H1495     1.0  0.17044  0.60053  0.89901  1.0000
  H   H1496     1.0  0.00201  0.88832  0.51427  1.0000
  C   C834      1.0  0.99693  0.63555  0.81408  1.0000
  H   H1497     1.0  0.03492  0.90402  0.95638  1.0000
  S   S202      1.0  0.07997  0.95872  0.53875  1.0000
  C   C835      1.0  0.99320  0.94899  0.94715  1.0000
  C   C836      1.0  0.15925  0.50557  0.61619  1.0000
  C   C837      1.0  0.15037  0.52138  0.60568  1.0000
  C   C838      1.0  0.13245  0.52249  0.60335  1.0000
  C   C839      1.0  0.18180  0.65141  0.72414  1.0000
  H   H1498     1.0  0.10151  0.96255  0.58338  1.0000
  H   H1499     1.0  0.15713  0.53297  0.59977  1.0000
  H   H1500     1.0  0.12540  0.53503  0.59584  1.0000
  C   C840      1.0  0.00574  0.49819  0.47416  1.0000
  H   H1501     1.0  0.99178  0.70415  0.89955  1.0000
  H   H1502     1.0  0.04761  0.79945  0.50460  1.0000
  H   H1503     1.0  0.11654  0.59894  0.88147  1.0000
  H   H1504     1.0  0.04055  0.66174  0.80939  1.0000
  H   H1505     1.0  0.08221  0.95282  0.58394  1.0000
  S   S203      1.0  0.10136  0.50946  0.60697  1.0000
  H   H1506     1.0  0.11811  0.84136  0.77246  1.0000
  H   H1507     1.0  0.08061  0.84073  0.50601  1.0000
  C   C841      1.0  0.13378  0.92277  0.55697  1.0000
  H   H1508     1.0  0.00741  0.68895  0.82695  1.0000
  H   H1509     1.0  0.04263  0.48633  0.49561  1.0000
  H   H1510     1.0  0.12630  0.85755  0.79053  1.0000
  C   C842      1.0  0.99298  0.90241  0.60510  1.0000
  H   H1511     1.0  0.01133  0.68577  0.80390  1.0000
  S   S204      1.0  0.03104  0.49147  0.67216  1.0000
  C   C843      1.0  0.03178  0.50336  0.72051  1.0000
  H   H1512     1.0  0.01332  0.90844  0.66125  1.0000
  H   H1513     1.0  0.02477  0.95146  0.72346  1.0000
  C   C844      1.0  0.02745  0.96739  0.86613  1.0000
  H   H1514     1.0  0.02351  0.51283  0.72919  1.0000
  C   C845      1.0  0.16065  0.50009  0.55178  1.0000
  H   H1515     1.0  0.12254  0.79066  0.84873  1.0000
  H   H1516     1.0  0.99755  0.74457  0.95727  1.0000
  H   H1517     1.0  0.10830  0.48538  0.56442  1.0000
  C   C846      1.0  0.05536  0.55883  0.86062  1.0000
  H   H1518     1.0  0.13475  0.80883  0.75492  1.0000
  C   C847      1.0  0.15857  0.93862  0.53970  1.0000
  H   H1519     1.0  0.16409  0.63217  0.76558  1.0000
  S   S205      1.0  0.03102  0.94040  0.82588  1.0000
  C   C848      1.0  0.07912  0.88952  0.76919  1.0000
  C   C849      1.0  0.07855  0.90211  0.77981  1.0000
  C   C850      1.0  0.09497  0.90633  0.78108  1.0000
  C   C851      1.0  0.11206  0.89772  0.77209  1.0000
  C   C852      1.0  0.11269  0.88493  0.76161  1.0000
  C   C853      1.0  0.09621  0.88098  0.75999  1.0000
  H   H1520     1.0  0.06543  0.90874  0.78697  1.0000
  H   H1521     1.0  0.09440  0.91623  0.78921  1.0000
  H   H1522     1.0  0.12584  0.87823  0.75465  1.0000
  H   H1523     1.0  0.09668  0.87119  0.75181  1.0000
  H   H1524     1.0  0.00337  0.76998  0.87336  1.0000
  C   C854      1.0  0.01421  0.94914  0.60812  1.0000
  H   H1525     1.0  0.00317  0.95629  0.93656  1.0000
  H   H1526     1.0  0.17942  0.70756  0.72717  1.0000
  C   C855      1.0  0.06944  0.91471  0.47033  1.0000
  C   C856      1.0  0.01998  0.51910  0.48327  1.0000
  H   H1527     1.0  0.08129  0.91567  0.73579  1.0000
  Fe  Fe102     1.0  0.05472  0.96416  0.92886  1.0000
  H   H1528     1.0  0.98522  0.96549  0.71144  1.0000
  H   H1529     1.0  0.08699  0.84503  0.47380  1.0000
  H   H1530     1.0  0.00468  0.85066  0.80654  1.0000
  C   C857      1.0  0.11980  0.82856  0.78323  1.0000
  C   C858      1.0  0.01661  0.94449  0.73628  1.0000
  C   C859      1.0  0.02491  0.53116  0.86063  1.0000
  C   C860      1.0  0.13399  0.78979  0.83652  1.0000
  C   C861      1.0  0.12358  0.50755  0.61083  1.0000
  H   H1531     1.0  0.05164  0.54320  0.48758  1.0000
  H   H1532     1.0  0.08181  0.96421  0.60215  1.0000
  C   C862      1.0  0.13109  0.88220  0.70995  1.0000
  C   C863      1.0  0.01408  0.88858  0.50261  1.0000
  H   H1533     1.0  0.05297  0.57953  0.87635  1.0000
  H   H1534     1.0  0.01955  0.88492  0.67289  1.0000
  H   H1535     1.0  0.15603  0.60139  0.93125  1.0000
  C   C864      1.0  0.04373  0.86936  0.48797  1.0000
  S   S206      1.0  0.00773  0.53623  0.80354  1.0000
  H   H1536     1.0  0.10471  0.81858  0.82974  1.0000
  C   C865      1.0  0.02253  0.94963  0.84607  1.0000
  S   S207      1.0  0.11327  0.91546  0.55837  1.0000
  C   C866      1.0  0.04202  0.59548  0.82154  1.0000
  C   C867      1.0  0.02792  0.58661  0.82180  1.0000
  C   C868      1.0  0.02903  0.57756  0.80760  1.0000
  C   C869      1.0  0.04407  0.57770  0.79279  1.0000
  C   C870      1.0  0.05794  0.58703  0.79225  1.0000
  C   C871      1.0  0.05707  0.59569  0.80673  1.0000
  H   H1537     1.0  0.01617  0.58653  0.83317  1.0000
  H   H1538     1.0  0.01815  0.57065  0.80803  1.0000
  C   C872      1.0  0.08622  0.96449  0.58713  1.0000
  H   H1539     1.0  0.06793  0.60262  0.80635  1.0000
  C   C873      1.0  0.13768  0.64570  0.82294  1.0000
  C   C874      1.0  0.15685  0.64461  0.81859  1.0000
  C   C875      1.0  0.16428  0.65982  0.81804  1.0000
  C   C876      1.0  0.15253  0.67625  0.82164  1.0000
  C   C877      1.0  0.13336  0.67736  0.82587  1.0000
  C   C878      1.0  0.12595  0.66211  0.82662  1.0000
  H   H1540     1.0  0.16594  0.63182  0.81608  1.0000
  H   H1541     1.0  0.03134  0.88481  0.74854  1.0000
  H   H1542     1.0  0.12419  0.69002  0.82874  1.0000
  H   H1543     1.0  0.11113  0.66312  0.82993  1.0000
  C   C879      1.0  0.09353  0.60519  0.91951  1.0000
  C   C880      1.0  0.09453  0.62370  0.91647  1.0000
  C   C881      1.0  0.10394  0.62938  0.92694  1.0000
  C   C882      1.0  0.11263  0.61659  0.94031  1.0000
  C   C883      1.0  0.11165  0.59807  0.94339  1.0000
  C   C884      1.0  0.10202  0.59241  0.93306  1.0000
  H   H1544     1.0  0.08770  0.63370  0.90633  1.0000
  H   H1545     1.0  0.10434  0.64376  0.92480  1.0000
  C   C885      1.0  0.18369  0.83709  0.54656  1.0000
  H   H1546     1.0  0.10125  0.57807  0.93547  1.0000
  C   C886      1.0  0.99535  0.84225  0.81569  1.0000
  H   H1547     1.0  0.13645  0.81793  0.83132  1.0000
  C   C887      1.0  0.05163  0.92344  0.47749  1.0000
  C   C888      1.0  0.02760  0.87013  0.50485  1.0000
  H   H1548     1.0  0.03861  0.51550  0.50256  1.0000
  C   C889      1.0  0.12549  0.66136  0.88492  1.0000
  H   H1549     1.0  0.16634  0.49386  0.57943  1.0000
  H   H1550     1.0  0.09956  0.90697  0.70642  1.0000
  C   C890      1.0  0.17238  0.55172  0.50731  1.0000
  H   H1551     1.0  0.14319  0.93087  0.64484  1.0000
  H   H1552     1.0  0.15182  0.89139  0.52620  1.0000
  H   H1553     1.0  0.99020  0.50376  0.72771  1.0000
  H   H1554     1.0  0.07250  0.56090  0.87868  1.0000
  C   C891      1.0  0.03248  0.90980  0.91448  1.0000
  C   C892      1.0  0.00429  0.49578  0.50675  1.0000
  H   H1555     1.0  0.16223  0.92139  0.69852  1.0000
  H   H1556     1.0  0.15740  0.95009  0.91872  1.0000
  C   C893      1.0  0.18225  0.60643  0.47198  1.0000
  H   H1557     1.0  0.00448  0.47672  0.71502  1.0000
  C   C894      1.0  0.14459  0.65788  0.75996  1.0000
  C   C895      1.0  0.12848  0.64791  0.76845  1.0000
  C   C896      1.0  0.13959  0.81730  0.77820  1.0000
  C   C897      1.0  0.03992  0.97240  0.78331  1.0000
  C   C898      1.0  0.13175  0.56234  0.54957  1.0000
  H   H1558     1.0  0.03345  0.80227  0.52680  1.0000
  Fe  Fe103     1.0  0.00344  0.88701  0.81996  1.0000
  S   S208      1.0  0.17700  0.87354  0.78904  1.0000
  H   H1559     1.0  0.03244  0.92990  0.92994  1.0000
  C   C899      1.0  0.00355  0.93031  0.95664  1.0000
  C   C900      1.0  0.99895  0.95642  0.87287  1.0000
  H   H1560     1.0  0.05181  0.97305  0.58128  1.0000
  H   H1561     1.0  0.99915  0.66167  0.93504  1.0000
  H   H1562     1.0  0.13230  0.59770  0.85965  1.0000
  C   C901      1.0  0.08013  0.83415  0.80110  1.0000
  H   H1563     1.0  0.09341  0.85747  0.79471  1.0000
  H   H1564     1.0  0.14049  0.67138  0.76427  1.0000
  H   H1565     1.0  0.14643  0.66044  0.74481  1.0000
  H   H1566     1.0  0.11581  0.65632  0.76368  1.0000
  H   H1567     1.0  0.13154  0.63439  0.76433  1.0000
  H   H1568     1.0  0.12570  0.64571  0.78373  1.0000
  C   C902      1.0  0.12161  0.51708  0.51170  1.0000
  C   C903      1.0  0.01000  0.74165  0.88821  1.0000
  N   N51       1.0  0.01624  0.49981  0.48782  1.0000
  C   C904      1.0  0.03860  0.54190  0.48451  1.0000
  C   C905      1.0  0.00505  0.96060  0.57855  1.0000
  C   C906      1.0  0.04690  0.49055  0.72609  1.0000
  C   C907      1.0  0.03789  0.49158  0.69239  1.0000
  H   H1569     1.0  0.09687  0.93066  0.69516  1.0000
  H   H1570     1.0  0.02506  0.53789  0.87181  1.0000
  C   C908      1.0  0.14935  0.91639  0.65025  1.0000
  C   C909      1.0  0.99544  0.70734  0.91139  1.0000
  H   H1571     1.0  0.99923  0.69238  0.93892  1.0000
  H   H1572     1.0  0.13456  0.93780  0.73021  1.0000
  H   H1573     1.0  0.00788  0.72038  0.96013  1.0000
  H   H1574     1.0  0.00682  0.75278  0.85975  1.0000
  C   C910      1.0  0.01204  0.89890  0.67488  1.0000
  S   S209      1.0  0.18488  0.55692  0.53562  1.0000
  H   H1575     1.0  0.15822  0.59364  0.48344  1.0000
  H   H1576     1.0  0.02695  0.51609  0.86586  1.0000
  S   S210      1.0  0.18114  0.50464  0.62034  1.0000
  C   C911      1.0  0.14280  0.91674  0.57189  1.0000
  C   C912      1.0  0.17775  0.92332  0.79857  1.0000
  H   H1577     1.0  0.14475  0.56402  0.53944  1.0000
  H   H1578     1.0  0.14728  0.78492  0.84133  1.0000
  H   H1579     1.0  0.99518  0.61429  0.80082  1.0000
  H   H1580     1.0  0.00287  0.89368  0.71279  1.0000
  H   H1581     1.0  0.17690  0.93156  0.71809  1.0000
  Fe  Fe104     1.0  0.08985  0.96593  0.50824  1.0000
  H   H1582     1.0  0.06515  0.88252  0.50410  1.0000
  H   H1583     1.0  0.08226  0.81942  0.80791  1.0000
  H   H1584     1.0  0.99910  0.47464  0.54286  1.0000
  H   H1585     1.0  0.15900  0.89967  0.67417  1.0000
  H   H1586     1.0  0.11455  0.65585  0.88219  1.0000
  H   H1587     1.0  0.13678  0.90818  0.58436  1.0000
  Fe  Fe105     1.0  0.08559  0.48672  0.62086  1.0000
  H   H1588     1.0  0.12940  0.49492  0.66238  1.0000
  H   H1589     1.0  0.99381  0.67080  0.91249  1.0000
  H   H1590     1.0  0.99715  0.89871  0.68043  1.0000
  S   S211      1.0  0.18259  0.89392  0.74540  1.0000
  H   H1591     1.0  0.00030  0.48221  0.50901  1.0000
  H   H1592     1.0  0.00547  0.49028  0.55314  1.0000
  H   H1593     1.0  0.00367  0.47577  0.82668  1.0000
  H   H1594     1.0  0.14486  0.94164  0.69609  1.0000
  C   C913      1.0  0.16138  0.60747  0.47698  1.0000
  C   C914      1.0  0.02261  0.89953  0.95500  1.0000
  H   H1595     1.0  0.14375  0.65778  0.85889  1.0000
  H   H1596     1.0  0.18450  0.88208  0.86288  1.0000
  H   H1597     1.0  0.04900  0.92886  0.89557  1.0000
  H   H1598     1.0  0.01246  0.91977  0.68857  1.0000
  C   C915      1.0  0.06031  0.84319  0.80861  1.0000
  C   C916      1.0  0.14181  0.86257  0.71483  1.0000
  H   H1599     1.0  0.02194  0.64523  0.80838  1.0000
  H   H1600     1.0  0.01892  0.94886  0.74814  1.0000
  H   H1601     1.0  0.09646  0.85604  0.52162  1.0000
  H   H1602     1.0  0.15834  0.59705  0.87344  1.0000
  H   H1603     1.0  0.00351  0.92024  0.72343  1.0000
  H   H1604     1.0  0.09906  0.52634  0.54501  1.0000
  C   C917      1.0  0.12598  0.84621  0.80291  1.0000
  C   C918      1.0  0.18296  0.94695  0.89925  1.0000
  H   H1605     1.0  0.06872  0.92519  0.71745  1.0000
  H   H1606     1.0  0.01065  0.70645  0.90748  1.0000
  H   H1607     1.0  0.98610  0.52475  0.47511  1.0000
  C   C919      1.0  0.14427  0.60228  0.88076  1.0000
  H   H1608     1.0  0.02806  0.88862  0.94672  1.0000
  H   H1609     1.0  0.13258  0.77958  0.82917  1.0000
  H   H1610     1.0  0.04056  0.56338  0.85981  1.0000
  C   C920      1.0  0.17815  0.97021  0.82559  1.0000
  S   S212      1.0  0.02765  0.95627  0.54547  1.0000
  C   C921      1.0  0.11528  0.81625  0.81710  1.0000
  H   H1611     1.0  0.15469  0.86012  0.70431  1.0000
  H   H1612     1.0  0.15002  0.91609  0.73356  1.0000
  H   H1613     1.0  0.01895  0.72866  0.88475  1.0000
  C   C922      1.0  0.99988  0.48923  0.54147  1.0000
  N   N52       1.0  0.17963  0.87121  0.54951  1.0000
  H   H1614     1.0  0.16626  0.49407  0.53927  1.0000
  H   H1615     1.0  0.18059  0.65533  0.85446  1.0000
  N   N53       1.0  0.09474  0.52143  0.67088  1.0000
  C   C923      1.0  0.10970  0.53037  0.65746  1.0000
  C   C924      1.0  0.08133  0.51952  0.66025  1.0000
  C   C925      1.0  0.08529  0.53317  0.68500  1.0000
  C   C926      1.0  0.10262  0.50252  0.68073  1.0000
  H   H1616     1.0  0.16292  0.91264  0.64107  1.0000
  C   C927      1.0  0.12532  0.53270  0.66584  1.0000
  C   C928      1.0  0.06870  0.52652  0.69926  1.0000
  C   C929      1.0  0.06898  0.53766  0.65220  1.0000
  C   C930      1.0  0.05664  0.53397  0.64117  1.0000
  S   S213      1.0  0.99066  0.86450  0.84058  1.0000
  C   C931      1.0  0.14109  0.53910  0.65076  1.0000
  C   C932      1.0  0.05935  0.54008  0.71202  1.0000
  H   H1617     1.0  0.10375  0.54441  0.65059  1.0000
  H   H1618     1.0  0.11604  0.52279  0.64601  1.0000
  H   H1619     1.0  0.08891  0.51285  0.64841  1.0000
  H   H1620     1.0  0.07201  0.51011  0.66886  1.0000
  H   H1621     1.0  0.08074  0.54769  0.67819  1.0000
  H   H1622     1.0  0.09518  0.53373  0.69323  1.0000
  C   C933      1.0  0.03357  0.95929  0.85058  1.0000
  H   H1623     1.0  0.16657  0.67974  0.74361  1.0000
  H   H1624     1.0  0.00245  0.92437  0.53430  1.0000
  C   C934      1.0  0.03774  0.52158  0.48803  1.0000
  H   H1625     1.0  0.11994  0.54326  0.67451  1.0000
  H   H1626     1.0  0.13125  0.51971  0.67443  1.0000
  H   H1627     1.0  0.07348  0.51311  0.70803  1.0000
  H   H1628     1.0  0.05812  0.52489  0.69252  1.0000
  H   H1629     1.0  0.05977  0.54449  0.66328  1.0000
  H   H1630     1.0  0.07745  0.54737  0.64280  1.0000
  H   H1631     1.0  0.04772  0.52433  0.64996  1.0000
  H   H1632     1.0  0.04762  0.54705  0.63594  1.0000
  H   H1633     1.0  0.06519  0.52806  0.62920  1.0000
  N   N54       1.0  0.00187  0.66326  0.82476  1.0000
  H   H1634     1.0  0.99186  0.74755  0.92459  1.0000
  C   C935      1.0  0.00701  0.65169  0.81025  1.0000
  H   H1635     1.0  0.14784  0.52839  0.64246  1.0000
  H   H1636     1.0  0.13594  0.55207  0.64156  1.0000
  H   H1637     1.0  0.15165  0.54152  0.65707  1.0000
  H   H1638     1.0  0.06926  0.54178  0.71960  1.0000
  H   H1639     1.0  0.05365  0.55366  0.70407  1.0000
  H   H1640     1.0  0.04780  0.53476  0.72229  1.0000
  C   C936      1.0  0.01286  0.67844  0.81810  1.0000
  C   C937      1.0  0.14449  0.81574  0.75797  1.0000
  H   H1641     1.0  0.09126  0.49513  0.68845  1.0000
  C   C938      1.0  0.03396  0.67253  0.81758  1.0000
  H   H1642     1.0  0.16456  0.56561  0.50690  1.0000
  C   C939      1.0  0.02280  0.95343  0.56955  1.0000
  C   C940      1.0  0.15966  0.92168  0.57073  1.0000
  H   H1643     1.0  0.17506  0.88428  0.57261  1.0000
  H   H1644     1.0  0.10319  0.47436  0.85524  1.0000
  C   C941      1.0  0.13255  0.49157  0.62107  1.0000
  C   C942      1.0  0.12588  0.50692  0.49586  1.0000
  H   H1645     1.0  0.05042  0.83665  0.80531  1.0000
  C   C943      1.0  0.00365  0.71579  0.85306  1.0000
  H   H1646     1.0  0.11503  0.91636  0.72925  1.0000
  H   H1647     1.0  0.01945  0.64116  0.84003  1.0000
  H   H1648     1.0  0.17795  0.78279  0.81459  1.0000
  C   C944      1.0  0.16067  0.92528  0.79072  1.0000
  H   H1649     1.0  0.11984  0.68666  0.86473  1.0000
  H   H1650     1.0  0.06506  0.82494  0.48637  1.0000
  H   H1651     1.0  0.14580  0.80698  0.81211  1.0000
  H   H1652     1.0  0.13326  0.85262  0.71529  1.0000
  S   S214      1.0  0.05344  0.96610  0.89940  1.0000
  N   N55       1.0  0.05960  0.53052  0.84604  1.0000
  C   C945      1.0  0.06196  0.53778  0.86172  1.0000
  C   C946      1.0  0.06460  0.50980  0.85050  1.0000
  C   C947      1.0  0.07187  0.53840  0.82860  1.0000
  C   C948      1.0  0.03992  0.53603  0.84337  1.0000
  H   H1653     1.0  0.15667  0.89213  0.70410  1.0000
  C   C949      1.0  0.07234  0.53128  0.81120  1.0000
  C   C950      1.0  0.08526  0.50125  0.85057  1.0000
  H   H1654     1.0  0.17847  0.97300  0.51909  1.0000
  H   H1655     1.0  0.03749  0.70017  0.81661  1.0000
  C   C951      1.0  0.08711  0.53807  0.79510  1.0000
  H   H1656     1.0  0.07678  0.53467  0.86260  1.0000
  H   H1657     1.0  0.05488  0.53061  0.87516  1.0000
  H   H1658     1.0  0.05672  0.50439  0.86431  1.0000
  H   H1659     1.0  0.06028  0.50383  0.84083  1.0000
  H   H1660     1.0  0.08625  0.53630  0.83063  1.0000
  C   C952      1.0  0.98957  0.47749  0.72156  1.0000
  H   H1661     1.0  0.03644  0.55098  0.83786  1.0000
  H   H1662     1.0  0.03817  0.52944  0.83268  1.0000
  C   C953      1.0  0.99938  0.63021  0.87353  1.0000
  N   N56       1.0  0.13458  0.91627  0.70320  1.0000
  H   H1663     1.0  0.05883  0.53648  0.80689  1.0000
  H   H1664     1.0  0.07534  0.51608  0.81355  1.0000
  H   H1665     1.0  0.09407  0.50512  0.83687  1.0000
  H   H1666     1.0  0.09006  0.50576  0.86093  1.0000
  S   S215      1.0  0.05505  0.49460  0.62220  1.0000
  C   C954      1.0  0.18287  0.87126  0.56816  1.0000
  C   C955      1.0  0.18086  0.52354  0.49557  1.0000
  H   H1667     1.0  0.08479  0.55331  0.79209  1.0000
  C   C956      1.0  0.02195  0.92353  0.92727  1.0000
  C   C957      1.0  0.18450  0.94939  0.83309  1.0000
  H   H1668     1.0  0.08640  0.53363  0.78260  1.0000
  H   H1669     1.0  0.10110  0.53230  0.79824  1.0000
  H   H1670     1.0  0.18101  0.91529  0.85583  1.0000
  C   C958      1.0  0.15928  0.87227  0.55098  1.0000
  H   H1671     1.0  0.14166  0.62679  0.90816  1.0000
  C   C959      1.0  0.11967  0.85547  0.81991  1.0000
  H   H1672     1.0  0.16174  0.92327  0.66904  1.0000
  C   C960      1.0  0.13902  0.62352  0.87656  1.0000
  C   C961      1.0  0.15287  0.87650  0.53240  1.0000
  C   C962      1.0  0.99906  0.68582  0.87079  1.0000
  H   H1673     1.0  0.05030  0.51492  0.47930  1.0000
  H   H1674     1.0  0.14031  0.90719  0.64994  1.0000
  C   C963      1.0  0.13381  0.87208  0.53498  1.0000
  H   H1675     1.0  0.11366  0.93805  0.71386  1.0000
  H   H1676     1.0  0.15483  0.85952  0.55937  1.0000
  H   H1677     1.0  0.16226  0.93508  0.82232  1.0000
  S   S216      1.0  0.00627  0.89003  0.78957  1.0000
  C   C964      1.0  0.99168  0.64264  0.85705  1.0000
  H   H1678     1.0  0.15088  0.88322  0.55858  1.0000
  C   C965      1.0  0.13101  0.59396  0.87483  1.0000
  H   H1679     1.0  0.16774  0.63103  0.85151  1.0000
  H   H1680     1.0  0.16406  0.85269  0.58505  1.0000
  H   H1681     1.0  0.11787  0.88346  0.72013  1.0000
  H   H1682     1.0  0.01768  0.91858  0.55047  1.0000
  H   H1683     1.0  0.01033  0.61869  0.86914  1.0000
  H   H1684     1.0  0.17907  0.65880  0.81520  1.0000
  C   C966      1.0  0.16243  0.64671  0.76674  1.0000
  H   H1685     1.0  0.04747  0.96953  0.76960  1.0000
  Fe  Fe106     1.0  0.01944  0.92093  0.81591  1.0000
  C   C967      1.0  0.03992  0.91978  0.89511  1.0000
  C   C968      1.0  0.17640  0.67434  0.75307  1.0000
  C   C969      1.0  0.14472  0.65407  0.87366  1.0000
  C   C970      1.0  0.17050  0.62951  0.86545  1.0000
  H   H1686     1.0  0.13426  0.85713  0.54020  1.0000
  H   H1687     1.0  0.12350  0.87985  0.54483  1.0000
  H   H1688     1.0  0.12929  0.87614  0.52158  1.0000
  C   C971      1.0  0.13367  0.91942  0.68313  1.0000
  H   H1689     1.0  0.04247  0.69391  0.79434  1.0000
  C   C972      1.0  0.16771  0.93245  0.55455  1.0000
  C   C973      1.0  0.00513  0.94821  0.85725  1.0000
  H   H1690     1.0  0.08140  0.83522  0.78611  1.0000
  Fe  Fe107     1.0  0.18300  0.84708  0.77908  1.0000
  H   H1691     1.0  0.15902  0.64655  0.78180  1.0000
  H   H1692     1.0  0.06725  0.55358  0.82497  1.0000
  H   H1693     1.0  0.00799  0.52847  0.49002  1.0000
  H   H1694     1.0  0.13633  0.62812  0.86228  1.0000
  S   S217      1.0  0.03227  0.89081  0.81796  1.0000
  C   C974      1.0  0.17449  0.93735  0.81116  1.0000
  S   S218      1.0  0.13221  0.90377  0.77380  1.0000
  H   H1695     1.0  0.06354  0.56657  0.84841  1.0000
  H   H1696     1.0  0.98816  0.62433  0.88382  1.0000
  H   H1697     1.0  0.12546  0.65760  0.89987  1.0000
  H   H1698     1.0  0.13232  0.49177  0.52980  1.0000
  C   C975      1.0  0.14784  0.92958  0.72414  1.0000
  H   H1699     1.0  0.05761  0.85804  0.80228  1.0000
  H   H1700     1.0  0.05312  0.89844  0.72542  1.0000
  H   H1701     1.0  0.14885  0.92183  0.80189  1.0000
  H   H1702     1.0  0.01432  0.91744  0.75177  1.0000
  C   C976      1.0  0.14159  0.93392  0.54095  1.0000
  C   C977      1.0  0.15223  0.91417  0.66979  1.0000
  H   H1703     1.0  0.04702  0.96047  0.84200  1.0000
  H   H1704     1.0  0.15778  0.64130  0.90240  1.0000
  C   C978      1.0  0.05774  0.56442  0.87756  1.0000
  H   H1705     1.0  0.16794  0.61917  0.93098  1.0000
  H   H1706     1.0  0.12546  0.62674  0.88589  1.0000
  C   C979      1.0  0.00682  0.65182  0.84271  1.0000
  C   C980      1.0  0.01879  0.91714  0.72228  1.0000
  H   H1707     1.0  0.11065  0.82008  0.78165  1.0000
  Fe  Fe108     1.0  0.99542  0.91998  0.78970  1.0000
  H   H1708     1.0  0.17746  0.61496  0.86892  1.0000
  S   S219      1.0  0.01155  0.49837  0.78834  1.0000
  H   H1709     1.0  0.13021  0.68885  0.88270  1.0000
  C   C981      1.0  0.13194  0.53322  0.53932  1.0000
  H   H1710     1.0  0.12982  0.87066  0.83436  1.0000
  H   H1711     1.0  0.07164  0.51080  0.55713  1.0000
  H   H1712     1.0  0.04875  0.88245  0.48437  1.0000
  H   H1713     1.0  0.01327  0.93486  0.91901  1.0000
  H   H1714     1.0  0.10969  0.50338  0.69147  1.0000
  C   C982      1.0  0.13944  0.50152  0.55761  1.0000
  H   H1715     1.0  0.00283  0.55263  0.85061  1.0000
  H   H1716     1.0  0.11837  0.58810  0.95364  1.0000
  Fe  Fe109     1.0  0.99681  0.52786  0.78277  1.0000
  C   C983      1.0  0.04361  0.68881  0.80900  1.0000
  S   S220      1.0  0.17987  0.82072  0.79960  1.0000
  H   H1717     1.0  0.10506  0.51826  0.56678  1.0000
  H   H1718     1.0  0.13480  0.50563  0.57126  1.0000
  C   C984      1.0  0.13393  0.80859  0.82366  1.0000
  H   H1719     1.0  0.07847  0.50252  0.57925  1.0000
  H   H1720     1.0  0.03650  0.83460  0.52059  1.0000
  H   H1721     1.0  0.17001  0.95113  0.80275  1.0000
  H   H1722     1.0  0.15707  0.47847  0.63220  1.0000
  H   H1723     1.0  0.08404  0.47502  0.84509  1.0000
  H   H1724     1.0  0.16478  0.94676  0.52705  1.0000
  N   N57       1.0  0.98567  0.72645  0.91403  1.0000
  H   H1725     1.0  0.17964  0.71033  0.74992  1.0000
  H   H1726     1.0  0.05780  0.84160  0.82380  1.0000
  C   C985      1.0  0.00081  0.67285  0.92269  1.0000
  H   H1727     1.0  0.14060  0.80308  0.78647  1.0000
  C   C986      1.0  0.17809  0.85499  0.58391  1.0000
  C   C987      1.0  0.09853  0.92099  0.70840  1.0000
  H   H1728     1.0  0.11603  0.84544  0.83278  1.0000
  N   N58       1.0  0.02660  0.89721  0.72104  1.0000
  C   C988      1.0  0.01798  0.89288  0.70729  1.0000
  C   C989      1.0  0.02147  0.88538  0.73985  1.0000
  S   S221      1.0  0.00947  0.94694  0.63216  1.0000
  C   C990      1.0  0.04732  0.89500  0.71507  1.0000
  C   C991      1.0  0.05835  0.87564  0.71260  1.0000
  C   C992      1.0  0.02008  0.90551  0.68786  1.0000
  C   C993      1.0  0.17047  0.61281  0.90407  1.0000
  C   C994      1.0  0.01951  0.86547  0.74068  1.0000
  C   C995      1.0  0.02014  0.85361  0.75990  1.0000
  C   C996      1.0  0.07894  0.87574  0.70555  1.0000
  S   S222      1.0  0.08837  0.91386  0.47990  1.0000
  H   H1729     1.0  0.16644  0.91708  0.58233  1.0000
  H   H1730     1.0  0.01207  0.88940  0.62352  1.0000
  H   H1731     1.0  0.02349  0.87857  0.70527  1.0000
  H   H1732     1.0  0.00522  0.63813  0.88020  1.0000
  H   H1733     1.0  0.00785  0.89172  0.74727  1.0000
  H   H1734     1.0  0.02835  0.92812  0.88844  1.0000
  H   H1735     1.0  0.02433  0.92633  0.70940  1.0000
  H   H1736     1.0  0.05107  0.90497  0.70213  1.0000
  H   H1737     1.0  0.00523  0.66042  0.79659  1.0000
  H   H1738     1.0  0.05357  0.87052  0.70265  1.0000
  H   H1739     1.0  0.05714  0.86593  0.72609  1.0000
  C   C997      1.0  0.16315  0.93936  0.72376  1.0000
  H   H1740     1.0  0.03480  0.90575  0.68158  1.0000
  H   H1741     1.0  0.02691  0.96712  0.78709  1.0000
  C   C998      1.0  0.12019  0.68229  0.87963  1.0000
  H   H1742     1.0  0.00601  0.86584  0.73739  1.0000
  H   H1743     1.0  0.03038  0.85844  0.73078  1.0000
  H   H1744     1.0  0.01828  0.83960  0.76032  1.0000
  H   H1745     1.0  0.03368  0.85240  0.76351  1.0000
  N   N59       1.0  0.18023  0.65359  0.75790  1.0000
  H   H1746     1.0  0.08457  0.87978  0.71567  1.0000
  H   H1747     1.0  0.02678  0.54928  0.49347  1.0000
  H   H1748     1.0  0.08131  0.88536  0.69208  1.0000
  N   N60       1.0  0.01024  0.91562  0.94523  1.0000
  H   H1749     1.0  0.12668  0.95115  0.90987  1.0000
  H   H1750     1.0  0.03717  0.91985  0.73950  1.0000
  H   H1751     1.0  0.12830  0.88392  0.69606  1.0000
  H   H1752     1.0  0.05848  0.68445  0.80970  1.0000
  H   H1753     1.0  0.17578  0.84642  0.61352  1.0000
  C   C999      1.0  0.99200  0.82742  0.81017  1.0000
  H   H1754     1.0  0.14250  0.89437  0.72558  1.0000
  S   S223      1.0  0.99038  0.91682  0.82041  1.0000
  Fe  Fe110     1.0  0.03405  0.89622  0.78745  1.0000
  H   H1755     1.0  0.16944  0.68001  0.76572  1.0000
  C   C1000     1.0  0.03371  0.48524  0.48669  1.0000
  C   C1001     1.0  0.08092  0.92570  0.72257  1.0000
  H   H1756     1.0  0.07255  0.48102  0.47396  1.0000
  H   H1757     1.0  0.12802  0.93422  0.67808  1.0000
  H   H1758     1.0  0.01974  0.85932  0.50619  1.0000
  H   H1759     1.0  0.13769  0.87532  0.80976  1.0000
  H   H1760     1.0  0.10624  0.68713  0.88760  1.0000
  C   C1002     1.0  0.99297  0.73233  0.92786  1.0000
  C   C1003     1.0  0.13466  0.86434  0.82199  1.0000
  C   C1004     1.0  0.00566  0.53756  0.85605  1.0000
  H   H1761     1.0  0.15564  0.94857  0.89599  1.0000
  H   H1762     1.0  0.14318  0.59717  0.89583  1.0000
  H   H1763     1.0  0.98970  0.49346  0.76064  1.0000
  H   H1764     1.0  0.09037  0.88062  0.51952  1.0000
  C   C1005     1.0  0.00194  0.62630  0.79748  1.0000
  C   C1006     1.0  0.99181  0.70363  0.86221  1.0000
  H   H1765     1.0  0.00135  0.62491  0.82579  1.0000
  C   C1007     1.0  0.03660  0.92280  0.47033  1.0000
  N   N61       1.0  0.15255  0.63375  0.87891  1.0000
  H   H1766     1.0  0.14418  0.82954  0.74889  1.0000
  H   H1767     1.0  0.13162  0.56803  0.56159  1.0000
  C   C1008     1.0  0.99905  0.89983  0.62328  1.0000
  S   S224      1.0  0.16133  0.69528  0.82189  1.0000
  H   H1768     1.0  0.10656  0.51881  0.51730  1.0000
  H   H1769     1.0  0.99054  0.91824  0.92811  1.0000
  H   H1770     1.0  0.99875  0.89654  0.57111  1.0000
  C   C1009     1.0  0.15024  0.49072  0.62404  1.0000
  H   H1771     1.0  0.14201  0.53504  0.56320  1.0000
  C   C1010     1.0  0.99463  0.90950  0.94103  1.0000
  H   H1772     1.0  0.12501  0.53091  0.50580  1.0000
  H   H1773     1.0  0.11728  0.54132  0.56578  1.0000
  C   C1011     1.0  0.13055  0.54206  0.55587  1.0000
  H   H1774     1.0  0.16444  0.51370  0.54895  1.0000
  C   C1012     1.0  0.17114  0.54166  0.49485  1.0000
  H   H1775     1.0  0.17255  0.90809  0.83937  1.0000
  C   C1013     1.0  0.01166  0.75645  0.87062  1.0000
  C   C1014     1.0  0.10057  0.49706  0.55572  1.0000
  C   C1015     1.0  0.07635  0.87010  0.50424  1.0000
  H   H1776     1.0  0.15411  0.66237  0.87516  1.0000
  C   C1016     1.0  0.99307  0.48301  0.75190  1.0000
  H   H1777     1.0  0.01370  0.50989  0.52316  1.0000
  H   H1778     1.0  0.14552  0.86005  0.72847  1.0000
  H   H1779     1.0  0.99872  0.82458  0.79669  1.0000
  H   H1780     1.0  0.16917  0.64574  0.72664  1.0000
  H   H1781     1.0  0.98988  0.67646  0.87809  1.0000
  H   H1782     1.0  0.16835  0.87081  0.60577  1.0000
  H   H1783     1.0  0.00162  0.91291  0.62490  1.0000
  S   S225      1.0  0.17887  0.51039  0.48065  1.0000
  C   C1017     1.0  0.98962  0.73937  0.89569  1.0000
  H   H1784     1.0  0.99943  0.89537  0.93810  1.0000
  C   C1018     1.0  0.02741  0.50399  0.70360  1.0000
  H   H1785     1.0  0.18077  0.59647  0.92834  1.0000
  H   H1786     1.0  0.15675  0.93946  0.78287  1.0000
  C   C1019     1.0  0.08486  0.86811  0.52087  1.0000
  H   H1787     1.0  0.13714  0.48726  0.56028  1.0000
  C   C1020     1.0  0.17877  0.85845  0.60251  1.0000
  H   H1788     1.0  0.02086  0.89982  0.50260  1.0000
  H   H1789     1.0  0.02523  0.81481  0.50619  1.0000
  H   H1790     1.0  0.00903  0.89149  0.48956  1.0000
  H   H1791     1.0  0.00470  0.90607  0.59390  1.0000
  H   H1792     1.0  0.07431  0.86664  0.53382  1.0000
  H   H1793     1.0  0.17258  0.83927  0.53882  1.0000
  H   H1794     1.0  0.16280  0.86859  0.52248  1.0000
  H   H1795     1.0  0.02621  0.48645  0.52323  1.0000
  C   C1021     1.0  0.16221  0.95469  0.90374  1.0000
  H   H1796     1.0  0.03844  0.54843  0.46984  1.0000
  H   H1797     1.0  0.08026  0.47553  0.86927  1.0000
  C   C1022     1.0  0.99461  0.73048  0.96108  1.0000
  H   H1798     1.0  0.16626  0.97267  0.81883  1.0000
  H   H1799     1.0  0.11795  0.51501  0.48512  1.0000
  C   C1023     1.0  0.01019  0.96590  0.87746  1.0000
  H   H1800     1.0  0.99737  0.96969  0.78013  1.0000
  C   C1024     1.0  0.10682  0.95717  0.89267  1.0000
  H   H1801     1.0  0.17259  0.94497  0.84361  1.0000
  H   H1802     1.0  0.16096  0.95346  0.71524  1.0000
  H   H1803     1.0  0.17836  0.66657  0.72002  1.0000
  H   H1804     1.0  0.99361  0.50338  0.69208  1.0000
  H   H1805     1.0  0.05935  0.85048  0.51883  1.0000
  C   C1025     1.0  0.17032  0.48767  0.56699  1.0000
  C   C1026     1.0  0.03770  0.80951  0.51239  1.0000
  H   H1806     1.0  0.10163  0.49330  0.54238  1.0000
  H   H1807     1.0  0.11690  0.95202  0.88095  1.0000
  C   C1027     1.0  0.98689  0.84592  0.83319  1.0000
  C   C1028     1.0  0.08832  0.48025  0.85534  1.0000
  H   H1808     1.0  0.05858  0.81936  0.51921  1.0000
  H   H1809     1.0  0.00170  0.94888  0.73590  1.0000
  H   H1810     1.0  0.13196  0.96765  0.92938  1.0000
  H   H1811     1.0  0.10614  0.96702  0.91661  1.0000
  H   H1812     1.0  0.17775  0.83314  0.56137  1.0000
  C   C1029     1.0  0.16866  0.60720  0.92493  1.0000
  H   H1813     1.0  0.01713  0.62131  0.79388  1.0000
  C   C1030     1.0  0.01252  0.49574  0.52327  1.0000
  H   H1814     1.0  0.16376  0.91570  0.78113  1.0000
  H   H1815     1.0  0.18089  0.90895  0.80625  1.0000
  H   H1816     1.0  0.99645  0.94087  0.85384  1.0000
  H   H1817     1.0  0.99045  0.88901  0.60444  1.0000
  C   C1031     1.0  0.05771  0.47850  0.71464  1.0000
  C   C1032     1.0  0.07399  0.85529  0.47209  1.0000
  C   C1033     1.0  0.08025  0.49949  0.56538  1.0000
  H   H1818     1.0  0.00444  0.53031  0.84567  1.0000
  H   H1819     1.0  0.98581  0.73472  0.88476  1.0000
  H   H1820     1.0  0.98834  0.89496  0.63505  1.0000
  H   H1821     1.0  0.12585  0.47992  0.62675  1.0000
  H   H1822     1.0  0.99509  0.53435  0.86866  1.0000
  C   C1034     1.0  0.18469  0.64170  0.86331  1.0000
  H   H1823     1.0  0.13468  0.96478  0.56673  1.0000
  H   H1824     1.0  0.03741  0.86969  0.47627  1.0000
  C   C1035     1.0  0.05346  0.83530  0.49224  1.0000
  H   H1825     1.0  0.99004  0.93240  0.57089  1.0000
  H   H1826     1.0  0.11034  0.48916  0.65684  1.0000
  H   H1827     1.0  0.07530  0.48660  0.56714  1.0000
  H   H1828     1.0  0.99060  0.83392  0.74984  1.0000
  H   H1829     1.0  0.04246  0.83738  0.48426  1.0000
  H   H1830     1.0  0.00834  0.47901  0.74799  1.0000
  H   H1831     1.0  0.00505  0.97231  0.69506  1.0000
  C   C1036     1.0  0.11633  0.48983  0.66831  1.0000
  H   H1832     1.0  0.00419  0.48375  0.47614  1.0000
  C   C1037     1.0  0.18360  0.54385  0.52032  1.0000
  H   H1833     1.0  0.98697  0.96396  0.60469  1.0000
  H   H1834     1.0  0.03979  0.96558  0.96798  1.0000
  H   H1835     1.0  0.18346  0.62171  0.78721  1.0000
  H   H1836     1.0  0.18417  0.61660  0.89818  1.0000
  H   H1837     1.0  0.98573  0.49781  0.54233  1.0000
  C   C1038     1.0  0.98612  0.51040  0.47465  1.0000
  H   H1838     1.0  0.99347  0.96363  0.96804  1.0000
  H   H1839     1.0  0.18484  0.61121  0.49744  1.0000
  H   H1840     1.0  0.18343  0.88863  0.52232  1.0000
  H   H1841     1.0  0.98552  0.95528  0.88149  1.0000
  H   H1842     1.0  0.98566  0.63433  0.85111  1.0000
  C   C1039     1.0  0.18455  0.88851  0.53655  1.0000
  H   H1843     1.0  0.31820  0.41547  0.10785  1.0000
  Fe  Fe111     1.0  0.22167  0.03448  0.08510  1.0000
  S   S226      1.0  0.23564  0.00973  0.07268  1.0000
  S   S227      1.0  0.23651  0.05805  0.07921  1.0000
  Fe  Fe112     1.0  0.20864  0.01257  0.06445  1.0000
  H   H1844     1.0  0.30378  0.40434  0.41536  1.0000
  Fe  Fe113     1.0  0.28025  0.13250  0.14325  1.0000
  S   S228      1.0  0.30352  0.14018  0.12035  1.0000
  S   S229      1.0  0.26399  0.15358  0.16032  1.0000
  Fe  Fe114     1.0  0.28398  0.09567  0.13318  1.0000
  S   S230      1.0  0.30764  0.10033  0.10959  1.0000
  S   S231      1.0  0.27335  0.06930  0.14013  1.0000
  Fe  Fe115     1.0  0.31809  0.11119  0.12879  1.0000
  S   S232      1.0  0.34888  0.10544  0.12671  1.0000
  Fe  Fe116     1.0  0.29104  0.12883  0.10324  1.0000
  S   S233      1.0  0.29034  0.14300  0.07387  1.0000
  S   S234      1.0  0.29580  0.10412  0.15325  1.0000
  S   S235      1.0  0.26636  0.12343  0.12534  1.0000
  Fe  Fe117     1.0  0.26852  0.25879  0.00681  1.0000
  S   S236      1.0  0.28218  0.23662  0.02721  1.0000
  C   C1040     1.0  0.21320  0.44882  0.07002  1.0000
  Fe  Fe118     1.0  0.25373  0.28512  0.03331  1.0000
  S   S237      1.0  0.26541  0.26475  0.05621  1.0000
  S   S238      1.0  0.23852  0.31404  0.03582  1.0000
  Fe  Fe119     1.0  0.29085  0.25924  0.03456  1.0000
  S   S239      1.0  0.31858  0.25401  0.04245  1.0000
  Fe  Fe120     1.0  0.25567  0.24391  0.04705  1.0000
  S   S240      1.0  0.24192  0.22302  0.06880  1.0000
  S   S241      1.0  0.27983  0.28097  0.01209  1.0000
  S   S242      1.0  0.24133  0.26476  0.02614  1.0000
  H   H1845     1.0  0.32534  0.43623  0.39812  1.0000
  H   H1846     1.0  0.32330  0.40176  0.35974  1.0000
  C   C1041     1.0  0.25652  0.31207  0.33012  1.0000
  H   H1847     1.0  0.31730  0.44315  0.35901  1.0000
  S   S243      1.0  0.21279  0.33640  0.25674  1.0000
  H   H1848     1.0  0.35345  0.29795  0.35465  1.0000
  H   H1849     1.0  0.25369  0.10799  0.24724  1.0000
  H   H1850     1.0  0.33451  0.27441  0.97444  1.0000
  H   H1851     1.0  0.19512  0.41104  0.03466  1.0000
  C   C1042     1.0  0.19097  0.40916  0.06385  1.0000
  S   S244      1.0  0.23977  0.40095  0.07753  1.0000
  S   S245      1.0  0.26594  0.38811  0.10868  1.0000
  Fe  Fe121     1.0  0.25068  0.41448  0.09438  1.0000
  S   S246      1.0  0.26171  0.44075  0.08292  1.0000
  Fe  Fe122     1.0  0.25299  0.37441  0.09394  1.0000
  S   S247      1.0  0.27111  0.34940  0.08382  1.0000
  Fe  Fe123     1.0  0.30564  0.22946  0.37497  1.0000
  S   S248      1.0  0.28584  0.23523  0.35575  1.0000
  H   H1852     1.0  0.30284  0.29324  0.97454  1.0000
  S   S249      1.0  0.31628  0.18254  0.43262  1.0000
  S   S250      1.0  0.29531  0.23159  0.40466  1.0000
  Fe  Fe124     1.0  0.27571  0.17001  0.25136  1.0000
  S   S251      1.0  0.27425  0.15572  0.28087  1.0000
  S   S252      1.0  0.29401  0.15433  0.22993  1.0000
  Fe  Fe125     1.0  0.25104  0.20480  0.26168  1.0000
  S   S253      1.0  0.24746  0.19351  0.29209  1.0000
  S   S254      1.0  0.23705  0.23274  0.24856  1.0000
  Fe  Fe126     1.0  0.27787  0.18206  0.28577  1.0000
  S   S255      1.0  0.29796  0.17860  0.30411  1.0000
  Fe  Fe127     1.0  0.24404  0.16815  0.28483  1.0000
  S   S256      1.0  0.22399  0.15096  0.30360  1.0000
  S   S257      1.0  0.28189  0.19550  0.25579  1.0000
  S   S258      1.0  0.24511  0.18025  0.25484  1.0000
  Fe  Fe128     1.0  0.24763  0.42044  0.33888  1.0000
  S   S259      1.0  0.25033  0.41294  0.36852  1.0000
  S   S260      1.0  0.22231  0.41452  0.33328  1.0000
  Fe  Fe129     1.0  0.28374  0.43395  0.32572  1.0000
  S   S261      1.0  0.28904  0.42781  0.35413  1.0000
  H   H1853     1.0  0.30329  0.43019  0.14373  1.0000
  Fe  Fe130     1.0  0.27990  0.40152  0.35755  1.0000
  S   S262      1.0  0.29650  0.37434  0.36902  1.0000
  Fe  Fe131     1.0  0.25908  0.44004  0.36255  1.0000
  H   H1854     1.0  0.21453  0.09794  0.97115  1.0000
  S   S263      1.0  0.27658  0.40661  0.32844  1.0000
  S   S264      1.0  0.25429  0.44863  0.33351  1.0000
  C   C1043     1.0  0.32347  0.37886  0.41405  1.0000
  C   C1044     1.0  0.30026  0.39111  0.39511  1.0000
  C   C1045     1.0  0.30665  0.37599  0.38653  1.0000
  C   C1046     1.0  0.32144  0.36228  0.39173  1.0000
  C   C1047     1.0  0.32980  0.36366  0.40557  1.0000
  H   H1855     1.0  0.28874  0.40166  0.39127  1.0000
  H   H1856     1.0  0.32648  0.35060  0.38505  1.0000
  H   H1857     1.0  0.34116  0.35302  0.40959  1.0000
  C   C1048     1.0  0.24331  0.39123  0.28837  1.0000
  C   C1049     1.0  0.24165  0.40042  0.30261  1.0000
  C   C1050     1.0  0.22502  0.40291  0.31540  1.0000
  H   H1858     1.0  0.25616  0.38938  0.27845  1.0000
  H   H1859     1.0  0.25312  0.40579  0.30353  1.0000
  C   C1051     1.0  0.21041  0.36649  0.20873  1.0000
  C   C1052     1.0  0.19880  0.14855  0.46732  1.0000
  H   H1860     1.0  0.21535  0.11803  0.22047  1.0000
  C   C1053     1.0  0.31105  0.45397  0.16263  1.0000
  H   H1861     1.0  0.22113  0.17039  0.23576  1.0000
  H   H1862     1.0  0.36763  0.42142  0.10535  1.0000
  C   C1054     1.0  0.22976  0.24945  0.26225  1.0000
  C   C1055     1.0  0.23321  0.24577  0.28003  1.0000
  C   C1056     1.0  0.22666  0.25931  0.29079  1.0000
  C   C1057     1.0  0.21684  0.27660  0.28370  1.0000
  C   C1058     1.0  0.21362  0.28037  0.26585  1.0000
  C   C1059     1.0  0.22001  0.26674  0.25520  1.0000
  H   H1863     1.0  0.24100  0.23259  0.28548  1.0000
  H   H1864     1.0  0.20121  0.22716  0.24609  1.0000
  H   H1865     1.0  0.21726  0.26938  0.24153  1.0000
  H   H1866     1.0  0.30687  0.45881  0.22286  1.0000
  C   C1060     1.0  0.33891  0.26444  0.42785  1.0000
  H   H1867     1.0  0.24548  0.40956  0.17453  1.0000
  H   H1868     1.0  0.33633  0.25078  0.42999  1.0000
  C   C1061     1.0  0.28857  0.21917  0.34187  1.0000
  C   C1062     1.0  0.27876  0.22357  0.32759  1.0000
  C   C1063     1.0  0.28119  0.21110  0.31605  1.0000
  C   C1064     1.0  0.29349  0.19422  0.31879  1.0000
  C   C1065     1.0  0.30295  0.18971  0.33328  1.0000
  C   C1066     1.0  0.30048  0.20210  0.34482  1.0000
  H   H1869     1.0  0.26942  0.23671  0.32531  1.0000
  H   H1870     1.0  0.27381  0.21467  0.30490  1.0000
  H   H1871     1.0  0.31202  0.17648  0.33569  1.0000
  H   H1872     1.0  0.30766  0.19838  0.35607  1.0000
  C   C1067     1.0  0.31123  0.44499  0.10404  1.0000
  C   C1068     1.0  0.30862  0.42779  0.10321  1.0000
  C   C1069     1.0  0.29350  0.42640  0.09670  1.0000
  C   C1070     1.0  0.28102  0.44223  0.09074  1.0000
  C   C1071     1.0  0.28390  0.45950  0.09111  1.0000
  C   C1072     1.0  0.29891  0.46089  0.09789  1.0000
  H   H1873     1.0  0.29161  0.41308  0.09613  1.0000
  H   H1874     1.0  0.20737  0.44828  0.04432  1.0000
  S   S265      1.0  0.37776  0.34095  0.42191  1.0000
  C   C1073     1.0  0.33304  0.30748  0.05075  1.0000
  C   C1074     1.0  0.21776  0.16570  0.22463  1.0000
  H   H1875     1.0  0.32486  0.45097  0.24483  1.0000
  H   H1876     1.0  0.22149  0.19893  0.05869  1.0000
  C   C1075     1.0  0.24496  0.21200  0.99129  1.0000
  H   H1877     1.0  0.25154  0.20874  0.43756  1.0000
  C   C1076     1.0  0.26470  0.44372  0.14494  1.0000
  H   H1878     1.0  0.30124  0.32036  0.34468  1.0000
  H   H1879     1.0  0.21938  0.19339  0.45512  1.0000
  C   C1077     1.0  0.19123  0.14180  0.45410  1.0000
  H   H1880     1.0  0.33327  0.13995  0.20936  1.0000
  C   C1078     1.0  0.37673  0.03722  0.18005  1.0000
  H   H1881     1.0  0.27419  0.44008  0.28749  1.0000
  H   H1882     1.0  0.35481  0.21124  0.99105  1.0000
  C   C1079     1.0  0.35224  0.45291  0.04778  1.0000
  H   H1883     1.0  0.28955  0.21443  0.44245  1.0000
  C   C1080     1.0  0.20395  0.06438  0.97814  1.0000
  H   H1884     1.0  0.22271  0.18109  0.33926  1.0000
  S   S266      1.0  0.21132  0.01801  0.11280  1.0000
  C   C1081     1.0  0.24772  0.32401  0.04896  1.0000
  C   C1082     1.0  0.26316  0.31435  0.05642  1.0000
  C   C1083     1.0  0.27002  0.32217  0.06736  1.0000
  C   C1084     1.0  0.26159  0.33974  0.07079  1.0000
  C   C1085     1.0  0.24633  0.34958  0.06314  1.0000
  C   C1086     1.0  0.23950  0.34176  0.05212  1.0000
  H   H1885     1.0  0.26986  0.30086  0.05376  1.0000
  H   H1886     1.0  0.28178  0.31453  0.07331  1.0000
  H   H1887     1.0  0.23989  0.36326  0.06557  1.0000
  H   H1888     1.0  0.22790  0.34954  0.04604  1.0000
  H   H1889     1.0  0.33964  0.29826  0.98752  1.0000
  H   H1890     1.0  0.22688  0.03983  0.03769  1.0000
  C   C1087     1.0  0.33017  0.27916  0.01193  1.0000
  C   C1088     1.0  0.33509  0.26575  0.02688  1.0000
  C   C1089     1.0  0.35344  0.26145  0.02926  1.0000
  C   C1090     1.0  0.19395  0.01502  0.00665  1.0000
  C   C1091     1.0  0.34479  0.21833  0.00154  1.0000
  H   H1891     1.0  0.31611  0.28269  0.01010  1.0000
  H   H1892     1.0  0.27195  0.12267  0.02709  1.0000
  S   S267      1.0  0.34897  0.33243  0.46172  1.0000
  C   C1092     1.0  0.27282  0.15411  0.17923  1.0000
  C   C1093     1.0  0.28868  0.14168  0.18358  1.0000
  C   C1094     1.0  0.29506  0.14189  0.19917  1.0000
  C   C1095     1.0  0.28561  0.15450  0.21050  1.0000
  C   C1096     1.0  0.26983  0.16705  0.20607  1.0000
  C   C1097     1.0  0.26354  0.16693  0.19037  1.0000
  H   H1893     1.0  0.29598  0.13183  0.17499  1.0000
  H   H1894     1.0  0.30724  0.13209  0.20252  1.0000
  H   H1895     1.0  0.26261  0.17697  0.21460  1.0000
  H   H1896     1.0  0.25137  0.17669  0.18691  1.0000
  C   C1098     1.0  0.35760  0.10261  0.14660  1.0000
  C   C1099     1.0  0.34610  0.10181  0.16405  1.0000
  C   C1100     1.0  0.35375  0.09894  0.17968  1.0000
  C   C1101     1.0  0.24401  0.20941  0.97407  1.0000
  H   H1897     1.0  0.24857  0.00702  0.14291  1.0000
  H   H1898     1.0  0.35049  0.20272  0.46523  1.0000
  H   H1899     1.0  0.33136  0.10336  0.16551  1.0000
  H   H1900     1.0  0.34482  0.09833  0.19315  1.0000
  H   H1901     1.0  0.29049  0.30176  0.37597  1.0000
  C   C1102     1.0  0.29748  0.18517  0.45117  1.0000
  C   C1103     1.0  0.27581  0.16471  0.07210  1.0000
  C   C1104     1.0  0.26235  0.16950  0.08716  1.0000
  C   C1105     1.0  0.25123  0.18715  0.08566  1.0000
  C   C1106     1.0  0.25406  0.20027  0.06939  1.0000
  C   C1107     1.0  0.26700  0.19522  0.05410  1.0000
  C   C1108     1.0  0.27779  0.17742  0.05541  1.0000
  H   H1902     1.0  0.26050  0.15964  0.09998  1.0000
  H   H1903     1.0  0.24073  0.19074  0.09726  1.0000
  H   H1904     1.0  0.26852  0.20490  0.04119  1.0000
  H   H1905     1.0  0.28801  0.17363  0.04364  1.0000
  C   C1109     1.0  0.19408  0.37998  0.00120  1.0000
  C   C1110     1.0  0.33501  0.34616  0.01913  1.0000
  H   H1906     1.0  0.22731  0.14240  0.25998  1.0000
  H   H1907     1.0  0.26867  0.34114  0.33350  1.0000
  C   C1111     1.0  0.26471  0.42561  0.17700  1.0000
  C   C1112     1.0  0.24597  0.06134  0.09663  1.0000
  C   C1113     1.0  0.25551  0.07573  0.09280  1.0000
  C   C1114     1.0  0.26371  0.07845  0.10616  1.0000
  C   C1115     1.0  0.26247  0.06669  0.12345  1.0000
  C   C1116     1.0  0.25292  0.05228  0.12730  1.0000
  C   C1117     1.0  0.24468  0.04961  0.11394  1.0000
  H   H1908     1.0  0.25653  0.08480  0.07945  1.0000
  H   H1909     1.0  0.27108  0.08956  0.10305  1.0000
  H   H1910     1.0  0.25192  0.04316  0.14066  1.0000
  H   H1911     1.0  0.23742  0.03845  0.11701  1.0000
  H   H1912     1.0  0.19663  0.11130  0.37439  1.0000
  H   H1913     1.0  0.19967  0.34179  0.05098  1.0000
  S   S268      1.0  0.37421  0.28794  0.44136  1.0000
  C   C1118     1.0  0.29364  0.16980  0.46483  1.0000
  H   H1914     1.0  0.31466  0.45362  0.06155  1.0000
  H   H1915     1.0  0.26488  0.32660  0.24256  1.0000
  C   C1119     1.0  0.19221  0.21554  0.31578  1.0000
  C   C1120     1.0  0.31502  0.46113  0.30276  1.0000
  H   H1916     1.0  0.25354  0.22803  0.00593  1.0000
  C   C1121     1.0  0.29341  0.43249  0.15677  1.0000
  C   C1122     1.0  0.20225  0.19559  0.32269  1.0000
  H   H1917     1.0  0.27460  0.44952  0.13278  1.0000
  N   N62       1.0  0.27504  0.42801  0.15724  1.0000
  C   C1123     1.0  0.27165  0.20443  0.46759  1.0000
  C   C1124     1.0  0.35203  0.41249  0.37771  1.0000
  H   H1918     1.0  0.32285  0.97903  0.10986  1.0000
  C   C1125     1.0  0.20224  0.30827  0.21007  1.0000
  C   C1126     1.0  0.26104  0.34070  0.30767  1.0000
  H   H1919     1.0  0.33444  0.20958  0.00871  1.0000
  H   H1920     1.0  0.28098  0.38858  0.17441  1.0000
  H   H1921     1.0  0.23035  0.46513  0.13754  1.0000
  C   C1127     1.0  0.34609  0.14103  0.37351  1.0000
  H   H1922     1.0  0.23342  0.05460  0.97961  1.0000
  H   H1923     1.0  0.19501  0.08820  0.38405  1.0000
  H   H1924     1.0  0.34529  0.45870  0.06036  1.0000
  H   H1925     1.0  0.22828  0.44414  0.06529  1.0000
  H   H1926     1.0  0.19237  0.18666  0.33073  1.0000
  H   H1927     1.0  0.36589  0.26374  0.39617  1.0000
  C   C1128     1.0  0.32062  0.44518  0.38568  1.0000
  C   C1129     1.0  0.35649  0.46338  0.23980  1.0000
  H   H1928     1.0  0.22934  0.45346  0.12020  1.0000
  H   H1929     1.0  0.35440  0.16260  0.22853  1.0000
  H   H1930     1.0  0.25776  0.45515  0.15238  1.0000
  N   N63       1.0  0.33014  0.23877  0.97433  1.0000
  H   H1931     1.0  0.23125  0.16455  0.06938  1.0000
  H   H1932     1.0  0.20656  0.39995  0.97928  1.0000
  C   C1130     1.0  0.23034  0.33874  0.32639  1.0000
  C   C1131     1.0  0.34746  0.45843  0.34177  1.0000
  H   H1933     1.0  0.19105  0.31561  0.04272  1.0000
  H   H1934     1.0  0.36839  0.40015  0.46195  1.0000
  H   H1935     1.0  0.30590  0.25958  0.98053  1.0000
  C   C1132     1.0  0.24316  0.32153  0.30143  1.0000
  H   H1936     1.0  0.23226  0.10511  0.23316  1.0000
  C   C1133     1.0  0.24617  0.11637  0.25773  1.0000
  H   H1937     1.0  0.18552  0.15355  0.44391  1.0000
  C   C1134     1.0  0.22474  0.06028  0.96907  1.0000
  H   H1938     1.0  0.25948  0.44678  0.27074  1.0000
  H   H1939     1.0  0.31406  0.33056  0.35508  1.0000
  C   C1135     1.0  0.35601  0.28502  0.43288  1.0000
  C   C1136     1.0  0.32421  0.43421  0.37022  1.0000
  H   H1940     1.0  0.31306  0.44541  0.17627  1.0000
  H   H1941     1.0  0.26963  0.10830  0.27123  1.0000
  C   C1137     1.0  0.22819  0.14374  0.03272  1.0000
  H   H1942     1.0  0.19677  0.32132  0.20116  1.0000
  C   C1138     1.0  0.23790  0.41549  0.20152  1.0000
  Fe  Fe132     1.0  0.35552  0.35717  0.44026  1.0000
  H   H1943     1.0  0.36287  0.03362  0.18460  1.0000
  H   H1944     1.0  0.29442  0.46222  0.37960  1.0000
  Fe  Fe133     1.0  0.22307  0.99350  0.09949  1.0000
  C   C1139     1.0  0.25031  0.43935  0.13628  1.0000
  H   H1945     1.0  0.25396  0.31602  0.34371  1.0000
  C   C1140     1.0  0.25494  0.30007  0.27848  1.0000
  H   H1946     1.0  0.31969  0.30617  0.35560  1.0000
  C   C1141     1.0  0.19975  0.09730  0.97707  1.0000
  H   H1947     1.0  0.27103  0.97983  0.11801  1.0000
  H   H1948     1.0  0.36540  0.22842  0.00954  1.0000
  S   S269      1.0  0.22793  0.37179  0.11644  1.0000
  H   H1949     1.0  0.21874  0.08943  0.33421  1.0000
  C   C1142     1.0  0.28885  0.44579  0.25888  1.0000
  N   N64       1.0  0.24773  0.32781  0.31665  1.0000
  H   H1950     1.0  0.24346  0.30753  0.27130  1.0000
  C   C1143     1.0  0.20277  0.15242  0.29778  1.0000
  C   C1144     1.0  0.26457  0.12157  0.04164  1.0000
  H   H1951     1.0  0.20867  0.36626  0.02345  1.0000
  H   H1952     1.0  0.22926  0.25639  0.30458  1.0000
  H   H1953     1.0  0.34324  0.24780  0.99172  1.0000
  N   N65       1.0  0.21871  0.13119  0.24102  1.0000
  H   H1954     1.0  0.23635  0.37544  0.19844  1.0000
  H   H1955     1.0  0.25369  0.12879  0.27669  1.0000
  Fe  Fe134     1.0  0.34604  0.22353  0.37735  1.0000
  H   H1956     1.0  0.19717  0.39818  0.32374  1.0000
  H   H1957     1.0  0.33640  0.42799  0.33684  1.0000
  C   C1145     1.0  0.24772  0.20096  0.42912  1.0000
  H   H1958     1.0  0.18773  0.25158  0.27930  1.0000
  C   C1146     1.0  0.26556  0.99407  0.12027  1.0000
  C   C1147     1.0  0.22416  0.37448  0.17629  1.0000
  H   H1959     1.0  0.30000  0.42304  0.16797  1.0000
  H   H1960     1.0  0.23806  0.10789  0.26931  1.0000
  C   C1148     1.0  0.29431  0.32676  0.99891  1.0000
  H   H1961     1.0  0.37082  0.23296  0.97209  1.0000
  H   H1962     1.0  0.31087  0.32851  0.06137  1.0000
  C   C1149     1.0  0.21178  0.38690  0.29976  1.0000
  H   H1963     1.0  0.22154  0.13775  0.04691  1.0000
  H   H1964     1.0  0.34136  0.35350  0.02595  1.0000
  Fe  Fe135     1.0  0.31859  0.20761  0.40985  1.0000
  C   C1150     1.0  0.25480  0.99301  0.14013  1.0000
  H   H1965     1.0  0.33274  0.33455  0.05454  1.0000
  C   C1151     1.0  0.25676  0.28010  0.35026  1.0000
  C   C1152     1.0  0.19783  0.34110  0.34556  1.0000
  C   C1153     1.0  0.21273  0.15590  0.02259  1.0000
  C   C1154     1.0  0.30413  0.35632  0.03646  1.0000
  C   C1155     1.0  0.24142  0.12625  0.21025  1.0000
  H   H1966     1.0  0.23342  0.34496  0.33660  1.0000
  H   H1967     1.0  0.28560  0.36653  0.32105  1.0000
  H   H1968     1.0  0.31922  0.31598  0.02073  1.0000
  H   H1969     1.0  0.37170  0.41915  0.04048  1.0000
  C   C1156     1.0  0.25004  0.11179  0.19832  1.0000
  H   H1970     1.0  0.20047  0.45414  0.98850  1.0000
  H   H1971     1.0  0.37403  0.46601  0.32801  1.0000
  C   C1157     1.0  0.30846  0.36737  0.04881  1.0000
  C   C1158     1.0  0.22470  0.37255  0.19482  1.0000
  H   H1972     1.0  0.28039  0.36939  0.29871  1.0000
  H   H1973     1.0  0.21073  0.32092  0.32880  1.0000
  H   H1974     1.0  0.32886  0.22410  0.32636  1.0000
  H   H1975     1.0  0.34923  0.42536  0.08133  1.0000
  C   C1159     1.0  0.21407  0.15976  0.45678  1.0000
  C   C1160     1.0  0.23364  0.13405  0.24915  1.0000
  H   H1976     1.0  0.25283  0.12926  0.21483  1.0000
  C   C1161     1.0  0.35506  0.28470  0.36470  1.0000
  H   H1977     1.0  0.26400  0.98555  0.14994  1.0000
  H   H1978     1.0  0.34436  0.30429  0.05850  1.0000
  H   H1979     1.0  0.34526  0.22485  0.02745  1.0000
  H   H1980     1.0  0.28154  0.45709  0.16945  1.0000
  H   H1981     1.0  0.21066  0.18919  0.31106  1.0000
  H   H1982     1.0  0.35595  0.20799  0.30674  1.0000
  H   H1983     1.0  0.35206  0.41900  0.38913  1.0000
  C   C1162     1.0  0.32345  0.32811  0.05012  1.0000
  C   C1163     1.0  0.30169  0.98804  0.09256  1.0000
  H   H1984     1.0  0.33061  0.35656  0.00721  1.0000
  C   C1164     1.0  0.34296  0.15483  0.23339  1.0000
  H   H1985     1.0  0.22319  0.08328  0.35724  1.0000
  C   C1165     1.0  0.28280  0.35926  0.31150  1.0000
  H   H1986     1.0  0.29515  0.34849  0.30815  1.0000
  H   H1987     1.0  0.27185  0.30918  0.32564  1.0000
  C   C1166     1.0  0.34290  0.22657  0.32514  1.0000
  C   C1167     1.0  0.23138  0.18234  0.45833  1.0000
  H   H1988     1.0  0.36120  0.19473  0.34709  1.0000
  N   N66       1.0  0.34412  0.42659  0.36258  1.0000
  C   C1168     1.0  0.29399  0.38509  0.05021  1.0000
  H   H1989     1.0  0.27316  0.33442  0.21832  1.0000
  H   H1990     1.0  0.20007  0.05121  0.98629  1.0000
  C   C1169     1.0  0.33177  0.17682  0.25553  1.0000
  H   H1991     1.0  0.19615  0.15462  0.24397  1.0000
  C   C1170     1.0  0.33745  0.40002  0.35141  1.0000
  C   C1171     1.0  0.30872  0.39258  0.40879  1.0000
  H   H1992     1.0  0.20192  0.12813  0.26861  1.0000
  H   H1993     1.0  0.33974  0.30397  0.03719  1.0000
  C   C1172     1.0  0.20901  0.37087  0.17165  1.0000
  H   H1994     1.0  0.24649  0.16802  0.00487  1.0000
  H   H1995     1.0  0.20279  0.17840  0.20239  1.0000
  H   H1996     1.0  0.34633  0.38868  0.35931  1.0000
  C   C1173     1.0  0.31873  0.22440  0.97692  1.0000
  C   C1174     1.0  0.19561  0.36218  0.20415  1.0000
  H   H1997     1.0  0.26047  0.11710  0.18650  1.0000
  H   H1998     1.0  0.30835  0.35919  0.06301  1.0000
  H   H1999     1.0  0.25709  0.09899  0.20636  1.0000
  N   N67       1.0  0.28858  0.21057  0.10535  1.0000
  C   C1175     1.0  0.29378  0.19681  0.09294  1.0000
  C   C1176     1.0  0.26797  0.21359  0.11274  1.0000
  C   C1177     1.0  0.29292  0.22860  0.09352  1.0000
  C   C1178     1.0  0.29908  0.20487  0.12090  1.0000
  C   C1179     1.0  0.30449  0.18388  0.12865  1.0000
  C   C1180     1.0  0.31398  0.19456  0.08175  1.0000
  C   C1181     1.0  0.28648  0.24550  0.10294  1.0000
  C   C1182     1.0  0.26038  0.19712  0.12606  1.0000
  C   C1183     1.0  0.23939  0.20203  0.13227  1.0000
  C   C1184     1.0  0.31042  0.18011  0.14709  1.0000
  C   C1185     1.0  0.31993  0.17698  0.07405  1.0000
  C   C1186     1.0  0.29594  0.26137  0.09182  1.0000
  H   H2000     1.0  0.28471  0.20093  0.08266  1.0000
  H   H2001     1.0  0.29115  0.18310  0.10067  1.0000
  H   H2002     1.0  0.26346  0.22475  0.12068  1.0000
  H   H2003     1.0  0.26046  0.21819  0.10109  1.0000
  H   H2004     1.0  0.28671  0.23223  0.08102  1.0000
  H   H2005     1.0  0.30808  0.22731  0.08826  1.0000
  H   H2006     1.0  0.31227  0.20997  0.11660  1.0000
  H   H2007     1.0  0.29105  0.21158  0.13260  1.0000
  H   H2008     1.0  0.31623  0.17739  0.11894  1.0000
  H   H2009     1.0  0.29310  0.17660  0.13080  1.0000
  H   H2010     1.0  0.31517  0.20628  0.06983  1.0000
  H   H2011     1.0  0.32387  0.19440  0.09022  1.0000
  H   H2012     1.0  0.28953  0.24198  0.11696  1.0000
  H   H2013     1.0  0.27137  0.25063  0.10394  1.0000
  H   H2014     1.0  0.26375  0.18497  0.11958  1.0000
  H   H2015     1.0  0.26605  0.19342  0.13878  1.0000
  H   H2016     1.0  0.23250  0.20734  0.12030  1.0000
  H   H2017     1.0  0.23422  0.18956  0.14067  1.0000
  H   H2018     1.0  0.23559  0.21264  0.14086  1.0000
  H   H2019     1.0  0.32222  0.18673  0.14572  1.0000
  H   H2020     1.0  0.29869  0.18525  0.15769  1.0000
  H   H2021     1.0  0.31476  0.16505  0.15183  1.0000
  H   H2022     1.0  0.33448  0.17575  0.06641  1.0000
  H   H2023     1.0  0.31896  0.16469  0.08531  1.0000
  H   H2024     1.0  0.31115  0.17727  0.06441  1.0000
  H   H2025     1.0  0.31111  0.25734  0.09097  1.0000
  H   H2026     1.0  0.29315  0.26548  0.07766  1.0000
  H   H2027     1.0  0.29056  0.27344  0.09853  1.0000
  H   H2028     1.0  0.23508  0.13876  0.20129  1.0000
  H   H2029     1.0  0.32212  0.37129  0.04330  1.0000
  N   N68       1.0  0.31849  0.33951  0.03219  1.0000
  H   H2030     1.0  0.20691  0.17241  0.44853  1.0000
  H   H2031     1.0  0.21632  0.04489  0.00888  1.0000
  H   H2032     1.0  0.32299  0.44948  0.15191  1.0000
  H   H2033     1.0  0.37105  0.13867  0.25518  1.0000
  H   H2034     1.0  0.26936  0.12953  0.25450  1.0000
  H   H2035     1.0  0.30898  0.29575  0.05307  1.0000
  H   H2036     1.0  0.22384  0.41258  0.20382  1.0000
  H   H2037     1.0  0.23075  0.16181  0.21496  1.0000
  C   C1187     1.0  0.28649  0.20248  0.45266  1.0000
  H   H2038     1.0  0.21927  0.10718  0.34550  1.0000
  C   C1188     1.0  0.30283  0.33906  0.00591  1.0000
  H   H2039     1.0  0.29056  0.35241  0.04339  1.0000
  C   C1189     1.0  0.27901  0.41059  0.14991  1.0000
  C   C1190     1.0  0.36691  0.27013  0.01633  1.0000
  H   H2040     1.0  0.34762  0.31370  0.42133  1.0000
  C   C1191     1.0  0.37019  0.41104  0.09668  1.0000
  C   C1192     1.0  0.33366  0.15710  0.25341  1.0000
  H   H2041     1.0  0.31787  0.46322  0.03715  1.0000
  H   H2042     1.0  0.35747  0.13701  0.17248  1.0000
  H   H2043     1.0  0.37219  0.14606  0.34416  1.0000
  H   H2044     1.0  0.32201  0.24154  0.00291  1.0000
  C   C1193     1.0  0.26582  0.35073  0.32063  1.0000
  H   H2045     1.0  0.33171  0.38088  0.33803  1.0000
  S   S270      1.0  0.33934  0.22485  0.40727  1.0000
  H   H2046     1.0  0.27131  0.30458  0.29539  1.0000
  H   H2047     1.0  0.28911  0.33449  0.98628  1.0000
  S   S271      1.0  0.31103  0.27602  0.40822  1.0000
  S   S272      1.0  0.19323  0.34374  0.29828  1.0000
  H   H2048     1.0  0.34606  0.32265  0.00508  1.0000
  C   C1194     1.0  0.21497  0.32808  0.33747  1.0000
  C   C1195     1.0  0.26059  0.12111  0.26548  1.0000
  C   C1196     1.0  0.37922  0.04936  0.16041  1.0000
  C   C1197     1.0  0.35792  0.17125  0.31562  1.0000
  C   C1198     1.0  0.35893  0.15095  0.31487  1.0000
  C   C1199     1.0  0.34608  0.15884  0.35904  1.0000
  C   C1200     1.0  0.35247  0.14980  0.29793  1.0000
  C   C1201     1.0  0.37217  0.40214  0.37215  1.0000
  C   C1202     1.0  0.30975  0.32878  0.02386  1.0000
  H   H2049     1.0  0.20714  0.33705  0.01945  1.0000
  H   H2050     1.0  0.34136  0.19249  0.34035  1.0000
  H   H2051     1.0  0.34295  0.17775  0.31752  1.0000
  H   H2052     1.0  0.27200  0.47249  0.22948  1.0000
  H   H2053     1.0  0.34106  0.17036  0.36651  1.0000
  H   H2054     1.0  0.33610  0.15978  0.35041  1.0000
  H   H2055     1.0  0.36152  0.15561  0.28511  1.0000
  H   H2056     1.0  0.35298  0.13521  0.29787  1.0000
  H   H2057     1.0  0.33800  0.15742  0.29814  1.0000
  H   H2058     1.0  0.18689  0.29500  0.02497  1.0000
  H   H2059     1.0  0.30218  0.15638  0.46379  1.0000
  S   S273      1.0  0.37439  0.22315  0.35921  1.0000
  N   N69       1.0  0.34980  0.13546  0.22981  1.0000
  C   C1203     1.0  0.33776  0.12268  0.24265  1.0000
  H   H2060     1.0  0.35708  0.44655  0.36753  1.0000
  C   C1204     1.0  0.36985  0.12872  0.23116  1.0000
  C   C1205     1.0  0.37416  0.12544  0.25056  1.0000
  C   C1206     1.0  0.34290  0.10240  0.24020  1.0000
  H   H2061     1.0  0.20327  0.22362  0.30910  1.0000
  Fe  Fe136     1.0  0.33311  0.47407  0.11442  1.0000
  N   N70       1.0  0.37226  0.44425  0.04855  1.0000
  C   C1207     1.0  0.33057  0.09074  0.25492  1.0000
  H   H2062     1.0  0.32318  0.12799  0.24109  1.0000
  H   H2063     1.0  0.33750  0.12228  0.25725  1.0000
  H   H2064     1.0  0.29069  0.11846  0.04981  1.0000
  H   H2065     1.0  0.31118  0.44118  0.04610  1.0000
  H   H2066     1.0  0.28731  0.44385  0.24552  1.0000
  H   H2067     1.0  0.36622  0.11571  0.26072  1.0000
  H   H2068     1.0  0.19249  0.35207  0.33453  1.0000
  H   H2069     1.0  0.34609  0.45421  0.32943  1.0000
  H   H2070     1.0  0.35744  0.09618  0.24133  1.0000
  H   H2071     1.0  0.31956  0.15399  0.25685  1.0000
  H   H2072     1.0  0.34141  0.14787  0.26370  1.0000
  H   H2073     1.0  0.36783  0.47010  0.23076  1.0000
  H   H2074     1.0  0.32770  0.45701  0.38111  1.0000
  H   H2075     1.0  0.25755  0.43122  0.12550  1.0000
  H   H2076     1.0  0.19324  0.43795  0.00901  1.0000
  C   C1208     1.0  0.19391  0.13206  0.97193  1.0000
  H   H2077     1.0  0.35323  0.27383  0.35846  1.0000
  H   H2078     1.0  0.33249  0.09055  0.26887  1.0000
  H   H2079     1.0  0.31581  0.09625  0.25411  1.0000
  H   H2080     1.0  0.33429  0.07640  0.25268  1.0000
  C   C1209     1.0  0.32110  0.05061  0.15903  1.0000
  H   H2081     1.0  0.35427  0.02638  0.16172  1.0000
  H   H2082     1.0  0.34144  0.05795  0.16916  1.0000
  H   H2083     1.0  0.31864  0.04871  0.14598  1.0000
  H   H2084     1.0  0.31960  0.03802  0.16979  1.0000
  H   H2085     1.0  0.31033  0.06220  0.16355  1.0000
  S   S274      1.0  0.32495  0.24873  0.36972  1.0000
  H   H2086     1.0  0.23352  0.31187  0.30699  1.0000
  S   S275      1.0  0.23108  0.37214  0.26965  1.0000
  Fe  Fe137     1.0  0.31676  0.24863  0.39987  1.0000
  H   H2087     1.0  0.29220  0.44133  0.39658  1.0000
  C   C1210     1.0  0.20755  0.14946  0.23310  1.0000
  H   H2088     1.0  0.23540  0.33337  0.29276  1.0000
  S   S276      1.0  0.19552  0.03874  0.07466  1.0000
  H   H2089     1.0  0.26575  0.32376  0.27737  1.0000
  H   H2090     1.0  0.36203  0.40032  0.10420  1.0000
  H   H2091     1.0  0.19880  0.36951  0.99246  1.0000
  H   H2092     1.0  0.21100  0.36495  0.22299  1.0000
  Fe  Fe138     1.0  0.18633  0.02014  0.10146  1.0000
  H   H2093     1.0  0.29196  0.20660  0.97539  1.0000
  C   C1211     1.0  0.34811  0.13610  0.21041  1.0000
  H   H2094     1.0  0.38190  0.41165  0.36899  1.0000
  H   H2095     1.0  0.19041  0.11224  0.24066  1.0000
  H   H2096     1.0  0.21249  0.16141  0.06096  1.0000
  H   H2097     1.0  0.29772  0.32418  0.03407  1.0000
  H   H2098     1.0  0.21858  0.16263  0.00845  1.0000
  H   H2099     1.0  0.34480  0.23905  0.31435  1.0000
  H   H2100     1.0  0.27439  0.47182  0.08635  1.0000
  H   H2101     1.0  0.20734  0.17223  0.27255  1.0000
  H   H2102     1.0  0.35903  0.41556  0.33824  1.0000
  H   H2103     1.0  0.29625  0.17062  0.99076  1.0000
  H   H2104     1.0  0.30265  0.39559  0.16323  1.0000
  H   H2105     1.0  0.23555  0.29464  0.33531  1.0000
  H   H2106     1.0  0.25062  0.28800  0.28866  1.0000
  N   N71       1.0  0.19812  0.07891  0.98969  1.0000
  H   H2107     1.0  0.26704  0.29500  0.26821  1.0000
  H   H2108     1.0  0.27435  0.33315  0.30078  1.0000
  H   H2109     1.0  0.20194  0.19481  0.05221  1.0000
  H   H2110     1.0  0.31366  0.29657  0.07489  1.0000
  C   C1212     1.0  0.32171  0.46527  0.24715  1.0000
  C   C1213     1.0  0.37441  0.43598  0.06811  1.0000
  H   H2111     1.0  0.27192  0.27808  0.34904  1.0000
  H   H2112     1.0  0.23934  0.10860  0.19276  1.0000
  C   C1214     1.0  0.26010  0.31270  0.28812  1.0000
  H   H2113     1.0  0.36740  0.40912  0.07017  1.0000
  S   S277      1.0  0.23398  0.19136  0.97313  1.0000
  H   H2114     1.0  0.23700  0.42672  0.20867  1.0000
  H   H2115     1.0  0.21978  0.31786  0.34924  1.0000
  H   H2116     1.0  0.23545  0.43337  0.17550  1.0000
  H   H2117     1.0  0.25715  0.28661  0.32136  1.0000
  H   H2118     1.0  0.20703  0.20034  0.34789  1.0000
  C   C1215     1.0  0.23878  0.45698  0.12712  1.0000
  H   H2119     1.0  0.34398  0.22915  0.33840  1.0000
  S   S278      1.0  0.37830  0.29349  0.98374  1.0000
  C   C1216     1.0  0.22271  0.17018  0.05866  1.0000
  C   C1217     1.0  0.33682  0.39396  0.33407  1.0000
  H   H2120     1.0  0.22767  0.18107  0.02906  1.0000
  S   S279      1.0  0.21027  0.00753  0.03624  1.0000
  S   S280      1.0  0.32739  0.20411  0.38038  1.0000
  N   N72       1.0  0.24326  0.15310  0.03308  1.0000
  C   C1218     1.0  0.25460  0.15691  0.01379  1.0000
  C   C1219     1.0  0.23534  0.17116  0.03924  1.0000
  C   C1220     1.0  0.25490  0.14067  0.04633  1.0000
  H   H2121     1.0  0.23423  0.13171  0.02594  1.0000
  C   C1221     1.0  0.27309  0.16290  0.01187  1.0000
  C   C1222     1.0  0.18907  0.10055  0.37458  1.0000
  C   C1223     1.0  0.28295  0.16667  0.99171  1.0000
  H   H2122     1.0  0.25770  0.14482  0.00719  1.0000
  H   H2123     1.0  0.24656  0.17784  0.03954  1.0000
  H   H2124     1.0  0.26539  0.14764  0.04789  1.0000
  C   C1224     1.0  0.25300  0.22611  0.99257  1.0000
  Fe  Fe139     1.0  0.37317  0.31662  0.44471  1.0000
  C   C1225     1.0  0.19156  0.01667  0.02495  1.0000
  H   H2125     1.0  0.27074  0.17567  0.01715  1.0000
  H   H2126     1.0  0.28264  0.15200  0.01942  1.0000
  H   H2127     1.0  0.27247  0.11129  0.06847  1.0000
  H   H2128     1.0  0.18827  0.14408  0.97871  1.0000
  H   H2129     1.0  0.20506  0.08557  0.01263  1.0000
  C   C1226     1.0  0.21509  0.19536  0.33522  1.0000
  H   H2130     1.0  0.35018  0.12894  0.36681  1.0000
  H   H2131     1.0  0.19051  0.28988  0.23455  1.0000
  H   H2132     1.0  0.30201  0.43696  0.26216  1.0000
  S   S281      1.0  0.20823  0.29315  0.29753  1.0000
  N   N73       1.0  0.23736  0.31023  0.20135  1.0000
  C   C1227     1.0  0.23301  0.31888  0.18253  1.0000
  C   C1228     1.0  0.21965  0.31038  0.21581  1.0000
  C   C1229     1.0  0.24847  0.32192  0.20551  1.0000
  C   C1230     1.0  0.24880  0.29102  0.20218  1.0000
  C   C1231     1.0  0.24050  0.27690  0.19720  1.0000
  C   C1232     1.0  0.24972  0.32138  0.16635  1.0000
  C   C1233     1.0  0.25367  0.31604  0.22479  1.0000
  C   C1234     1.0  0.34000  0.44063  0.04527  1.0000
  C   C1235     1.0  0.23072  0.47233  0.38664  1.0000
  C   C1236     1.0  0.25406  0.25846  0.19739  1.0000
  C   C1237     1.0  0.24340  0.32825  0.14797  1.0000
  C   C1238     1.0  0.26087  0.33118  0.22893  1.0000
  H   H2133     1.0  0.22408  0.33275  0.18288  1.0000
  H   H2134     1.0  0.22476  0.31101  0.17859  1.0000
  H   H2135     1.0  0.22198  0.29965  0.22819  1.0000
  H   H2136     1.0  0.21535  0.32361  0.22075  1.0000
  H   H2137     1.0  0.24092  0.33647  0.20384  1.0000
  H   H2138     1.0  0.26186  0.32198  0.19554  1.0000
  H   H2139     1.0  0.26278  0.29128  0.19334  1.0000
  H   H2140     1.0  0.25130  0.28499  0.21638  1.0000
  H   H2141     1.0  0.23715  0.28166  0.18330  1.0000
  H   H2142     1.0  0.22792  0.27423  0.20757  1.0000
  H   H2143     1.0  0.25672  0.33190  0.16772  1.0000
  H   H2144     1.0  0.25983  0.30828  0.16561  1.0000
  H   H2145     1.0  0.26477  0.30352  0.22529  1.0000
  H   H2146     1.0  0.24181  0.31294  0.23595  1.0000
  H   H2147     1.0  0.28588  0.15422  0.98574  1.0000
  H   H2148     1.0  0.36101  0.25573  0.44291  1.0000
  H   H2149     1.0  0.23928  0.20320  0.00369  1.0000
  H   H2150     1.0  0.26269  0.43830  0.18235  1.0000
  H   H2151     1.0  0.19433  0.13260  0.32190  1.0000
  H   H2152     1.0  0.26688  0.25999  0.18688  1.0000
  H   H2153     1.0  0.25765  0.25287  0.21119  1.0000
  H   H2154     1.0  0.24762  0.24840  0.19428  1.0000
  H   H2155     1.0  0.23723  0.31788  0.14504  1.0000
  H   H2156     1.0  0.23304  0.34129  0.14823  1.0000
  H   H2157     1.0  0.25537  0.33092  0.13665  1.0000
  H   H2158     1.0  0.35574  0.13983  0.38266  1.0000
  C   C1239     1.0  0.22651  0.11941  0.22667  1.0000
  H   H2159     1.0  0.18677  0.33328  0.35293  1.0000
  Fe  Fe140     1.0  0.21558  0.39955  0.10145  1.0000
  H   H2160     1.0  0.34305  0.40219  0.38411  1.0000
  C   C1240     1.0  0.33135  0.29711  0.41575  1.0000
  S   S282      1.0  0.32971  0.44600  0.11334  1.0000
  H   H2161     1.0  0.25332  0.26652  0.35152  1.0000
  H   H2162     1.0  0.20518  0.29723  0.20222  1.0000
  C   C1241     1.0  0.35102  0.33147  0.01145  1.0000
  H   H2163     1.0  0.32336  0.30865  0.40793  1.0000
  H   H2164     1.0  0.23462  0.20859  0.42475  1.0000
  H   H2165     1.0  0.37069  0.06332  0.16111  1.0000
  C   C1242     1.0  0.19405  0.37129  0.02174  1.0000
  C   C1243     1.0  0.19445  0.09542  0.35536  1.0000
  C   C1244     1.0  0.33273  0.46324  0.29288  1.0000
  C   C1245     1.0  0.34517  0.29997  0.42325  1.0000
  C   C1246     1.0  0.21520  0.09372  0.34770  1.0000
  C   C1247     1.0  0.21197  0.18928  0.06151  1.0000
  C   C1248     1.0  0.35281  0.26728  0.43523  1.0000
  S   S283      1.0  0.24315  0.38037  0.15944  1.0000
  H   H2166     1.0  0.22430  0.35045  0.31628  1.0000
  C   C1249     1.0  0.35525  0.44156  0.35578  1.0000
  H   H2167     1.0  0.24940  0.28537  0.36292  1.0000
  H   H2168     1.0  0.25419  0.36212  0.32419  1.0000
  H   H2169     1.0  0.24311  0.14220  0.23877  1.0000
  H   H2170     1.0  0.24692  0.40283  0.20760  1.0000
  H   H2171     1.0  0.25129  0.14825  0.45739  1.0000
  H   H2172     1.0  0.22444  0.07748  0.99641  1.0000
  H   H2173     1.0  0.32406  0.18670  0.24542  1.0000
  H   H2174     1.0  0.23978  0.05476  0.02001  1.0000
  N   N74       1.0  0.29325  0.00659  0.09757  1.0000
  C   C1250     1.0  0.28130  0.00475  0.11663  1.0000
  C   C1251     1.0  0.30855  0.01599  0.09728  1.0000
  C   C1252     1.0  0.28146  0.01766  0.08388  1.0000
  H   H2175     1.0  0.34560  0.18012  0.25350  1.0000
  C   C1253     1.0  0.19185  0.34020  0.02068  1.0000
  H   H2176     1.0  0.20062  0.14776  0.22261  1.0000
  C   C1254     1.0  0.29192  0.02259  0.06369  1.0000
  C   C1255     1.0  0.30249  0.03647  0.09919  1.0000
  C   C1256     1.0  0.31905  0.04455  0.09865  1.0000
  H   H2177     1.0  0.34088  0.10136  0.22669  1.0000
  H   H2178     1.0  0.37564  0.11587  0.22570  1.0000
  C   C1257     1.0  0.27905  0.03576  0.05159  1.0000
  H   H2179     1.0  0.27446  0.01853  0.11966  1.0000
  Fe  Fe141     1.0  0.19730  0.32154  0.28268  1.0000
  H   H2180     1.0  0.31582  0.00874  0.10876  1.0000
  H   H2181     1.0  0.31940  0.01506  0.08457  1.0000
  H   H2182     1.0  0.27320  0.03051  0.08834  1.0000
  H   H2183     1.0  0.27103  0.01002  0.08341  1.0000
  H   H2184     1.0  0.36861  0.37620  0.39108  1.0000
  H   H2185     1.0  0.25881  0.19999  0.41662  1.0000
  H   H2186     1.0  0.20435  0.16675  0.03022  1.0000
  H   H2187     1.0  0.28380  0.09716  0.05164  1.0000
  C   C1258     1.0  0.29298  0.45242  0.15845  1.0000
  H   H2188     1.0  0.27384  0.42414  0.27395  1.0000
  H   H2189     1.0  0.20491  0.20233  0.25158  1.0000
  H   H2190     1.0  0.30347  0.02938  0.06262  1.0000
  H   H2191     1.0  0.29555  0.04510  0.08794  1.0000
  H   H2192     1.0  0.29291  0.03785  0.11250  1.0000
  H   H2193     1.0  0.31419  0.05910  0.10022  1.0000
  H   H2194     1.0  0.32615  0.03686  0.11012  1.0000
  H   H2195     1.0  0.32897  0.04416  0.08530  1.0000
  H   H2196     1.0  0.36919  0.44657  0.07680  1.0000
  S   S284      1.0  0.30712  0.44155  0.30262  1.0000
  H   H2197     1.0  0.22135  0.38689  0.99506  1.0000
  H   H2198     1.0  0.37388  0.14395  0.19332  1.0000
  H   H2199     1.0  0.37796  0.43698  0.02195  1.0000
  H   H2200     1.0  0.28988  0.99827  0.12724  1.0000
  H   H2201     1.0  0.27404  0.04909  0.05620  1.0000
  H   H2202     1.0  0.28662  0.03837  0.03708  1.0000
  H   H2203     1.0  0.34436  0.43764  0.03117  1.0000
  H   H2204     1.0  0.29754  0.46038  0.40260  1.0000
  H   H2205     1.0  0.24633  0.13782  0.06042  1.0000
  C   C1259     1.0  0.36554  0.34045  0.99671  1.0000
  N   N75       1.0  0.36658  0.17459  0.32993  1.0000
  C   C1260     1.0  0.35569  0.03868  0.15048  1.0000
  H   H2206     1.0  0.27990  0.38201  0.05544  1.0000
  C   C1261     1.0  0.34024  0.05496  0.15611  1.0000
  Fe  Fe142     1.0  0.23984  0.38750  0.12999  1.0000
  C   C1262     1.0  0.19790  0.16397  0.28173  1.0000
  H   H2207     1.0  0.25556  0.35149  0.29651  1.0000
  H   H2208     1.0  0.36408  0.17826  0.30164  1.0000
  H   H2209     1.0  0.35134  0.46482  0.03596  1.0000
  C   C1263     1.0  0.33481  0.23759  0.99269  1.0000
  H   H2210     1.0  0.20018  0.38179  0.29871  1.0000
  H   H2211     1.0  0.19837  0.05469  0.02594  1.0000
  H   H2212     1.0  0.37841  0.03780  0.20778  1.0000
  H   H2213     1.0  0.37573  0.21264  0.42928  1.0000
  C   C1264     1.0  0.34474  0.41816  0.34653  1.0000
  C   C1265     1.0  0.24576  0.18166  0.44001  1.0000
  H   H2214     1.0  0.31440  0.34336  0.99490  1.0000
  H   H2215     1.0  0.30169  0.36626  0.02355  1.0000
  C   C1266     1.0  0.32000  0.29424  0.06073  1.0000
  C   C1267     1.0  0.27311  0.43886  0.27366  1.0000
  H   H2216     1.0  0.19255  0.18665  0.22364  1.0000
  C   C1268     1.0  0.30821  0.31829  0.35635  1.0000
  H   H2217     1.0  0.18866  0.15354  0.01383  1.0000
  S   S285      1.0  0.33411  0.38143  0.43079  1.0000
  N   N76       1.0  0.26400  0.33092  0.39381  1.0000
  C   C1269     1.0  0.26222  0.31177  0.40435  1.0000
  C   C1270     1.0  0.26906  0.34096  0.40589  1.0000
  C   C1271     1.0  0.24522  0.34105  0.38989  1.0000
  C   C1272     1.0  0.27768  0.33097  0.37570  1.0000
  C   C1273     1.0  0.29470  0.31493  0.37474  1.0000
  C   C1274     1.0  0.25390  0.30072  0.39516  1.0000
  C   C1275     1.0  0.24369  0.36177  0.38070  1.0000
  C   C1276     1.0  0.28758  0.33279  0.41237  1.0000
  C   C1277     1.0  0.28933  0.34227  0.42703  1.0000
  C   C1278     1.0  0.25840  0.28009  0.40301  1.0000
  C   C1279     1.0  0.22585  0.36953  0.37336  1.0000
  H   H2218     1.0  0.25345  0.31227  0.41832  1.0000
  H   H2219     1.0  0.27578  0.30343  0.40699  1.0000
  H   H2220     1.0  0.27018  0.35527  0.39863  1.0000
  H   H2221     1.0  0.25787  0.34220  0.41835  1.0000
  H   H2222     1.0  0.23451  0.34010  0.40285  1.0000
  H   H2223     1.0  0.24094  0.33451  0.38063  1.0000
  H   H2224     1.0  0.27075  0.33085  0.36460  1.0000
  H   H2225     1.0  0.28290  0.34397  0.37127  1.0000
  H   H2226     1.0  0.30227  0.31309  0.38581  1.0000
  H   H2227     1.0  0.23861  0.30518  0.39768  1.0000
  H   H2228     1.0  0.25916  0.30299  0.38007  1.0000
  H   H2229     1.0  0.25542  0.36412  0.36902  1.0000
  H   H2230     1.0  0.24349  0.36991  0.39090  1.0000
  H   H2231     1.0  0.28915  0.31793  0.41847  1.0000
  H   H2232     1.0  0.29915  0.33510  0.40054  1.0000
  H   H2233     1.0  0.37397  0.16194  0.35638  1.0000
  H   H2234     1.0  0.28753  0.35738  0.42196  1.0000
  H   H2235     1.0  0.27884  0.33934  0.43978  1.0000
  H   H2236     1.0  0.27355  0.27477  0.39975  1.0000
  H   H2237     1.0  0.25350  0.27720  0.41819  1.0000
  H   H2238     1.0  0.25155  0.27262  0.39685  1.0000
  H   H2239     1.0  0.22476  0.38452  0.36778  1.0000
  H   H2240     1.0  0.22582  0.36290  0.36204  1.0000
  H   H2241     1.0  0.21360  0.36749  0.38453  1.0000
  C   C1280     1.0  0.37901  0.04714  0.19408  1.0000
  C   C1281     1.0  0.27871  0.11154  0.05366  1.0000
  H   H2242     1.0  0.20109  0.34762  0.35546  1.0000
  C   C1282     1.0  0.25065  0.29329  0.33335  1.0000
  H   H2243     1.0  0.20712  0.00815  0.99981  1.0000
  C   C1283     1.0  0.37970  0.43028  0.03628  1.0000
  H   H2244     1.0  0.20728  0.13382  0.01282  1.0000
  H   H2245     1.0  0.24998  0.34387  0.22928  1.0000
  C   C1284     1.0  0.24531  0.42105  0.18086  1.0000
  C   C1285     1.0  0.20576  0.18209  0.21434  1.0000
  C   C1286     1.0  0.29544  0.37738  0.15047  1.0000
  H   H2246     1.0  0.28723  0.46224  0.20005  1.0000
  H   H2247     1.0  0.37357  0.01121  0.13079  1.0000
  H   H2248     1.0  0.26617  0.40686  0.14912  1.0000
  H   H2249     1.0  0.20847  0.37249  0.15734  1.0000
  H   H2250     1.0  0.35820  0.32289  0.02255  1.0000
  H   H2251     1.0  0.36900  0.06949  0.13004  1.0000
  C   C1287     1.0  0.19475  0.36463  0.18561  1.0000
  C   C1288     1.0  0.22841  0.38439  0.28700  1.0000
  H   H2252     1.0  0.32793  0.27989  0.06183  1.0000
  H   H2253     1.0  0.25962  0.17447  0.44290  1.0000
  S   S286      1.0  0.25217  0.45698  0.38450  1.0000
  H   H2254     1.0  0.34084  0.06762  0.14532  1.0000
  H   H2255     1.0  0.20224  0.13210  0.44679  1.0000
  H   H2256     1.0  0.20555  0.40626  0.06389  1.0000
  C   C1289     1.0  0.35512  0.21944  0.01579  1.0000
  C   C1290     1.0  0.20585  0.12124  0.25657  1.0000
  C   C1291     1.0  0.35874  0.14924  0.19486  1.0000
  H   H2257     1.0  0.30487  0.38110  0.13709  1.0000
  H   H2258     1.0  0.30272  0.36493  0.15877  1.0000
  H   H2259     1.0  0.28313  0.37403  0.14783  1.0000
  H   H2260     1.0  0.28249  0.32221  0.00947  1.0000
  C   C1292     1.0  0.32823  0.27934  0.41796  1.0000
  C   C1293     1.0  0.35633  0.19265  0.33534  1.0000
  Fe  Fe143     1.0  0.20681  0.35948  0.27176  1.0000
  H   H2261     1.0  0.29675  0.39219  0.05993  1.0000
  H   H2262     1.0  0.29443  0.39451  0.03655  1.0000
  S   S287      1.0  0.22550  0.41510  0.11703  1.0000
  C   C1294     1.0  0.37287  0.09706  0.17787  1.0000
  H   H2263     1.0  0.20232  0.40502  0.00185  1.0000
  C   C1295     1.0  0.37669  0.10043  0.14487  1.0000
  H   H2264     1.0  0.37390  0.42262  0.45367  1.0000
  C   C1296     1.0  0.21010  0.39617  0.31392  1.0000
  H   H2265     1.0  0.27309  0.41481  0.18596  1.0000
  C   C1297     1.0  0.20431  0.45834  0.05340  1.0000
  H   H2266     1.0  0.29099  0.98181  0.09014  1.0000
  H   H2267     1.0  0.29192  0.35133  0.00824  1.0000
  H   H2268     1.0  0.37134  0.21386  0.31784  1.0000
  H   H2269     1.0  0.31649  0.42287  0.37619  1.0000
  H   H2270     1.0  0.20677  0.30507  0.01350  1.0000
  H   H2271     1.0  0.21289  0.10695  0.26156  1.0000
  C   C1298     1.0  0.36569  0.15985  0.34724  1.0000
  H   H2272     1.0  0.30328  0.33707  0.43043  1.0000
  H   H2273     1.0  0.38509  0.40450  0.09442  1.0000
  H   H2274     1.0  0.34980  0.14441  0.32715  1.0000
  H   H2275     1.0  0.29115  0.46215  0.14528  1.0000
  H   H2276     1.0  0.18990  0.34366  0.00628  1.0000
  C   C1299     1.0  0.34353  0.28794  0.99916  1.0000
  H   H2277     1.0  0.24182  0.17441  0.43118  1.0000
  H   H2278     1.0  0.36950  0.43595  0.34888  1.0000
  C   C1300     1.0  0.37754  0.38649  0.38790  1.0000
  N   N77       1.0  0.37521  0.04193  0.14568  1.0000
  H   H2279     1.0  0.35228  0.03535  0.13855  1.0000
  H   H2280     1.0  0.19302  0.13775  0.03484  1.0000
  H   H2281     1.0  0.20720  0.43663  0.07776  1.0000
  C   C1301     1.0  0.35768  0.21013  0.31996  1.0000
  S   S288      1.0  0.37489  0.36325  0.45460  1.0000
  C   C1302     1.0  0.22587  0.05368  0.02863  1.0000
  H   H2282     1.0  0.37815  0.47273  0.06471  1.0000
  H   H2283     1.0  0.37178  0.05244  0.11739  1.0000
  H   H2284     1.0  0.33226  0.16266  0.22517  1.0000
  C   C1303     1.0  0.36196  0.28319  0.00109  1.0000
  S   S289      1.0  0.19726  0.99421  0.09038  1.0000
  H   H2285     1.0  0.29755  0.01000  0.05782  1.0000
  H   H2286     1.0  0.37726  0.32965  0.99202  1.0000
  H   H2287     1.0  0.20587  0.29366  0.26048  1.0000
  H   H2288     1.0  0.32721  0.40447  0.32618  1.0000
  H   H2289     1.0  0.35901  0.44914  0.23755  1.0000
  H   H2290     1.0  0.34416  0.28604  0.37726  1.0000
  H   H2291     1.0  0.26700  0.02983  0.05217  1.0000
  C   C1304     1.0  0.28979  0.39317  0.16089  1.0000
  C   C1305     1.0  0.21026  0.07538  0.00351  1.0000
  H   H2292     1.0  0.32409  0.17844  0.26957  1.0000
  H   H2293     1.0  0.35327  0.12239  0.20677  1.0000
  H   H2294     1.0  0.22362  0.15208  0.44639  1.0000
  H   H2295     1.0  0.24073  0.43126  0.14637  1.0000
  H   H2296     1.0  0.33868  0.15609  0.17703  1.0000
  H   H2297     1.0  0.22959  0.47276  0.41493  1.0000
  H   H2298     1.0  0.27437  0.17811  0.98354  1.0000
  C   C1306     1.0  0.36435  0.42000  0.07826  1.0000
  C   C1307     1.0  0.20691  0.39378  0.99397  1.0000
  C   C1308     1.0  0.26023  0.23773  0.97660  1.0000
  H   H2299     1.0  0.35731  0.25113  0.04090  1.0000
  C   C1309     1.0  0.38430  0.09762  0.16044  1.0000
  H   H2300     1.0  0.30612  0.22666  0.98791  1.0000
  H   H2301     1.0  0.31072  0.46849  0.16281  1.0000
  C   C1310     1.0  0.38349  0.45920  0.04120  1.0000
  H   H2302     1.0  0.28681  0.41290  0.13544  1.0000
  H   H2303     1.0  0.36252  0.20549  0.02130  1.0000
  S   S290      1.0  0.38221  0.09388  0.19753  1.0000
  H   H2304     1.0  0.25417  0.11288  0.04415  1.0000
  H   H2305     1.0  0.33592  0.21145  0.44852  1.0000
  H   H2306     1.0  0.25557  0.00106  0.11117  1.0000
  H   H2307     1.0  0.21121  0.45841  0.07940  1.0000
  H   H2308     1.0  0.34181  0.45218  0.28666  1.0000
  C   C1311     1.0  0.19144  0.30806  0.01759  1.0000
  H   H2309     1.0  0.35079  0.39174  0.32518  1.0000
  H   H2310     1.0  0.21320  0.19370  0.20912  1.0000
  H   H2311     1.0  0.30476  0.31453  0.99547  1.0000
  C   C1312     1.0  0.19964  0.14447  0.02098  1.0000
  H   H2312     1.0  0.33772  0.22629  0.46261  1.0000
  H   H2313     1.0  0.19927  0.19966  0.28634  1.0000
  H   H2314     1.0  0.20427  0.18849  0.07597  1.0000
  H   H2315     1.0  0.32217  0.46364  0.26185  1.0000
  H   H2316     1.0  0.31176  0.98960  0.07922  1.0000
  H   H2317     1.0  0.19098  0.08190  0.35646  1.0000
  C   C1313     1.0  0.21184  0.05622  0.01659  1.0000
  H   H2318     1.0  0.34089  0.42737  0.05521  1.0000
  C   C1314     1.0  0.31802  0.25730  0.96909  1.0000
  H   H2319     1.0  0.24347  0.98549  0.14245  1.0000
  H   H2320     1.0  0.22537  0.20415  0.32800  1.0000
  H   H2321     1.0  0.37430  0.18618  0.38150  1.0000
  C   C1315     1.0  0.37742  0.05589  0.12788  1.0000
  H   H2322     1.0  0.22153  0.06408  0.03750  1.0000
  H   H2323     1.0  0.36145  0.16013  0.16547  1.0000
  C   C1316     1.0  0.31971  0.45031  0.04763  1.0000
  C   C1317     1.0  0.35372  0.15067  0.17637  1.0000
  H   H2324     1.0  0.36771  0.05938  0.19535  1.0000
  H   H2325     1.0  0.35555  0.16332  0.19763  1.0000
  H   H2326     1.0  0.23754  0.18733  0.46743  1.0000
  H   H2327     1.0  0.37305  0.14259  0.31447  1.0000
  H   H2328     1.0  0.18840  0.38305  0.02886  1.0000
  H   H2329     1.0  0.37411  0.39610  0.35993  1.0000
  H   H2330     1.0  0.20188  0.22261  0.27958  1.0000
  H   H2331     1.0  0.33198  0.14109  0.38210  1.0000
  C   C1318     1.0  0.33732  0.21194  0.46246  1.0000
  H   H2332     1.0  0.37827  0.13873  0.22212  1.0000
  H   H2333     1.0  0.24783  0.46543  0.11653  1.0000
  C   C1319     1.0  0.29995  0.45272  0.39142  1.0000
  H   H2334     1.0  0.19292  0.34683  0.08467  1.0000
  C   C1320     1.0  0.28854  0.46620  0.25848  1.0000
  H   H2335     1.0  0.29044  0.46651  0.27232  1.0000
  H   H2336     1.0  0.37106  0.34954  0.00231  1.0000
  H   H2337     1.0  0.37609  0.39181  0.40052  1.0000
  H   H2338     1.0  0.18659  0.08992  0.41342  1.0000
  H   H2339     1.0  0.35679  0.46298  0.25431  1.0000
  H   H2340     1.0  0.19222  0.37251  0.05761  1.0000
  C   C1321     1.0  0.18945  0.46592  0.01298  1.0000
  C   C1322     1.0  0.19055  0.14160  0.30953  1.0000
  H   H2341     1.0  0.38114  0.26648  0.01794  1.0000
  C   C1323     1.0  0.19427  0.21520  0.25056  1.0000
  H   H2342     1.0  0.35958  0.34853  0.98460  1.0000
  H   H2343     1.0  0.18730  0.10579  0.34519  1.0000
  C   C1324     1.0  0.19118  0.21395  0.28463  1.0000
  H   H2344     1.0  0.38424  0.46405  0.02609  1.0000
  S   S291      1.0  0.27075  0.25525  0.97793  1.0000
  H   H2345     1.0  0.37347  0.25139  0.37806  1.0000
  C   C1325     1.0  0.37423  0.28011  0.36932  1.0000
  C   C1326     1.0  0.18982  0.45226  0.00132  1.0000
  C   C1327     1.0  0.37956  0.40799  0.45913  1.0000
  C   C1328     1.0  0.18759  0.11960  0.25212  1.0000
  C   C1329     1.0  0.37686  0.26184  0.38373  1.0000
  H   H2346     1.0  0.37560  0.29182  0.37461  1.0000
  H   H2347     1.0  0.33370  0.46570  0.34799  1.0000
  C   C1330     1.0  0.19121  0.11440  0.98596  1.0000
  H   H2348     1.0  0.32661  0.21045  0.98173  1.0000
  H   H2349     1.0  0.18868  0.25243  0.30238  1.0000
  H   H2350     1.0  0.38308  0.24393  0.41662  1.0000
  H   H2351     1.0  0.37801  0.22469  0.39573  1.0000
  H   H2352     1.0  0.21102  0.47015  0.04614  1.0000
  H   H2353     1.0  0.19783  0.11386  0.99745  1.0000
  H   H2354     1.0  0.20327  0.46328  0.01635  1.0000
  H   H2355     1.0  0.38443  0.27922  0.35626  1.0000
  C   C1331     1.0  0.18536  0.34956  0.05020  1.0000
  H   H2356     1.0  0.18539  0.31334  0.00505  1.0000
  C   C1332     1.0  0.36020  0.47232  0.33515  1.0000
  C   C1333     1.0  0.18690  0.30413  0.22682  1.0000
  H   H2357     1.0  0.18660  0.21553  0.23990  1.0000
  H   H2358     1.0  0.28980  0.47364  0.31895  1.0000
  C   C1334     1.0  0.30167  0.47326  0.22475  1.0000
  N   N78       1.0  0.22500  0.16460  0.46825  1.0000
  H   H2359     1.0  0.25842  0.03273  0.64729  1.0000
  H   H2360     1.0  0.22339  0.28061  0.60001  1.0000
  H   H2361     1.0  0.29688  0.45283  0.50877  1.0000
  H   H2362     1.0  0.26713  0.11621  0.47072  1.0000
  Fe  Fe144     1.0  0.32489  0.02328  0.60545  1.0000
  S   S292      1.0  0.31134  0.05307  0.60485  1.0000
  H   H2363     1.0  0.24392  0.00617  0.61670  1.0000
  H   H2364     1.0  0.31622  0.46203  0.62141  1.0000
  Fe  Fe145     1.0  0.33732  0.18024  0.80347  1.0000
  S   S293      1.0  0.33274  0.21008  0.79018  1.0000
  S   S294      1.0  0.32632  0.16742  0.83282  1.0000
  Fe  Fe146     1.0  0.36289  0.16887  0.76925  1.0000
  H   H2365     1.0  0.23644  0.99664  0.80354  1.0000
  C   C1335     1.0  0.37936  0.24069  0.94289  1.0000
  C   C1336     1.0  0.28220  0.00689  0.56922  1.0000
  C   C1337     1.0  0.25293  0.00234  0.81999  1.0000
  Fe  Fe147     1.0  0.33048  0.20080  0.76537  1.0000
  S   S295      1.0  0.30649  0.21506  0.75130  1.0000
  S   S296      1.0  0.36814  0.17549  0.79411  1.0000
  S   S297      1.0  0.33239  0.17133  0.77976  1.0000
  Fe  Fe148     1.0  0.24097  0.19639  0.90395  1.0000
  S   S298      1.0  0.21981  0.21220  0.92363  1.0000
  S   S299      1.0  0.25742  0.21256  0.87918  1.0000
  Fe  Fe149     1.0  0.22990  0.18907  0.94556  1.0000
  S   S300      1.0  0.25246  0.17441  0.92602  1.0000
  H   H2366     1.0  0.31761  0.03528  0.69248  1.0000
  C   C1338     1.0  0.29769  0.45632  0.58376  1.0000
  H   H2367     1.0  0.22277  0.16974  0.49527  1.0000
  S   S301      1.0  0.35892  0.98295  0.65512  1.0000
  H   H2368     1.0  0.20367  0.12491  0.88400  1.0000
  Fe  Fe150     1.0  0.38092  0.02177  0.75433  1.0000
  Fe  Fe151     1.0  0.34072  0.01996  0.75719  1.0000
  S   S302      1.0  0.31541  0.00726  0.76534  1.0000
  S   S303      1.0  0.33516  0.04822  0.74005  1.0000
  H   H2369     1.0  0.33773  0.21614  0.82446  1.0000
  N   N79       1.0  0.30701  0.19959  0.51167  1.0000
  H   H2370     1.0  0.26157  0.44710  0.56412  1.0000
  H   H2371     1.0  0.19418  0.30755  0.65631  1.0000
  H   H2372     1.0  0.33930  0.30442  0.65648  1.0000
  C   C1339     1.0  0.36936  0.99700  0.67947  1.0000
  C   C1340     1.0  0.31179  0.19840  0.52996  1.0000
  S   S304      1.0  0.37822  0.05017  0.73662  1.0000
  H   H2373     1.0  0.22908  0.12999  0.49358  1.0000
  H   H2374     1.0  0.26208  0.28920  0.57832  1.0000
  Fe  Fe152     1.0  0.29025  0.23779  0.65238  1.0000
  S   S305      1.0  0.29550  0.25421  0.62339  1.0000
  S   S306      1.0  0.31439  0.22192  0.66565  1.0000
  Fe  Fe153     1.0  0.24884  0.24749  0.65600  1.0000
  S   S307      1.0  0.25042  0.26471  0.62765  1.0000
  S   S308      1.0  0.22175  0.24236  0.67419  1.0000
  Fe  Fe154     1.0  0.27337  0.24191  0.61912  1.0000
  S   S309      1.0  0.27444  0.23451  0.59199  1.0000
  Fe  Fe155     1.0  0.27221  0.27563  0.63416  1.0000
  S   S310      1.0  0.27021  0.30641  0.62604  1.0000
  S   S311      1.0  0.27016  0.22364  0.64713  1.0000
  S   S312      1.0  0.26859  0.26026  0.66351  1.0000
  Fe  Fe156     1.0  0.24071  0.15877  0.56581  1.0000
  S   S313      1.0  0.26588  0.15532  0.54323  1.0000
  S   S314      1.0  0.23968  0.16730  0.59234  1.0000
  Fe  Fe157     1.0  0.21678  0.14716  0.54589  1.0000
  S   S315      1.0  0.23985  0.14281  0.52194  1.0000
  H   H2375     1.0  0.29431  0.14045  0.89481  1.0000
  Fe  Fe158     1.0  0.25737  0.12930  0.54304  1.0000
  S   S316      1.0  0.27692  0.10300  0.53747  1.0000
  Fe  Fe159     1.0  0.24615  0.16896  0.52416  1.0000
  S   S317      1.0  0.24927  0.19234  0.49980  1.0000
  S   S318      1.0  0.23359  0.13156  0.56713  1.0000
  S   S319      1.0  0.22165  0.17454  0.54677  1.0000
  C   C1341     1.0  0.18530  0.12811  0.92074  1.0000
  H   H2376     1.0  0.19623  0.06847  0.96675  1.0000
  Fe  Fe160     1.0  0.36338  0.40043  0.59640  1.0000
  S   S320      1.0  0.34397  0.42225  0.58101  1.0000
  C   C1342     1.0  0.27234  0.21028  0.52516  1.0000
  Fe  Fe161     1.0  0.33894  0.37193  0.60491  1.0000
  S   S321      1.0  0.31719  0.39156  0.59080  1.0000
  S   S322      1.0  0.33985  0.34145  0.61624  1.0000
  Fe  Fe162     1.0  0.34087  0.39974  0.56876  1.0000
  S   S323      1.0  0.33853  0.40462  0.53905  1.0000
  Fe  Fe163     1.0  0.32175  0.41253  0.60422  1.0000
  S   S324      1.0  0.29726  0.43206  0.61702  1.0000
  S   S325      1.0  0.36250  0.37875  0.58180  1.0000
  S   S326      1.0  0.34142  0.39206  0.62066  1.0000
  C   C1343     1.0  0.28457  0.30373  0.57253  1.0000
  H   H2377     1.0  0.30544  0.00212  0.68223  1.0000
  H   H2378     1.0  0.21609  0.00417  0.60605  1.0000
  C   C1344     1.0  0.26782  0.13310  0.84965  1.0000
  H   H2379     1.0  0.34033  0.32292  0.56711  1.0000
  C   C1345     1.0  0.30458  0.18091  0.51089  1.0000
  C   C1346     1.0  0.32208  0.16541  0.51079  1.0000
  H   H2380     1.0  0.26503  0.24401  0.94694  1.0000
  H   H2381     1.0  0.35166  0.22045  0.95926  1.0000
  H   H2382     1.0  0.19257  0.33108  0.69669  1.0000
  C   C1347     1.0  0.34511  0.38453  0.53001  1.0000
  C   C1348     1.0  0.35103  0.36753  0.54092  1.0000
  C   C1349     1.0  0.35702  0.35170  0.53333  1.0000
  H   H2383     1.0  0.35092  0.08990  0.70373  1.0000
  Fe  Fe164     1.0  0.36332  0.20476  0.77894  1.0000
  C   C1350     1.0  0.34487  0.38558  0.51154  1.0000
  H   H2384     1.0  0.35105  0.36654  0.55521  1.0000
  H   H2385     1.0  0.19906  0.16211  0.60663  1.0000
  H   H2386     1.0  0.28649  0.98786  0.78401  1.0000
  C   C1351     1.0  0.34712  0.23541  0.95940  1.0000
  C   C1352     1.0  0.28756  0.45079  0.60139  1.0000
  H   H2387     1.0  0.30176  0.23520  0.95548  1.0000
  H   H2388     1.0  0.23366  0.12447  0.47110  1.0000
  C   C1353     1.0  0.26784  0.18912  0.48126  1.0000
  H   H2389     1.0  0.24851  0.97638  0.81674  1.0000
  C   C1354     1.0  0.35707  0.35278  0.51480  1.0000
  H   H2390     1.0  0.37418  0.25004  0.93083  1.0000
  H   H2391     1.0  0.24366  0.22305  0.53355  1.0000
  H   H2392     1.0  0.34019  0.25176  0.83464  1.0000
  H   H2393     1.0  0.35255  0.23449  0.86228  1.0000
  H   H2394     1.0  0.22728  0.27948  0.57608  1.0000
  C   C1355     1.0  0.19848  0.12080  0.52294  1.0000
  H   H2395     1.0  0.38410  0.24283  0.85978  1.0000
  C   C1356     1.0  0.32821  0.21829  0.86087  1.0000
  H   H2396     1.0  0.21218  0.11862  0.52567  1.0000
  C   C1357     1.0  0.28946  0.31595  0.62429  1.0000
  C   C1358     1.0  0.28757  0.33513  0.62031  1.0000
  C   C1359     1.0  0.30290  0.34317  0.61790  1.0000
  C   C1360     1.0  0.32014  0.33203  0.61969  1.0000
  C   C1361     1.0  0.32191  0.31285  0.62413  1.0000
  C   C1362     1.0  0.30666  0.30480  0.62622  1.0000
  H   H2397     1.0  0.27425  0.34382  0.61886  1.0000
  H   H2398     1.0  0.30137  0.35796  0.61473  1.0000
  H   H2399     1.0  0.33527  0.30424  0.62543  1.0000
  H   H2400     1.0  0.30824  0.29001  0.62905  1.0000
  C   C1363     1.0  0.20339  0.26123  0.67198  1.0000
  H   H2401     1.0  0.24188  0.26348  0.59055  1.0000
  C   C1364     1.0  0.21608  0.97783  0.87840  1.0000
  C   C1365     1.0  0.20661  0.27893  0.66388  1.0000
  H   H2402     1.0  0.25134  0.41158  0.59518  1.0000
  H   H2403     1.0  0.23079  0.98210  0.61201  1.0000
  H   H2404     1.0  0.22062  0.28116  0.65888  1.0000
  C   C1366     1.0  0.26494  0.21565  0.59230  1.0000
  C   C1367     1.0  0.26120  0.20259  0.60841  1.0000
  C   C1368     1.0  0.25384  0.18760  0.60813  1.0000
  C   C1369     1.0  0.25015  0.18556  0.59180  1.0000
  C   C1370     1.0  0.25395  0.19858  0.57567  1.0000
  C   C1371     1.0  0.26120  0.21366  0.57597  1.0000
  H   H2405     1.0  0.26418  0.20388  0.62103  1.0000
  H   H2406     1.0  0.25104  0.17750  0.62064  1.0000
  H   H2407     1.0  0.25090  0.19718  0.56310  1.0000
  H   H2408     1.0  0.26378  0.22395  0.56361  1.0000
  H   H2409     1.0  0.38266  0.08729  0.79253  1.0000
  C   C1372     1.0  0.19751  0.18441  0.48671  1.0000
  H   H2410     1.0  0.28387  0.15754  0.76729  1.0000
  H   H2411     1.0  0.20640  0.10144  0.50482  1.0000
  H   H2412     1.0  0.33731  0.20928  0.88750  1.0000
  H   H2413     1.0  0.18598  0.01457  0.89393  1.0000
  H   H2414     1.0  0.28105  0.03156  0.63282  1.0000
  C   C1373     1.0  0.31482  0.98806  0.78337  1.0000
  N   N80       1.0  0.20033  0.23367  0.62145  1.0000
  H   H2415     1.0  0.31273  0.47001  0.52153  1.0000
  Fe  Fe165     1.0  0.23080  0.15979  0.92471  1.0000
  H   H2416     1.0  0.27297  0.15419  0.87271  1.0000
  C   C1374     1.0  0.21900  0.19899  0.66289  1.0000
  C   C1375     1.0  0.30782  0.01399  0.71505  1.0000
  C   C1376     1.0  0.18838  0.15484  0.60605  1.0000
  H   H2417     1.0  0.36449  0.17708  0.70643  1.0000
  C   C1377     1.0  0.37677  0.22928  0.84146  1.0000
  C   C1378     1.0  0.30882  0.21620  0.72762  1.0000
  C   C1379     1.0  0.32549  0.20887  0.71692  1.0000
  C   C1380     1.0  0.32707  0.21080  0.69787  1.0000
  C   C1381     1.0  0.31194  0.21975  0.68952  1.0000
  C   C1382     1.0  0.29521  0.22678  0.70029  1.0000
  C   C1383     1.0  0.29369  0.22508  0.71927  1.0000
  H   H2418     1.0  0.33723  0.20203  0.72326  1.0000
  H   H2419     1.0  0.34007  0.20540  0.68956  1.0000
  H   H2420     1.0  0.28342  0.23350  0.69403  1.0000
  H   H2421     1.0  0.28075  0.23069  0.72752  1.0000
  H   H2422     1.0  0.31222  0.25797  0.95699  1.0000
  H   H2423     1.0  0.21937  0.10300  0.88319  1.0000
  H   H2424     1.0  0.19003  0.18585  0.47560  1.0000
  C   C1384     1.0  0.35394  0.12492  0.77517  1.0000
  C   C1385     1.0  0.19395  0.22333  0.59381  1.0000
  C   C1386     1.0  0.35129  0.09727  0.76689  1.0000
  C   C1387     1.0  0.36777  0.09786  0.75383  1.0000
  H   H2425     1.0  0.37486  0.40902  0.54433  1.0000
  H   H2426     1.0  0.34892  0.13483  0.78396  1.0000
  C   C1388     1.0  0.26749  0.02763  0.63505  1.0000
  C   C1389     1.0  0.30205  0.97958  0.70664  1.0000
  H   H2427     1.0  0.21362  0.25451  0.62418  1.0000
  C   C1390     1.0  0.30780  0.18069  0.84565  1.0000
  C   C1391     1.0  0.29866  0.19781  0.83749  1.0000
  C   C1392     1.0  0.28353  0.20778  0.84807  1.0000
  C   C1393     1.0  0.27727  0.20047  0.86669  1.0000
  C   C1394     1.0  0.28667  0.18353  0.87492  1.0000
  C   C1395     1.0  0.30202  0.17375  0.86442  1.0000
  H   H2428     1.0  0.30300  0.20325  0.82301  1.0000
  H   H2429     1.0  0.27630  0.22092  0.84167  1.0000
  H   H2430     1.0  0.28205  0.17794  0.88933  1.0000
  H   H2431     1.0  0.30932  0.16065  0.87075  1.0000
  C   C1396     1.0  0.30189  0.06657  0.58593  1.0000
  C   C1397     1.0  0.29030  0.08364  0.58771  1.0000
  C   C1398     1.0  0.28255  0.09486  0.57291  1.0000
  C   C1399     1.0  0.28647  0.08911  0.55618  1.0000
  C   C1400     1.0  0.29802  0.07200  0.55437  1.0000
  C   C1401     1.0  0.30570  0.06070  0.56925  1.0000
  H   H2432     1.0  0.28736  0.08824  0.60059  1.0000
  H   H2433     1.0  0.27369  0.10804  0.57441  1.0000
  H   H2434     1.0  0.30111  0.06752  0.54142  1.0000
  H   H2435     1.0  0.31476  0.04762  0.56774  1.0000
  C   C1402     1.0  0.36032  0.00102  0.66470  1.0000
  H   H2436     1.0  0.27042  0.98602  0.86908  1.0000
  C   C1403     1.0  0.37001  0.01100  0.68792  1.0000
  C   C1404     1.0  0.36212  0.02924  0.68128  1.0000
  C   C1405     1.0  0.35356  0.03335  0.66613  1.0000
  C   C1406     1.0  0.35246  0.01924  0.65798  1.0000
  C   C1407     1.0  0.28380  0.14309  0.83878  1.0000
  C   C1408     1.0  0.18749  0.98288  0.51177  1.0000
  H   H2437     1.0  0.23140  0.13510  0.88641  1.0000
  H   H2438     1.0  0.34553  0.02250  0.64651  1.0000
  H   H2439     1.0  0.33042  0.13637  0.50982  1.0000
  H   H2440     1.0  0.25121  0.43792  0.53067  1.0000
  H   H2441     1.0  0.34608  0.15962  0.73339  1.0000
  N   N81       1.0  0.27294  0.00389  0.84214  1.0000
  C   C1409     1.0  0.28775  0.00968  0.82601  1.0000
  C   C1410     1.0  0.26259  0.99253  0.83645  1.0000
  C   C1411     1.0  0.26018  0.02090  0.84783  1.0000
  C   C1412     1.0  0.28114  0.99240  0.85839  1.0000
  H   H2442     1.0  0.37957  0.39557  0.51658  1.0000
  C   C1413     1.0  0.30066  0.02049  0.82973  1.0000
  C   C1414     1.0  0.24215  0.01777  0.86199  1.0000
  Fe  Fe166     1.0  0.34483  0.99154  0.63083  1.0000
  C   C1415     1.0  0.31628  0.02366  0.81304  1.0000
  C   C1416     1.0  0.23133  0.03557  0.86819  1.0000
  H   H2443     1.0  0.28150  0.01880  0.81444  1.0000
  H   H2444     1.0  0.29634  0.99756  0.82033  1.0000
  H   H2445     1.0  0.25626  0.03118  0.83562  1.0000
  H   H2446     1.0  0.26750  0.02794  0.85401  1.0000
  H   H2447     1.0  0.28569  0.00113  0.86533  1.0000
  C   C1417     1.0  0.37644  0.16644  0.84099  1.0000
  H   H2448     1.0  0.20833  0.15517  0.49500  1.0000
  H   H2449     1.0  0.32956  0.00121  0.69507  1.0000
  H   H2450     1.0  0.29281  0.03416  0.83239  1.0000
  H   H2451     1.0  0.30704  0.01310  0.84171  1.0000
  H   H2452     1.0  0.24522  0.00749  0.87444  1.0000
  H   H2453     1.0  0.23296  0.01290  0.85590  1.0000
  H   H2454     1.0  0.24401  0.01575  0.82213  1.0000
  H   H2455     1.0  0.26339  0.00471  0.80711  1.0000
  H   H2456     1.0  0.19288  0.21132  0.57131  1.0000
  C   C1418     1.0  0.21681  0.12150  0.92511  1.0000
  H   H2457     1.0  0.25438  0.10341  0.49086  1.0000
  H   H2458     1.0  0.32500  0.03199  0.81565  1.0000
  H   H2459     1.0  0.32514  0.01034  0.81036  1.0000
  C   C1419     1.0  0.36866  0.16190  0.71042  1.0000
  C   C1420     1.0  0.23891  0.13023  0.48024  1.0000
  H   H2460     1.0  0.32957  0.09160  0.72047  1.0000
  H   H2461     1.0  0.23286  0.19072  0.66466  1.0000
  H   H2462     1.0  0.29409  0.17604  0.52289  1.0000
  H   H2463     1.0  0.37687  0.15956  0.85552  1.0000
  C   C1421     1.0  0.30858  0.15717  0.73302  1.0000
  C   C1422     1.0  0.24077  0.12950  0.87448  1.0000
  H   H2464     1.0  0.25849  0.99536  0.59877  1.0000
  C   C1423     1.0  0.24332  0.16025  0.85640  1.0000
  N   N82       1.0  0.27601  0.43377  0.54111  1.0000
  C   C1424     1.0  0.33740  0.15756  0.70890  1.0000
  H   H2465     1.0  0.29756  0.14604  0.70698  1.0000
  C   C1425     1.0  0.28839  0.17672  0.68246  1.0000
  H   H2466     1.0  0.29342  0.41972  0.50790  1.0000
  C   C1426     1.0  0.29762  0.00352  0.55257  1.0000
  H   H2467     1.0  0.34370  0.23372  0.72985  1.0000
  C   C1427     1.0  0.29847  0.15746  0.76716  1.0000
  H   H2468     1.0  0.23317  0.98019  0.91454  1.0000
  H   H2469     1.0  0.34618  0.25632  0.73028  1.0000
  C   C1428     1.0  0.32725  0.27418  0.96380  1.0000
  H   H2470     1.0  0.27210  0.98006  0.83237  1.0000
  C   C1429     1.0  0.35192  0.15344  0.72102  1.0000
  H   H2471     1.0  0.20046  0.26630  0.59375  1.0000
  C   C1430     1.0  0.36986  0.12612  0.76150  1.0000
  H   H2472     1.0  0.30439  0.20779  0.56449  1.0000
  H   H2473     1.0  0.27385  0.11864  0.85541  1.0000
  C   C1431     1.0  0.26529  0.43319  0.56070  1.0000
  H   H2474     1.0  0.25211  0.22730  0.50901  1.0000
  C   C1432     1.0  0.24083  0.99070  0.81692  1.0000
  C   C1433     1.0  0.31152  0.14715  0.75268  1.0000
  H   H2475     1.0  0.33316  0.16878  0.49875  1.0000
  H   H2476     1.0  0.22170  0.13917  0.85480  1.0000
  H   H2477     1.0  0.20012  0.14872  0.92042  1.0000
  C   C1434     1.0  0.26377  0.14422  0.87875  1.0000
  H   H2478     1.0  0.18699  0.15714  0.47508  1.0000
  H   H2479     1.0  0.24799  0.11562  0.88040  1.0000
  H   H2480     1.0  0.22495  0.19689  0.85136  1.0000
  H   H2481     1.0  0.36157  0.25610  0.96256  1.0000
  C   C1435     1.0  0.33794  0.11783  0.70724  1.0000
  H   H2482     1.0  0.29592  0.40804  0.54248  1.0000
  C   C1436     1.0  0.31727  0.32804  0.51102  1.0000
  H   H2483     1.0  0.27602  0.15989  0.49048  1.0000
  H   H2484     1.0  0.28395  0.38171  0.52610  1.0000
  H   H2485     1.0  0.25016  0.15408  0.47876  1.0000
  C   C1437     1.0  0.22754  0.27115  0.59017  1.0000
  H   H2486     1.0  0.27413  0.13713  0.91259  1.0000
  H   H2487     1.0  0.18945  0.97610  0.81549  1.0000
  H   H2488     1.0  0.21583  0.20941  0.57465  1.0000
  C   C1438     1.0  0.21459  0.24567  0.61432  1.0000
  H   H2489     1.0  0.24365  0.04298  0.95102  1.0000
  H   H2490     1.0  0.31237  0.43166  0.51635  1.0000
  H   H2491     1.0  0.19967  0.23640  0.74309  1.0000
  C   C1439     1.0  0.22415  0.98370  0.90477  1.0000
  C   C1440     1.0  0.29224  0.44255  0.53888  1.0000
  H   H2492     1.0  0.21894  0.24907  0.58442  1.0000
  H   H2493     1.0  0.34301  0.98464  0.78586  1.0000
  S   S327      1.0  0.36075  0.19786  0.75291  1.0000
  H   H2494     1.0  0.20541  0.11303  0.86598  1.0000
  H   H2495     1.0  0.38422  0.21942  0.83248  1.0000
  H   H2496     1.0  0.21925  0.21531  0.60440  1.0000
  H   H2497     1.0  0.33068  0.11967  0.69587  1.0000
  H   H2498     1.0  0.35462  0.29072  0.59755  1.0000
  H   H2499     1.0  0.29555  0.38914  0.50276  1.0000
  H   H2500     1.0  0.37185  0.24240  0.83235  1.0000
  H   H2501     1.0  0.22878  0.23708  0.61356  1.0000
  C   C1441     1.0  0.36074  0.29102  0.58272  1.0000
  H   H2502     1.0  0.18903  0.19518  0.88620  1.0000
  H   H2503     1.0  0.34726  0.25265  0.67462  1.0000
  H   H2504     1.0  0.38376  0.19062  0.84345  1.0000
  H   H2505     1.0  0.23134  0.21894  0.64140  1.0000
  H   H2506     1.0  0.32331  0.23322  0.86093  1.0000
  H   H2507     1.0  0.32860  0.45740  0.50504  1.0000
  H   H2508     1.0  0.19070  0.18188  0.51654  1.0000
  C   C1442     1.0  0.37698  0.11238  0.75104  1.0000
  H   H2509     1.0  0.22753  0.04629  0.85625  1.0000
  H   H2510     1.0  0.18636  0.15223  0.86010  1.0000
  C   C1443     1.0  0.37250  0.18732  0.83889  1.0000
  S   S328      1.0  0.37310  0.98273  0.56644  1.0000
  H   H2511     1.0  0.30329  0.01235  0.73020  1.0000
  C   C1444     1.0  0.24526  0.00482  0.60232  1.0000
  C   C1445     1.0  0.32351  0.99770  0.71002  1.0000
  H   H2512     1.0  0.36201  0.33866  0.54173  1.0000
  C   C1446     1.0  0.34451  0.11072  0.77765  1.0000
  H   H2513     1.0  0.21389  0.20761  0.67350  1.0000
  S   S329      1.0  0.35495  0.02823  0.77527  1.0000
  C   C1447     1.0  0.19937  0.24498  0.72912  1.0000
  H   H2514     1.0  0.24042  0.19323  0.82975  1.0000
  H   H2515     1.0  0.27093  0.41406  0.51453  1.0000
  H   H2516     1.0  0.24513  0.20704  0.84326  1.0000
  H   H2517     1.0  0.32634  0.19336  0.88235  1.0000
  N   N83       1.0  0.34738  0.21479  0.84905  1.0000
  C   C1448     1.0  0.30760  0.21595  0.89281  1.0000
  H   H2518     1.0  0.26556  0.17649  0.84692  1.0000
  Fe  Fe167     1.0  0.35119  0.99099  0.59054  1.0000
  H   H2519     1.0  0.28098  0.31147  0.55924  1.0000
  H   H2520     1.0  0.28540  0.37010  0.56017  1.0000
  C   C1449     1.0  0.29326  0.39091  0.51718  1.0000
  C   C1450     1.0  0.24201  0.14989  0.47085  1.0000
  C   C1451     1.0  0.36459  0.24183  0.96046  1.0000
  H   H2521     1.0  0.33721  0.24857  0.64743  1.0000
  C   C1452     1.0  0.20416  0.21904  0.61004  1.0000
  H   H2522     1.0  0.22997  0.09286  0.92918  1.0000
  C   C1453     1.0  0.20177  0.22412  0.64101  1.0000
  H   H2523     1.0  0.22431  0.03318  0.96509  1.0000
  H   H2524     1.0  0.29811  0.33126  0.58428  1.0000
  H   H2525     1.0  0.30693  0.29400  0.58660  1.0000
  H   H2526     1.0  0.32708  0.31277  0.58801  1.0000
  H   H2527     1.0  0.19983  0.23428  0.64979  1.0000
  C   C1454     1.0  0.28466  0.41097  0.51834  1.0000
  H   H2528     1.0  0.25070  0.21905  0.94474  1.0000
  C   C1455     1.0  0.31238  0.22307  0.95959  1.0000
  H   H2529     1.0  0.30369  0.37980  0.56262  1.0000
  H   H2530     1.0  0.32411  0.22195  0.94769  1.0000
  N   N84       1.0  0.31822  0.97913  0.71483  1.0000
  H   H2531     1.0  0.35090  0.27506  0.66271  1.0000
  H   H2532     1.0  0.30140  0.15054  0.78100  1.0000
  H   H2533     1.0  0.30706  0.14289  0.52189  1.0000
  H   H2534     1.0  0.32816  0.31629  0.50698  1.0000
  H   H2535     1.0  0.32094  0.24536  0.83009  1.0000
  H   H2536     1.0  0.34572  0.33364  0.65762  1.0000
  H   H2537     1.0  0.25885  0.23913  0.52322  1.0000
  H   H2538     1.0  0.25024  0.18034  0.86807  1.0000
  C   C1456     1.0  0.25704  0.11733  0.48385  1.0000
  H   H2539     1.0  0.36567  0.16210  0.83657  1.0000
  H   H2540     1.0  0.33355  0.12421  0.73390  1.0000
  C   C1457     1.0  0.23962  0.19470  0.84400  1.0000
  C   C1458     1.0  0.38095  0.44555  0.62533  1.0000
  H   H2541     1.0  0.26605  0.47296  0.52757  1.0000
  H   H2542     1.0  0.31066  0.03115  0.80056  1.0000
  H   H2543     1.0  0.26137  0.45574  0.62006  1.0000
  C   C1459     1.0  0.29705  0.36765  0.56728  1.0000
  H   H2544     1.0  0.23692  0.05361  0.56133  1.0000
  H   H2545     1.0  0.28097  0.40646  0.57354  1.0000
  H   H2546     1.0  0.30303  0.98852  0.55365  1.0000
  C   C1460     1.0  0.22986  0.99547  0.60206  1.0000
  Fe  Fe168     1.0  0.20103  0.19448  0.92205  1.0000
  H   H2547     1.0  0.26321  0.12231  0.49290  1.0000
  H   H2548     1.0  0.24644  0.46601  0.54430  1.0000
  C   C1461     1.0  0.30567  0.29980  0.57195  1.0000
  H   H2549     1.0  0.32278  0.34952  0.56987  1.0000
  H   H2550     1.0  0.22113  0.05160  0.94537  1.0000
  H   H2551     1.0  0.28742  0.45611  0.54296  1.0000
  H   H2552     1.0  0.32001  0.30397  0.95747  1.0000
  C   C1462     1.0  0.30943  0.15327  0.70208  1.0000
  H   H2553     1.0  0.37321  0.08738  0.74564  1.0000
  H   H2554     1.0  0.27012  0.41122  0.60571  1.0000
  H   H2555     1.0  0.28352  0.19166  0.67756  1.0000
  H   H2556     1.0  0.20238  0.08207  0.92739  1.0000
  S   S330      1.0  0.20910  0.17270  0.94592  1.0000
  H   H2557     1.0  0.30453  0.11843  0.83418  1.0000
  C   C1463     1.0  0.21743  0.10268  0.92701  1.0000
  H   H2558     1.0  0.33863  0.28168  0.57765  1.0000
  H   H2559     1.0  0.32304  0.22017  0.49646  1.0000
  C   C1464     1.0  0.32587  0.12825  0.72249  1.0000
  H   H2560     1.0  0.22917  0.16300  0.86507  1.0000
  H   H2561     1.0  0.23051  0.46782  0.51915  1.0000
  H   H2562     1.0  0.31191  0.44973  0.57990  1.0000
  N   N85       1.0  0.31656  0.28271  0.68731  1.0000
  C   C1465     1.0  0.32958  0.27534  0.70059  1.0000
  C   C1466     1.0  0.31617  0.30302  0.68012  1.0000
  C   C1467     1.0  0.29739  0.28066  0.69808  1.0000
  C   C1468     1.0  0.32137  0.27253  0.67163  1.0000
  C   C1469     1.0  0.34217  0.26494  0.66460  1.0000
  C   C1470     1.0  0.32874  0.25562  0.71193  1.0000
  C   C1471     1.0  0.28129  0.29004  0.68781  1.0000
  C   C1472     1.0  0.33473  0.30881  0.66991  1.0000
  C   C1473     1.0  0.33254  0.32972  0.66581  1.0000
  C   C1474     1.0  0.20184  0.09657  0.92602  1.0000
  C   C1475     1.0  0.34531  0.24743  0.72122  1.0000
  C   C1476     1.0  0.26323  0.28422  0.69876  1.0000
  H   H2563     1.0  0.32668  0.28446  0.71068  1.0000
  H   H2564     1.0  0.34412  0.27547  0.69346  1.0000
  H   H2565     1.0  0.30687  0.30875  0.67005  1.0000
  H   H2566     1.0  0.31032  0.31055  0.69168  1.0000
  H   H2567     1.0  0.29425  0.28616  0.71094  1.0000
  H   H2568     1.0  0.29658  0.26584  0.70263  1.0000
  H   H2569     1.0  0.31460  0.26040  0.67545  1.0000
  H   H2570     1.0  0.31557  0.28142  0.65971  1.0000
  H   H2571     1.0  0.37296  0.19335  0.82411  1.0000
  H   H2572     1.0  0.34303  0.18863  0.84723  1.0000
  H   H2573     1.0  0.31610  0.25583  0.72298  1.0000
  H   H2574     1.0  0.32833  0.24641  0.70305  1.0000
  H   H2575     1.0  0.28434  0.28653  0.67403  1.0000
  H   H2576     1.0  0.27891  0.30522  0.68599  1.0000
  H   H2577     1.0  0.34571  0.30306  0.67805  1.0000
  H   H2578     1.0  0.20949  0.18945  0.66502  1.0000
  H   H2579     1.0  0.30686  0.23050  0.89319  1.0000
  H   H2580     1.0  0.32161  0.33639  0.65767  1.0000
  S   S331      1.0  0.36349  0.04707  0.69126  1.0000
  C   C1477     1.0  0.34243  0.09715  0.71486  1.0000
  C   C1478     1.0  0.29769  0.97647  0.85419  1.0000
  H   H2581     1.0  0.37012  0.45740  0.62757  1.0000
  H   H2582     1.0  0.19352  0.09916  0.96489  1.0000
  H   H2583     1.0  0.21701  0.98274  0.50650  1.0000
  C   C1479     1.0  0.32607  0.20814  0.88131  1.0000
  H   H2584     1.0  0.26465  0.26908  0.70108  1.0000
  H   H2585     1.0  0.32356  0.97532  0.74222  1.0000
  S   S332      1.0  0.38078  0.14483  0.75717  1.0000
  C   C1480     1.0  0.33192  0.31212  0.57319  1.0000
  H   H2586     1.0  0.29231  0.00901  0.53961  1.0000
  C   C1481     1.0  0.31450  0.03216  0.70778  1.0000
  C   C1482     1.0  0.25133  0.22097  0.95807  1.0000
  C   C1483     1.0  0.25491  0.46511  0.53037  1.0000
  C   C1484     1.0  0.31940  0.45603  0.51887  1.0000
  H   H2587     1.0  0.33297  0.26805  0.80406  1.0000
  H   H2588     1.0  0.34144  0.27105  0.63535  1.0000
  C   C1485     1.0  0.32091  0.20567  0.47664  1.0000
  H   H2589     1.0  0.33194  0.11014  0.78798  1.0000
  S   S333      1.0  0.36570  0.33288  0.50551  1.0000
  H   H2590     1.0  0.24445  0.03418  0.62153  1.0000
  C   C1486     1.0  0.26074  0.47362  0.59341  1.0000
  C   C1487     1.0  0.33618  0.24417  0.82618  1.0000
  H   H2591     1.0  0.27121  0.99985  0.56899  1.0000
  H   H2592     1.0  0.36591  0.21217  0.86724  1.0000
  H   H2593     1.0  0.19555  0.14247  0.60015  1.0000
  C   C1488     1.0  0.25945  0.23508  0.95935  1.0000
  H   H2594     1.0  0.29166  0.36594  0.58237  1.0000
  S   S334      1.0  0.35492  0.01120  0.60543  1.0000
  H   H2595     1.0  0.37590  0.98303  0.68439  1.0000
  H   H2596     1.0  0.24112  0.02265  0.57608  1.0000
  C   C1489     1.0  0.30297  0.33328  0.56907  1.0000
  H   H2597     1.0  0.35034  0.37056  0.48976  1.0000
  H   H2598     1.0  0.29827  0.22661  0.53429  1.0000
  H   H2599     1.0  0.26749  0.11616  0.89592  1.0000
  H   H2600     1.0  0.34756  0.04746  0.66083  1.0000
  H   H2601     1.0  0.19238  0.99645  0.86939  1.0000
  N   N86       1.0  0.32066  0.14893  0.71689  1.0000
  H   H2602     1.0  0.32897  0.33497  0.67878  1.0000
  H   H2603     1.0  0.26990  0.44531  0.51381  1.0000
  H   H2604     1.0  0.27620  0.17055  0.68992  1.0000
  H   H2605     1.0  0.32587  0.14587  0.75410  1.0000
  C   C1490     1.0  0.26924  0.45990  0.60639  1.0000
  H   H2606     1.0  0.25564  0.43279  0.59793  1.0000
  C   C1491     1.0  0.19749  0.00302  0.89325  1.0000
  C   C1492     1.0  0.34564  0.29354  0.57192  1.0000
  H   H2607     1.0  0.33127  0.30436  0.54046  1.0000
  H   H2608     1.0  0.28791  0.00039  0.58175  1.0000
  H   H2609     1.0  0.19001  0.01064  0.50913  1.0000
  C   C1493     1.0  0.35066  0.36968  0.50399  1.0000
  C   C1494     1.0  0.20072  0.13418  0.92195  1.0000
  H   H2610     1.0  0.28502  0.21254  0.49665  1.0000
  S   S335      1.0  0.20597  0.01158  0.92282  1.0000
  H   H2611     1.0  0.26819  0.19725  0.52581  1.0000
  C   C1495     1.0  0.27535  0.42058  0.57605  1.0000
  H   H2612     1.0  0.26813  0.03217  0.55589  1.0000
  C   C1496     1.0  0.19165  0.29385  0.66249  1.0000
  C   C1497     1.0  0.29800  0.13149  0.82606  1.0000
  C   C1498     1.0  0.24626  0.06189  0.56285  1.0000
  H   H2613     1.0  0.35255  0.29305  0.55741  1.0000
  C   C1499     1.0  0.28924  0.21315  0.50934  1.0000
  H   H2614     1.0  0.25222  0.98706  0.84832  1.0000
  C   C1500     1.0  0.25100  0.17774  0.85429  1.0000
  N   N87       1.0  0.31551  0.31583  0.56416  1.0000
  H   H2615     1.0  0.31670  0.35347  0.54763  1.0000
  C   C1501     1.0  0.28480  0.13088  0.90187  1.0000
  H   H2616     1.0  0.34021  0.39870  0.50305  1.0000
  C   C1502     1.0  0.37868  0.43310  0.61569  1.0000
  H   H2617     1.0  0.25782  0.06237  0.55066  1.0000
  H   H2618     1.0  0.32715  0.03153  0.71275  1.0000
  C   C1503     1.0  0.22043  0.21092  0.64354  1.0000
  H   H2619     1.0  0.31239  0.28839  0.56443  1.0000
  H   H2620     1.0  0.32069  0.19171  0.47516  1.0000
  H   H2621     1.0  0.25833  0.05140  0.61563  1.0000
  H   H2622     1.0  0.38349  0.22640  0.94048  1.0000
  H   H2623     1.0  0.20382  0.13642  0.47739  1.0000
  C   C1504     1.0  0.24408  0.02400  0.58914  1.0000
  H   H2624     1.0  0.22923  0.23824  0.72060  1.0000
  H   H2625     1.0  0.29818  0.20622  0.95121  1.0000
  C   C1505     1.0  0.30365  0.20625  0.96334  1.0000
  C   C1506     1.0  0.28669  0.98691  0.67920  1.0000
  H   H2626     1.0  0.31403  0.19339  0.96602  1.0000
  C   C1507     1.0  0.28935  0.47032  0.57097  1.0000
  H   H2627     1.0  0.22825  0.99062  0.82795  1.0000
  H   H2628     1.0  0.37058  0.27781  0.58141  1.0000
  C   C1508     1.0  0.19516  0.11099  0.51126  1.0000
  H   H2629     1.0  0.36023  0.25304  0.64192  1.0000
  H   H2630     1.0  0.28710  0.12048  0.87776  1.0000
  H   H2631     1.0  0.35833  0.24570  0.71077  1.0000
  H   H2632     1.0  0.27542  0.20969  0.53862  1.0000
  H   H2633     1.0  0.34451  0.15374  0.69540  1.0000
  H   H2634     1.0  0.28385  0.27725  0.56716  1.0000
  H   H2635     1.0  0.29778  0.33580  0.53450  1.0000
  H   H2636     1.0  0.22495  0.20147  0.63378  1.0000
  H   H2637     1.0  0.35035  0.09414  0.72594  1.0000
  H   H2638     1.0  0.26056  0.13207  0.83916  1.0000
  C   C1509     1.0  0.26305  0.44482  0.52847  1.0000
  H   H2639     1.0  0.30678  0.38675  0.52151  1.0000
  H   H2640     1.0  0.30677  0.33115  0.50235  1.0000
  H   H2641     1.0  0.28906  0.98726  0.71397  1.0000
  C   C1510     1.0  0.34539  0.25907  0.64621  1.0000
  Fe  Fe169     1.0  0.36231  0.03949  0.72190  1.0000
  H   H2642     1.0  0.29567  0.01519  0.70909  1.0000
  S   S336      1.0  0.22136  0.18038  0.90073  1.0000
  S   S337      1.0  0.32201  0.00511  0.58796  1.0000
  H   H2643     1.0  0.30363  0.04351  0.71268  1.0000
  H   H2644     1.0  0.28810  0.99271  0.66424  1.0000
  H   H2645     1.0  0.38421  0.37853  0.48798  1.0000
  H   H2646     1.0  0.27416  0.99510  0.68655  1.0000
  C   C1511     1.0  0.27722  0.28593  0.57760  1.0000
  N   N88       1.0  0.25430  0.14194  0.86457  1.0000
  H   H2647     1.0  0.37371  0.41095  0.48712  1.0000
  H   H2648     1.0  0.33316  0.17276  0.70575  1.0000
  H   H2649     1.0  0.35943  0.22213  0.81990  1.0000
  H   H2650     1.0  0.30843  0.13313  0.75604  1.0000
  C   C1512     1.0  0.25577  0.22595  0.52250  1.0000
  H   H2651     1.0  0.29370  0.15779  0.73351  1.0000
  H   H2652     1.0  0.36618  0.43541  0.61050  1.0000
  C   C1513     1.0  0.30815  0.32345  0.53137  1.0000
  S   S338      1.0  0.33835  0.08043  0.76979  1.0000
  H   H2653     1.0  0.21855  0.25935  0.70747  1.0000
  H   H2654     1.0  0.24424  0.09025  0.56472  1.0000
  H   H2655     1.0  0.35121  0.12257  0.70155  1.0000
  H   H2656     1.0  0.27833  0.15611  0.82988  1.0000
  H   H2657     1.0  0.29885  0.18171  0.49869  1.0000
  H   H2658     1.0  0.29128  0.14608  0.84800  1.0000
  H   H2659     1.0  0.29118  0.22750  0.50718  1.0000
  H   H2660     1.0  0.18702  0.27197  0.73569  1.0000
  S   S339      1.0  0.18762  0.14551  0.54623  1.0000
  H   H2661     1.0  0.18744  0.98529  0.49689  1.0000
  H   H2662     1.0  0.29021  0.33658  0.56351  1.0000
  C   C1514     1.0  0.31297  0.29210  0.96145  1.0000
  Fe  Fe170     1.0  0.31403  0.98604  0.61472  1.0000
  H   H2663     1.0  0.25199  0.42881  0.56236  1.0000
  H   H2664     1.0  0.32359  0.34030  0.50821  1.0000
  H   H2665     1.0  0.32747  0.16303  0.52353  1.0000
  C   C1515     1.0  0.20913  0.99856  0.90591  1.0000
  H   H2666     1.0  0.30034  0.17189  0.76430  1.0000
  C   C1516     1.0  0.31774  0.14729  0.50981  1.0000
  H   H2667     1.0  0.31331  0.18101  0.68707  1.0000
  H   H2668     1.0  0.29533  0.17044  0.67027  1.0000
  C   C1517     1.0  0.27881  0.17176  0.47988  1.0000
  H   H2669     1.0  0.33723  0.27400  0.95047  1.0000
  H   H2670     1.0  0.26546  0.06078  0.57974  1.0000
  H   H2671     1.0  0.23134  0.03283  0.59551  1.0000
  H   H2672     1.0  0.20292  0.19717  0.48434  1.0000
  H   H2673     1.0  0.33725  0.24640  0.79697  1.0000
  H   H2674     1.0  0.31311  0.12242  0.72810  1.0000
  H   H2675     1.0  0.30983  0.17173  0.73127  1.0000
  H   H2676     1.0  0.30604  0.20787  0.90714  1.0000
  H   H2677     1.0  0.19531  0.23687  0.58479  1.0000
  H   H2678     1.0  0.29445  0.18122  0.70661  1.0000
  H   H2679     1.0  0.24118  0.15992  0.84263  1.0000
  C   C1518     1.0  0.31532  0.21405  0.55407  1.0000
  H   H2680     1.0  0.28617  0.03483  0.56525  1.0000
  H   H2681     1.0  0.37904  0.15883  0.71919  1.0000
  H   H2682     1.0  0.31512  0.22749  0.55720  1.0000
  C   C1519     1.0  0.28247  0.41419  0.53808  1.0000
  H   H2683     1.0  0.27257  0.40546  0.54687  1.0000
  C   C1520     1.0  0.31173  0.21697  0.53468  1.0000
  H   H2684     1.0  0.20034  0.20601  0.61880  1.0000
  H   H2685     1.0  0.29592  0.21518  0.88701  1.0000
  H   H2686     1.0  0.32266  0.22367  0.52486  1.0000
  C   C1521     1.0  0.18525  0.25847  0.67857  1.0000
  H   H2687     1.0  0.22287  0.08196  0.57372  1.0000
  C   C1522     1.0  0.22856  0.12615  0.86265  1.0000
  C   C1523     1.0  0.33036  0.97940  0.79099  1.0000
  H   H2688     1.0  0.31274  0.14873  0.49700  1.0000
  H   H2689     1.0  0.30546  0.29274  0.95054  1.0000
  H   H2690     1.0  0.25329  0.15023  0.88981  1.0000
  H   H2691     1.0  0.23131  0.08760  0.54920  1.0000
  C   C1524     1.0  0.30389  0.98758  0.68567  1.0000
  H   H2692     1.0  0.32583  0.18989  0.53058  1.0000
  H   H2693     1.0  0.28697  0.42630  0.57705  1.0000
  H   H2694     1.0  0.22924  0.07289  0.96031  1.0000
  H   H2695     1.0  0.27497  0.01358  0.60530  1.0000
  H   H2696     1.0  0.30956  0.98155  0.84430  1.0000
  H   H2697     1.0  0.32901  0.20502  0.55524  1.0000
  H   H2698     1.0  0.30920  0.01016  0.55199  1.0000
  C   C1525     1.0  0.22863  0.04615  0.95692  1.0000
  H   H2699     1.0  0.30242  0.19099  0.54144  1.0000
  C   C1526     1.0  0.26224  0.41898  0.59483  1.0000
  H   H2700     1.0  0.27985  0.27803  0.59127  1.0000
  H   H2701     1.0  0.23708  0.11745  0.85274  1.0000
  H   H2702     1.0  0.31776  0.14818  0.68956  1.0000
  H   H2703     1.0  0.33464  0.99745  0.71714  1.0000
  H   H2704     1.0  0.19798  0.23636  0.72005  1.0000
  C   C1527     1.0  0.29848  0.98121  0.79002  1.0000
  S   S340      1.0  0.36702  0.01055  0.73797  1.0000
  C   C1528     1.0  0.30182  0.17404  0.69515  1.0000
  C   C1529     1.0  0.20110  0.99276  0.87941  1.0000
  H   H2705     1.0  0.31600  0.97958  0.67762  1.0000
  H   H2706     1.0  0.25926  0.28846  0.71229  1.0000
  H   H2707     1.0  0.37710  0.00777  0.69923  1.0000
  C   C1530     1.0  0.30483  0.44520  0.51957  1.0000
  H   H2708     1.0  0.21843  0.03298  0.87814  1.0000
  H   H2709     1.0  0.26933  0.01241  0.63787  1.0000
  H   H2710     1.0  0.30111  0.31192  0.53310  1.0000
  C   C1531     1.0  0.35356  0.19424  0.85069  1.0000
  H   H2711     1.0  0.33605  0.19748  0.49892  1.0000
  H   H2712     1.0  0.20098  0.19480  0.59035  1.0000
  H   H2713     1.0  0.28325  0.03410  0.59671  1.0000
  C   C1532     1.0  0.21811  0.25068  0.72152  1.0000
  H   H2714     1.0  0.31811  0.21442  0.85495  1.0000
  H   H2715     1.0  0.29284  0.11799  0.90878  1.0000
  H   H2716     1.0  0.29144  0.12841  0.81607  1.0000
  C   C1533     1.0  0.25883  0.03637  0.61819  1.0000
  H   H2717     1.0  0.27706  0.31194  0.58321  1.0000
  C   C1534     1.0  0.31142  0.35078  0.56273  1.0000
  C   C1535     1.0  0.27583  0.12660  0.88810  1.0000
  H   H2718     1.0  0.36850  0.30238  0.57732  1.0000
  S   S341      1.0  0.23626  0.12912  0.92635  1.0000
  H   H2719     1.0  0.35584  0.25397  0.80183  1.0000
  H   H2720     1.0  0.32801  0.44876  0.52929  1.0000
  C   C1536     1.0  0.32238  0.20584  0.49646  1.0000
  C   C1537     1.0  0.36024  0.22249  0.85591  1.0000
  C   C1538     1.0  0.23550  0.08162  0.56268  1.0000
  H   H2721     1.0  0.35694  0.13847  0.72527  1.0000
  C   C1539     1.0  0.25403  0.05372  0.58071  1.0000
  H   H2722     1.0  0.20883  0.13180  0.96600  1.0000
  H   H2723     1.0  0.23131  0.99268  0.58817  1.0000
  H   H2724     1.0  0.30013  0.98310  0.74087  1.0000
  S   S342      1.0  0.37872  0.22638  0.77903  1.0000
  H   H2725     1.0  0.30904  0.13921  0.81821  1.0000
  H   H2726     1.0  0.35460  0.18735  0.86510  1.0000
  C   C1540     1.0  0.34577  0.22356  0.82939  1.0000
  C   C1541     1.0  0.34087  0.25367  0.80601  1.0000
  H   H2727     1.0  0.23958  0.04068  0.87518  1.0000
  H   H2728     1.0  0.25203  0.29089  0.69096  1.0000
  C   C1542     1.0  0.20137  0.20880  0.58186  1.0000
  H   H2729     1.0  0.30147  0.43425  0.54844  1.0000
  H   H2730     1.0  0.24298  0.05823  0.59219  1.0000
  Fe  Fe171     1.0  0.35132  0.05594  0.75651  1.0000
  C   C1543     1.0  0.21378  0.16756  0.48692  1.0000
  H   H2731     1.0  0.22088  0.25841  0.73067  1.0000
  C   C1544     1.0  0.21338  0.11613  0.87473  1.0000
  N   N89       1.0  0.26056  0.03307  0.58498  1.0000
  C   C1545     1.0  0.27026  0.02860  0.60096  1.0000
  C   C1546     1.0  0.27437  0.02767  0.56831  1.0000
  C   C1547     1.0  0.32271  0.31764  0.54368  1.0000
  Fe  Fe172     1.0  0.37022  0.33718  0.47461  1.0000
  C   C1548     1.0  0.21433  0.25785  0.59490  1.0000
  H   H2732     1.0  0.37528  0.15610  0.69788  1.0000
  H   H2733     1.0  0.34365  0.24192  0.94563  1.0000
  S   S343      1.0  0.31520  0.00505  0.63218  1.0000
  H   H2734     1.0  0.33237  0.32737  0.53869  1.0000
  H   H2735     1.0  0.18652  0.13384  0.96064  1.0000
  H   H2736     1.0  0.19049  0.21621  0.64719  1.0000
  H   H2737     1.0  0.30821  0.21512  0.47293  1.0000
  H   H2738     1.0  0.31030  0.97465  0.87735  1.0000
  C   C1549     1.0  0.18574  0.10933  0.92282  1.0000
  H   H2739     1.0  0.26321  0.21789  0.46864  1.0000
  S   S344      1.0  0.28818  0.97419  0.62234  1.0000
  C   C1550     1.0  0.31775  0.85087  0.05784  1.0000
  H   H2740     1.0  0.37472  0.76940  0.20015  1.0000
  H   H2741     1.0  0.27769  0.78752  0.19491  1.0000
  Fe  Fe173     1.0  0.24701  0.67748  0.06033  1.0000
  S   S345      1.0  0.27469  0.65869  0.05619  1.0000
  S   S346      1.0  0.24058  0.70443  0.06973  1.0000
  Fe  Fe174     1.0  0.22807  0.65191  0.05023  1.0000
  S   S347      1.0  0.25420  0.63095  0.04516  1.0000
  S   S348      1.0  0.19958  0.64932  0.04949  1.0000
  Fe  Fe175     1.0  0.25953  0.63587  0.07086  1.0000
  S   S349      1.0  0.26870  0.61452  0.09483  1.0000
  Fe  Fe176     1.0  0.26705  0.65550  0.03083  1.0000
  S   S350      1.0  0.23233  0.65497  0.07706  1.0000
  S   S351      1.0  0.24041  0.67612  0.03382  1.0000
  Fe  Fe177     1.0  0.30398  0.74061  0.16059  1.0000
  S   S352      1.0  0.28154  0.76539  0.16456  1.0000
  S   S353      1.0  0.32813  0.72840  0.17490  1.0000
  Fe  Fe178     1.0  0.29126  0.73490  0.12822  1.0000
  S   S354      1.0  0.26770  0.75910  0.12930  1.0000
  S   S355      1.0  0.30024  0.71642  0.10743  1.0000
  Fe  Fe179     1.0  0.28776  0.77377  0.13379  1.0000
  S   S356      1.0  0.28649  0.80333  0.11880  1.0000
  Fe  Fe180     1.0  0.26297  0.74906  0.15990  1.0000
  S   S357      1.0  0.23479  0.74930  0.17861  1.0000
  S   S358      1.0  0.31182  0.75046  0.13001  1.0000
  S   S359      1.0  0.28498  0.72340  0.15858  1.0000
  C   C1551     1.0  0.21419  0.62806  0.02330  1.0000
  H   H2742     1.0  0.26249  0.71803  0.99502  1.0000
  C   C1552     1.0  0.37798  0.56992  0.17550  1.0000
  H   H2743     1.0  0.22623  0.72169  0.44450  1.0000
  Fe  Fe181     1.0  0.32948  0.90596  0.07970  1.0000
  S   S360      1.0  0.35621  0.91531  0.06658  1.0000
  S   S361      1.0  0.30461  0.92159  0.06760  1.0000
  Fe  Fe182     1.0  0.34772  0.87254  0.10448  1.0000
  C   C1553     1.0  0.20522  0.83135  0.13805  1.0000
  S   S362      1.0  0.34540  0.84573  0.12501  1.0000
  H   H2744     1.0  0.24699  0.60372  0.46409  1.0000
  Fe  Fe183     1.0  0.36834  0.88574  0.06585  1.0000
  H   H2745     1.0  0.25737  0.68266  0.99586  1.0000
  S   S363      1.0  0.33367  0.90123  0.10867  1.0000
  S   S364      1.0  0.34121  0.87676  0.07659  1.0000
  H   H2746     1.0  0.25612  0.58512  0.05322  1.0000
  H   H2747     1.0  0.28370  0.67242  0.43119  1.0000
  H   H2748     1.0  0.26695  0.55409  0.06059  1.0000
  H   H2749     1.0  0.34842  0.57251  0.20088  1.0000
  C   C1554     1.0  0.33451  0.79054  0.29581  1.0000
  C   C1555     1.0  0.28293  0.47708  0.20050  1.0000
  S   S365      1.0  0.34509  0.49203  0.08868  1.0000
  Fe  Fe184     1.0  0.32443  0.51525  0.09960  1.0000
  C   C1556     1.0  0.22295  0.47843  0.40325  1.0000
  S   S366      1.0  0.30931  0.53571  0.07882  1.0000
  C   C1557     1.0  0.26662  0.69740  0.96851  1.0000
  H   H2750     1.0  0.21557  0.57427  0.04080  1.0000
  C   C1558     1.0  0.37216  0.80519  0.46180  1.0000
  N   N90       1.0  0.28449  0.72319  0.00481  1.0000
  H   H2751     1.0  0.36507  0.83183  0.16859  1.0000
  H   H2752     1.0  0.35422  0.48422  0.32524  1.0000
  S   S367      1.0  0.32276  0.50639  0.16730  1.0000
  C   C1559     1.0  0.19525  0.58813  0.42455  1.0000
  S   S368      1.0  0.34365  0.52112  0.11432  1.0000
  Fe  Fe185     1.0  0.22674  0.68187  0.43827  1.0000
  S   S369      1.0  0.24676  0.66681  0.41734  1.0000
  H   H2753     1.0  0.34149  0.60667  0.12951  1.0000
  C   C1560     1.0  0.22620  0.58335  0.07860  1.0000
  Fe  Fe186     1.0  0.22445  0.65134  0.42046  1.0000
  Fe  Fe187     1.0  0.23228  0.68785  0.39675  1.0000
  S   S370      1.0  0.24553  0.70118  0.36843  1.0000
  S   S371      1.0  0.21386  0.70435  0.41734  1.0000
  C   C1561     1.0  0.20602  0.49344  0.37299  1.0000
  H   H2754     1.0  0.19700  0.75010  0.29576  1.0000
  Fe  Fe188     1.0  0.34269  0.70358  0.27567  1.0000
  S   S372      1.0  0.33145  0.68114  0.29727  1.0000
  S   S373      1.0  0.32286  0.72465  0.25965  1.0000
  Fe  Fe189     1.0  0.34469  0.68900  0.31619  1.0000
  S   S374      1.0  0.33261  0.68744  0.34636  1.0000
  Fe  Fe190     1.0  0.35896  0.66313  0.28915  1.0000
  H   H2755     1.0  0.32017  0.57588  0.18710  1.0000
  S   S375      1.0  0.35351  0.71320  0.29562  1.0000
  C   C1562     1.0  0.20441  0.56486  0.37921  1.0000
  S   S376      1.0  0.35563  0.53769  0.24226  1.0000
  C   C1563     1.0  0.32655  0.49441  0.29780  1.0000
  H   H2756     1.0  0.36272  0.76378  0.23375  1.0000
  Fe  Fe191     1.0  0.35768  0.52084  0.27064  1.0000
  S   S377      1.0  0.33242  0.51616  0.29276  1.0000
  H   H2757     1.0  0.28065  0.94461  0.97494  1.0000
  C   C1564     1.0  0.38154  0.81967  0.06796  1.0000
  C   C1565     1.0  0.19847  0.49982  0.38946  1.0000
  C   C1566     1.0  0.25859  0.95846  0.08293  1.0000
  H   H2758     1.0  0.28589  0.74495  0.05744  1.0000
  H   H2759     1.0  0.33277  0.95925  0.08683  1.0000
  H   H2760     1.0  0.30238  0.96956  0.11968  1.0000
  C   C1567     1.0  0.37663  0.47640  0.05017  1.0000
  C   C1568     1.0  0.27924  0.62734  0.97538  1.0000
  H   H2761     1.0  0.33525  0.79394  0.32265  1.0000
  H   H2762     1.0  0.37568  0.77050  0.32511  1.0000
  H   H2763     1.0  0.22787  0.47491  0.35881  1.0000
  H   H2764     1.0  0.20810  0.59505  0.04881  1.0000
  H   H2765     1.0  0.21460  0.61902  0.46281  1.0000
  S   S378      1.0  0.23734  0.96727  0.11541  1.0000
  H   H2766     1.0  0.34953  0.64831  0.34305  1.0000
  C   C1569     1.0  0.33278  0.83390  0.05476  1.0000
  H   H2767     1.0  0.22002  0.55813  0.45204  1.0000
  C   C1570     1.0  0.26975  0.69674  0.36237  1.0000
  C   C1571     1.0  0.27836  0.70268  0.34410  1.0000
  C   C1572     1.0  0.29770  0.69954  0.33895  1.0000
  C   C1573     1.0  0.30846  0.69059  0.35212  1.0000
  C   C1574     1.0  0.29989  0.68438  0.37030  1.0000
  C   C1575     1.0  0.28056  0.68746  0.37545  1.0000
  H   H2768     1.0  0.27004  0.70985  0.33394  1.0000
  H   H2769     1.0  0.30425  0.70442  0.32489  1.0000
  H   H2770     1.0  0.30824  0.67705  0.38034  1.0000
  H   H2771     1.0  0.27406  0.68285  0.38953  1.0000
  C   C1576     1.0  0.34056  0.50570  0.17843  1.0000
  C   C1577     1.0  0.33617  0.51198  0.19501  1.0000
  C   C1578     1.0  0.35020  0.51170  0.20404  1.0000
  C   C1579     1.0  0.36864  0.50498  0.19661  1.0000
  H   H2772     1.0  0.24136  0.50516  0.44141  1.0000
  C   C1580     1.0  0.35900  0.49897  0.17102  1.0000
  H   H2773     1.0  0.32192  0.51726  0.20073  1.0000
  H   H2774     1.0  0.34680  0.51661  0.21677  1.0000
  H   H2775     1.0  0.37611  0.83153  0.03281  1.0000
  H   H2776     1.0  0.22190  0.91035  0.12940  1.0000
  H   H2777     1.0  0.22924  0.75098  0.45075  1.0000
  H   H2778     1.0  0.31728  0.84862  0.98881  1.0000
  H   H2779     1.0  0.22834  0.60974  0.09729  1.0000
  H   H2780     1.0  0.34377  0.73904  0.35403  1.0000
  H   H2781     1.0  0.24262  0.50438  0.40925  1.0000
  H   H2782     1.0  0.29010  0.95564  0.98762  1.0000
  C   C1581     1.0  0.18774  0.52311  0.03674  1.0000
  H   H2783     1.0  0.27124  0.58388  0.00309  1.0000
  C   C1582     1.0  0.22846  0.81283  0.16489  1.0000
  H   H2784     1.0  0.20243  0.51881  0.03015  1.0000
  C   C1583     1.0  0.30912  0.87572  0.97212  1.0000
  H   H2785     1.0  0.19192  0.95510  0.06581  1.0000
  C   C1584     1.0  0.21063  0.61288  0.42321  1.0000
  H   H2786     1.0  0.29481  0.71321  0.97927  1.0000
  H   H2787     1.0  0.32457  0.75877  0.32129  1.0000
  H   H2788     1.0  0.31066  0.72303  0.98533  1.0000
  H   H2789     1.0  0.32674  0.82160  0.06184  1.0000
  C   C1585     1.0  0.26593  0.58916  0.01606  1.0000
  C   C1586     1.0  0.35990  0.82438  0.45645  1.0000
  C   C1587     1.0  0.34824  0.56263  0.19244  1.0000
  C   C1588     1.0  0.36966  0.59674  0.25169  1.0000
  C   C1589     1.0  0.36843  0.85739  0.00066  1.0000
  C   C1590     1.0  0.35591  0.86593  0.01430  1.0000
  C   C1591     1.0  0.36230  0.87304  0.02617  1.0000
  H   H2790     1.0  0.25591  0.80263  0.17115  1.0000
  H   H2791     1.0  0.30010  0.75376  0.03595  1.0000
  H   H2792     1.0  0.34127  0.86662  0.01602  1.0000
  H   H2793     1.0  0.35258  0.87945  0.03677  1.0000
  C   C1592     1.0  0.28625  0.93433  0.08116  1.0000
  C   C1593     1.0  0.27351  0.94816  0.07251  1.0000
  N   N91       1.0  0.35975  0.56722  0.17332  1.0000
  C   C1594     1.0  0.25619  0.95481  0.10210  1.0000
  C   C1595     1.0  0.26883  0.94090  0.11080  1.0000
  C   C1596     1.0  0.28390  0.93072  0.10035  1.0000
  C   C1597     1.0  0.19702  0.92470  0.11900  1.0000
  C   C1598     1.0  0.24376  0.56323  0.39245  1.0000
  H   H2794     1.0  0.26699  0.93802  0.12564  1.0000
  H   H2795     1.0  0.29357  0.91998  0.10712  1.0000
  C   C1599     1.0  0.30293  0.81487  0.12072  1.0000
  C   C1600     1.0  0.30259  0.83314  0.11139  1.0000
  C   C1601     1.0  0.31556  0.84272  0.11262  1.0000
  C   C1602     1.0  0.32907  0.83400  0.12306  1.0000
  C   C1603     1.0  0.32954  0.81562  0.13220  1.0000
  C   C1604     1.0  0.31639  0.80612  0.13122  1.0000
  H   H2796     1.0  0.29226  0.83991  0.10318  1.0000
  H   H2797     1.0  0.31495  0.85692  0.10566  1.0000
  H   H2798     1.0  0.34025  0.80869  0.13983  1.0000
  H   H2799     1.0  0.31675  0.79198  0.13833  1.0000
  C   C1605     1.0  0.32588  0.72663  0.19871  1.0000
  C   C1606     1.0  0.30999  0.73547  0.20924  1.0000
  C   C1607     1.0  0.30918  0.73467  0.22797  1.0000
  C   C1608     1.0  0.32404  0.72467  0.23635  1.0000
  C   C1609     1.0  0.33981  0.71560  0.22587  1.0000
  C   C1610     1.0  0.34080  0.71678  0.20705  1.0000
  H   H2800     1.0  0.29842  0.74305  0.20292  1.0000
  H   H2801     1.0  0.29695  0.74172  0.23602  1.0000
  H   H2802     1.0  0.35137  0.70796  0.23217  1.0000
  H   H2803     1.0  0.35315  0.70996  0.19893  1.0000
  C   C1611     1.0  0.21495  0.75831  0.16889  1.0000
  C   C1612     1.0  0.21622  0.76247  0.14982  1.0000
  C   C1613     1.0  0.30346  0.47524  0.31120  1.0000
  S   S379      1.0  0.37161  0.66985  0.30950  1.0000
  H   H2804     1.0  0.19916  0.55693  0.06855  1.0000
  H   H2805     1.0  0.22618  0.74043  0.01019  1.0000
  H   H2806     1.0  0.22943  0.75958  0.14077  1.0000
  H   H2807     1.0  0.33952  0.82033  0.19232  1.0000
  H   H2808     1.0  0.19666  0.80554  0.15429  1.0000
  H   H2809     1.0  0.23727  0.52810  0.34573  1.0000
  C   C1614     1.0  0.28041  0.59277  0.09022  1.0000
  C   C1615     1.0  0.28641  0.57882  0.10449  1.0000
  C   C1616     1.0  0.29559  0.56129  0.10111  1.0000
  C   C1617     1.0  0.29865  0.55766  0.08346  1.0000
  C   C1618     1.0  0.29271  0.57164  0.06922  1.0000
  C   C1619     1.0  0.28371  0.58918  0.07256  1.0000
  H   H2810     1.0  0.28390  0.58154  0.11818  1.0000
  H   H2811     1.0  0.30012  0.55054  0.11216  1.0000
  H   H2812     1.0  0.29526  0.56893  0.05551  1.0000
  H   H2813     1.0  0.27949  0.59991  0.06142  1.0000
  H   H2814     1.0  0.36489  0.73913  0.15845  1.0000
  N   N92       1.0  0.22457  0.82188  0.13059  1.0000
  H   H2815     1.0  0.32202  0.78437  0.29993  1.0000
  H   H2816     1.0  0.36578  0.83364  0.19139  1.0000
  C   C1620     1.0  0.25737  0.70872  0.07929  1.0000
  C   C1621     1.0  0.25213  0.72067  0.09170  1.0000
  C   C1622     1.0  0.26522  0.72337  0.10028  1.0000
  C   C1623     1.0  0.28367  0.71443  0.09615  1.0000
  C   C1624     1.0  0.28902  0.70307  0.08318  1.0000
  C   C1625     1.0  0.27588  0.70017  0.07484  1.0000
  H   H2817     1.0  0.23782  0.72743  0.09510  1.0000
  H   H2818     1.0  0.26097  0.73214  0.11028  1.0000
  H   H2819     1.0  0.30331  0.69628  0.07981  1.0000
  H   H2820     1.0  0.28006  0.69130  0.06499  1.0000
  C   C1626     1.0  0.26882  0.68381  0.98434  1.0000
  N   N93       1.0  0.34240  0.78392  0.18512  1.0000
  H   H2821     1.0  0.25126  0.87243  0.12855  1.0000
  H   H2822     1.0  0.25192  0.79618  0.11403  1.0000
  H   H2823     1.0  0.24122  0.78580  0.17841  1.0000
  H   H2824     1.0  0.19964  0.49942  0.36116  1.0000
  H   H2825     1.0  0.21157  0.57663  0.37519  1.0000
  H   H2826     1.0  0.24210  0.64140  0.99059  1.0000
  N   N94       1.0  0.29203  0.70571  0.43483  1.0000
  C   C1627     1.0  0.27719  0.70962  0.42373  1.0000
  C   C1628     1.0  0.29097  0.68777  0.44847  1.0000
  C   C1629     1.0  0.28777  0.72068  0.44581  1.0000
  C   C1630     1.0  0.31120  0.70543  0.42301  1.0000
  C   C1631     1.0  0.31514  0.69868  0.40467  1.0000
  C   C1632     1.0  0.27345  0.72935  0.41207  1.0000
  H   H2827     1.0  0.27471  0.50360  0.35187  1.0000
  C   C1633     1.0  0.29329  0.67045  0.44056  1.0000
  C   C1634     1.0  0.33559  0.69672  0.39550  1.0000
  C   C1635     1.0  0.26224  0.73051  0.39771  1.0000
  H   H2828     1.0  0.21844  0.50967  0.43689  1.0000
  H   H2829     1.0  0.26383  0.70727  0.43299  1.0000
  H   H2830     1.0  0.28016  0.69981  0.41441  1.0000
  H   H2831     1.0  0.31104  0.48129  0.21394  1.0000
  H   H2832     1.0  0.31176  0.95030  0.09529  1.0000
  H   H2833     1.0  0.29125  0.64174  0.45003  1.0000
  H   H2834     1.0  0.28917  0.73418  0.43650  1.0000
  H   H2835     1.0  0.31447  0.71946  0.41905  1.0000
  H   H2836     1.0  0.32175  0.69691  0.43106  1.0000
  H   H2837     1.0  0.30717  0.70861  0.39483  1.0000
  H   H2838     1.0  0.31127  0.68526  0.40677  1.0000
  H   H2839     1.0  0.26532  0.73906  0.42117  1.0000
  H   H2840     1.0  0.28654  0.73401  0.40488  1.0000
  H   H2841     1.0  0.26003  0.74137  0.99630  1.0000
  C   C1636     1.0  0.24714  0.64740  0.97588  1.0000
  H   H2842     1.0  0.24682  0.55500  0.40588  1.0000
  H   H2843     1.0  0.30775  0.66662  0.43322  1.0000
  H   H2844     1.0  0.33994  0.71016  0.39227  1.0000
  H   H2845     1.0  0.34425  0.68649  0.40456  1.0000
  H   H2846     1.0  0.33797  0.69191  0.38242  1.0000
  H   H2847     1.0  0.24916  0.72557  0.40438  1.0000
  H   H2848     1.0  0.25876  0.74498  0.39040  1.0000
  H   H2849     1.0  0.27032  0.72211  0.38739  1.0000
  C   C1637     1.0  0.21501  0.66443  0.98015  1.0000
  H   H2850     1.0  0.34054  0.81799  0.28449  1.0000
  H   H2851     1.0  0.26561  0.50970  0.33112  1.0000
  C   C1638     1.0  0.30926  0.49188  0.30871  1.0000
  H   H2852     1.0  0.28539  0.52755  0.25710  1.0000
  H   H2853     1.0  0.30006  0.52315  0.27348  1.0000
  H   H2854     1.0  0.31018  0.52573  0.24934  1.0000
  H   H2855     1.0  0.31330  0.85123  0.07270  1.0000
  S   S380      1.0  0.37469  0.58246  0.23552  1.0000
  C   C1639     1.0  0.33303  0.75926  0.33100  1.0000
  C   C1640     1.0  0.25624  0.57737  0.38561  1.0000
  C   C1641     1.0  0.34463  0.78643  0.31206  1.0000
  H   H2856     1.0  0.30922  0.68246  0.04266  1.0000
  C   C1642     1.0  0.19086  0.81869  0.14580  1.0000
  C   C1643     1.0  0.33600  0.73976  0.34334  1.0000
  H   H2857     1.0  0.38429  0.54663  0.31007  1.0000
  H   H2858     1.0  0.24860  0.84033  0.14152  1.0000
  H   H2859     1.0  0.28849  0.80299  0.17569  1.0000
  H   H2860     1.0  0.28658  0.63895  0.96928  1.0000
  C   C1644     1.0  0.31745  0.73451  0.35334  1.0000
  H   H2861     1.0  0.22934  0.57081  0.39507  1.0000
  H   H2862     1.0  0.25313  0.58657  0.37257  1.0000
  H   H2863     1.0  0.32395  0.76888  0.33981  1.0000
  H   H2864     1.0  0.24900  0.80619  0.14087  1.0000
  H   H2865     1.0  0.26901  0.48219  0.19705  1.0000
  H   H2866     1.0  0.35601  0.80387  0.20458  1.0000
  C   C1645     1.0  0.19360  0.62504  0.42457  1.0000
  C   C1646     1.0  0.31210  0.97364  0.10665  1.0000
  H   H2867     1.0  0.32832  0.94579  0.10977  1.0000
  H   H2868     1.0  0.36173  0.77288  0.44407  1.0000
  C   C1647     1.0  0.20667  0.49193  0.40476  1.0000
  H   H2869     1.0  0.19355  0.91150  0.11899  1.0000
  H   H2870     1.0  0.36878  0.77954  0.14985  1.0000
  C   C1648     1.0  0.36387  0.76107  0.20577  1.0000
  H   H2871     1.0  0.35709  0.59553  0.29778  1.0000
  C   C1649     1.0  0.18893  0.74010  0.30537  1.0000
  H   H2872     1.0  0.37587  0.76192  0.16863  1.0000
  H   H2873     1.0  0.22200  0.93400  0.11841  1.0000
  H   H2874     1.0  0.23709  0.54752  0.46631  1.0000
  C   C1650     1.0  0.26104  0.52802  0.07580  1.0000
  H   H2875     1.0  0.34829  0.82343  0.45069  1.0000
  H   H2876     1.0  0.29130  0.49458  0.27400  1.0000
  H   H2877     1.0  0.36312  0.77823  0.37349  1.0000
  H   H2878     1.0  0.32148  0.78401  0.45298  1.0000
  H   H2879     1.0  0.30917  0.74452  0.36202  1.0000
  H   H2880     1.0  0.31941  0.80342  0.19707  1.0000
  H   H2881     1.0  0.21849  0.57458  0.09037  1.0000
  H   H2882     1.0  0.37289  0.75595  0.36773  1.0000
  H   H2883     1.0  0.19979  0.84240  0.12705  1.0000
  H   H2884     1.0  0.30795  0.50249  0.23214  1.0000
  H   H2885     1.0  0.22743  0.63066  0.02336  1.0000
  H   H2886     1.0  0.36252  0.49412  0.15824  1.0000
  H   H2887     1.0  0.33332  0.76167  0.46348  1.0000
  C   C1651     1.0  0.23362  0.73809  0.45971  1.0000
  C   C1652     1.0  0.25575  0.54900  0.07154  1.0000
  H   H2888     1.0  0.18702  0.53249  0.04595  1.0000
  C   C1653     1.0  0.23920  0.84860  0.13217  1.0000
  H   H2889     1.0  0.29769  0.72123  0.03886  1.0000
  H   H2890     1.0  0.29274  0.48476  0.18997  1.0000
  H   H2891     1.0  0.29870  0.67819  0.16597  1.0000
  S   S381      1.0  0.20544  0.66461  0.44302  1.0000
  H   H2892     1.0  0.29930  0.85037  0.97662  1.0000
  C   C1654     1.0  0.34441  0.77259  0.20396  1.0000
  H   H2893     1.0  0.23829  0.60030  0.04300  1.0000
  H   H2894     1.0  0.23061  0.79438  0.14724  1.0000
  H   H2895     1.0  0.28843  0.61468  0.97131  1.0000
  C   C1655     1.0  0.29911  0.52031  0.26026  1.0000
  H   H2896     1.0  0.28528  0.80632  0.19900  1.0000
  C   C1656     1.0  0.29913  0.49510  0.24416  1.0000
  C   C1657     1.0  0.36914  0.77087  0.36191  1.0000
  Fe  Fe192     1.0  0.38050  0.51707  0.23257  1.0000
  H   H2897     1.0  0.37637  0.89756  0.98160  1.0000
  C   C1658     1.0  0.19610  0.57216  0.06637  1.0000
  H   H2898     1.0  0.30556  0.85053  0.05259  1.0000
  C   C1659     1.0  0.28622  0.73250  0.03485  1.0000
  C   C1660     1.0  0.24420  0.58549  0.04713  1.0000
  H   H2899     1.0  0.20395  0.67351  0.97306  1.0000
  S   S382      1.0  0.37195  0.93069  0.10230  1.0000
  C   C1661     1.0  0.21292  0.61689  0.01187  1.0000
  H   H2900     1.0  0.24926  0.73550  0.02936  1.0000
  H   H2901     1.0  0.35076  0.79606  0.43772  1.0000
  H   H2902     1.0  0.27748  0.68915  0.45842  1.0000
  H   H2903     1.0  0.25900  0.56354  0.03161  1.0000
  N   N95       1.0  0.23333  0.53830  0.38172  1.0000
  C   C1662     1.0  0.22564  0.53181  0.40187  1.0000
  H   H2904     1.0  0.36905  0.74999  0.33821  1.0000
  C   C1663     1.0  0.24290  0.52143  0.37367  1.0000
  C   C1664     1.0  0.24710  0.55051  0.37853  1.0000
  H   H2905     1.0  0.20322  0.64562  0.37767  1.0000
  C   C1665     1.0  0.23943  0.51804  0.41309  1.0000
  C   C1666     1.0  0.24937  0.52464  0.35243  1.0000
  C   C1667     1.0  0.22199  0.47956  0.37164  1.0000
  H   H2906     1.0  0.38173  0.81565  0.18097  1.0000
  H   H2907     1.0  0.31750  0.93074  0.98825  1.0000
  C   C1668     1.0  0.23129  0.51519  0.43374  1.0000
  H   H2908     1.0  0.18774  0.49937  0.05867  1.0000
  H   H2909     1.0  0.21385  0.52509  0.40338  1.0000
  H   H2910     1.0  0.21959  0.54348  0.40902  1.0000
  H   H2911     1.0  0.37551  0.58141  0.18290  1.0000
  H   H2912     1.0  0.30948  0.73384  0.34329  1.0000
  H   H2913     1.0  0.23368  0.51130  0.37753  1.0000
  H   H2914     1.0  0.25536  0.51427  0.37954  1.0000
  H   H2915     1.0  0.26128  0.54210  0.37873  1.0000
  H   H2916     1.0  0.24802  0.55926  0.36445  1.0000
  H   H2917     1.0  0.31558  0.49328  0.26473  1.0000
  H   H2918     1.0  0.18927  0.74044  0.31970  1.0000
  H   H2919     1.0  0.24025  0.63706  0.45137  1.0000
  H   H2920     1.0  0.25257  0.52290  0.41046  1.0000
  H   H2921     1.0  0.25717  0.53595  0.34729  1.0000
  C   C1669     1.0  0.36100  0.60111  0.28325  1.0000
  C   C1670     1.0  0.32841  0.81122  0.28923  1.0000
  H   H2922     1.0  0.27488  0.65690  0.46375  1.0000
  H   H2923     1.0  0.23944  0.58261  0.08267  1.0000
  C   C1671     1.0  0.19828  0.63579  0.03467  1.0000
  H   H2924     1.0  0.36839  0.83339  0.44580  1.0000
  H   H2925     1.0  0.27780  0.58793  0.02255  1.0000
  H   H2926     1.0  0.27900  0.75078  0.00990  1.0000
  C   C1672     1.0  0.35515  0.77435  0.34962  1.0000
  C   C1673     1.0  0.36484  0.75277  0.22594  1.0000
  C   C1674     1.0  0.28577  0.67172  0.98514  1.0000
  H   H2927     1.0  0.36276  0.57566  0.27520  1.0000
  C   C1675     1.0  0.26182  0.50731  0.34638  1.0000
  H   H2928     1.0  0.33917  0.80850  0.09292  1.0000
  C   C1676     1.0  0.24849  0.86418  0.11988  1.0000
  H   H2929     1.0  0.21894  0.58885  0.45926  1.0000
  C   C1677     1.0  0.30054  0.67330  0.97002  1.0000
  H   H2930     1.0  0.25054  0.52210  0.08710  1.0000
  H   H2931     1.0  0.35029  0.79705  0.06179  1.0000
  H   H2932     1.0  0.36203  0.81596  0.03359  1.0000
  H   H2933     1.0  0.35193  0.62762  0.36043  1.0000
  H   H2934     1.0  0.29892  0.65094  0.46566  1.0000
  H   H2935     1.0  0.22526  0.61075  0.00322  1.0000
  H   H2936     1.0  0.38079  0.75018  0.13996  1.0000
  H   H2937     1.0  0.32136  0.81378  0.27752  1.0000
  S   S383      1.0  0.28892  0.65463  0.00487  1.0000
  C   C1678     1.0  0.18719  0.57098  0.37074  1.0000
  H   H2938     1.0  0.31784  0.56857  0.22111  1.0000
  H   H2939     1.0  0.28288  0.70178  0.02963  1.0000
  C   C1679     1.0  0.28817  0.73721  0.01358  1.0000
  C   C1680     1.0  0.37735  0.76136  0.29281  1.0000
  C   C1681     1.0  0.30162  0.49960  0.26192  1.0000
  H   H2940     1.0  0.37154  0.58941  0.13809  1.0000
  C   C1682     1.0  0.26441  0.72699  0.00351  1.0000
  H   H2941     1.0  0.37194  0.81446  0.42494  1.0000
  H   H2942     1.0  0.37837  0.81219  0.39236  1.0000
  C   C1683     1.0  0.20028  0.77027  0.14243  1.0000
  H   H2943     1.0  0.25357  0.71095  0.03056  1.0000
  C   C1684     1.0  0.28987  0.70367  0.01493  1.0000
  H   H2944     1.0  0.33184  0.78006  0.09005  1.0000
  C   C1685     1.0  0.24410  0.63193  0.46505  1.0000
  H   H2945     1.0  0.31751  0.69268  0.00034  1.0000
  H   H2946     1.0  0.30006  0.50307  0.31464  1.0000
  H   H2947     1.0  0.33002  0.87769  0.98550  1.0000
  H   H2948     1.0  0.21577  0.80030  0.12350  1.0000
  C   C1686     1.0  0.19130  0.65281  0.37100  1.0000
  H   H2949     1.0  0.25930  0.60389  0.01263  1.0000
  C   C1687     1.0  0.36435  0.58978  0.27048  1.0000
  C   C1688     1.0  0.31238  0.85475  0.97569  1.0000
  H   H2950     1.0  0.25455  0.49556  0.35132  1.0000
  C   C1689     1.0  0.35090  0.79707  0.08999  1.0000
  Fe  Fe193     1.0  0.36151  0.90856  0.09528  1.0000
  H   H2951     1.0  0.22922  0.79538  0.08630  1.0000
  H   H2952     1.0  0.27102  0.57041  0.38336  1.0000
  H   H2953     1.0  0.27645  0.62544  0.99060  1.0000
  H   H2954     1.0  0.25016  0.82967  0.11429  1.0000
  H   H2955     1.0  0.25533  0.61855  0.97321  1.0000
  H   H2956     1.0  0.23067  0.71597  0.01073  1.0000
  H   H2957     1.0  0.23943  0.87341  0.11061  1.0000
  H   H2958     1.0  0.36195  0.48270  0.04976  1.0000
  H   H2959     1.0  0.35769  0.62135  0.12600  1.0000
  H   H2960     1.0  0.23738  0.80374  0.19105  1.0000
  C   C1690     1.0  0.32177  0.95623  0.09912  1.0000
  H   H2961     1.0  0.22091  0.72456  0.03166  1.0000
  N   N96       1.0  0.30275  0.47495  0.24364  1.0000
  C   C1691     1.0  0.37144  0.61522  0.24576  1.0000
  H   H2962     1.0  0.35190  0.48153  0.28219  1.0000
  H   H2963     1.0  0.24078  0.57946  0.02156  1.0000
  C   C1692     1.0  0.28936  0.65403  0.45600  1.0000
  C   C1693     1.0  0.37278  0.81786  0.03999  1.0000
  H   H2964     1.0  0.37545  0.77645  0.28810  1.0000
  C   C1694     1.0  0.36333  0.76467  0.33298  1.0000
  N   N97       1.0  0.36580  0.81762  0.06033  1.0000
  H   H2965     1.0  0.30768  0.68666  0.14207  1.0000
  H   H2966     1.0  0.19375  0.64862  0.35758  1.0000
  H   H2967     1.0  0.35446  0.76725  0.09383  1.0000
  C   C1695     1.0  0.21789  0.92131  0.11773  1.0000
  C   C1696     1.0  0.34343  0.77930  0.09673  1.0000
  C   C1697     1.0  0.21430  0.61003  0.09536  1.0000
  C   C1698     1.0  0.23370  0.80828  0.14534  1.0000
  C   C1699     1.0  0.28858  0.79591  0.19025  1.0000
  C   C1700     1.0  0.38257  0.75303  0.27560  1.0000
  H   H2968     1.0  0.22879  0.82721  0.16462  1.0000
  H   H2969     1.0  0.33630  0.83438  0.03973  1.0000
  H   H2970     1.0  0.22676  0.54900  0.07684  1.0000
  H   H2971     1.0  0.23763  0.54941  0.05349  1.0000
  C   C1701     1.0  0.20190  0.68495  0.00371  1.0000
  S   S384      1.0  0.37595  0.87952  0.09355  1.0000
  H   H2972     1.0  0.33648  0.48838  0.23754  1.0000
  C   C1702     1.0  0.31749  0.55807  0.21356  1.0000
  H   H2973     1.0  0.38188  0.77591  0.35397  1.0000
  H   H2974     1.0  0.22557  0.91693  0.10465  1.0000
  C   C1703     1.0  0.34322  0.90665  0.96933  1.0000
  C   C1704     1.0  0.35807  0.78641  0.44834  1.0000
  H   H2975     1.0  0.30633  0.77584  0.20635  1.0000
  H   H2976     1.0  0.36985  0.79049  0.17598  1.0000
  H   H2977     1.0  0.31987  0.72075  0.36239  1.0000
  S   S385      1.0  0.36014  0.84610  0.98806  1.0000
  C   C1705     1.0  0.23683  0.55554  0.06547  1.0000
  H   H2978     1.0  0.34463  0.83499  0.07693  1.0000
  S   S386      1.0  0.23078  0.62071  0.42184  1.0000
  H   H2979     1.0  0.34369  0.78501  0.28386  1.0000
  H   H2980     1.0  0.24770  0.81393  0.09435  1.0000
  C   C1706     1.0  0.37808  0.53480  0.13768  1.0000
  C   C1707     1.0  0.23081  0.72654  0.01827  1.0000
  S   S387      1.0  0.21161  0.67106  0.39803  1.0000
  H   H2981     1.0  0.30247  0.73974  0.00791  1.0000
  C   C1708     1.0  0.34989  0.83376  0.06232  1.0000
  H   H2982     1.0  0.27512  0.76043  0.03946  1.0000
  H   H2983     1.0  0.34123  0.75837  0.17863  1.0000
  N   N98       1.0  0.37542  0.79243  0.44863  1.0000
  S   S388      1.0  0.19458  0.59956  0.99725  1.0000
  H   H2984     1.0  0.33907  0.58175  0.15707  1.0000
  H   H2985     1.0  0.35676  0.79325  0.30733  1.0000
  H   H2986     1.0  0.33665  0.77778  0.16109  1.0000
  C   C1709     1.0  0.29574  0.72465  0.98536  1.0000
  H   H2987     1.0  0.19105  0.57454  0.35549  1.0000
  H   H2988     1.0  0.30876  0.66819  0.02719  1.0000
  C   C1710     1.0  0.31093  0.69644  0.01395  1.0000
  H   H2989     1.0  0.31764  0.70703  0.01562  1.0000
  N   N99       1.0  0.29858  0.64154  0.33476  1.0000
  C   C1711     1.0  0.31723  0.64512  0.33444  1.0000
  C   C1712     1.0  0.29108  0.65446  0.31869  1.0000
  C   C1713     1.0  0.28582  0.64639  0.35220  1.0000
  C   C1714     1.0  0.29916  0.62172  0.33456  1.0000
  C   C1715     1.0  0.31715  0.61113  0.32390  1.0000
  C   C1716     1.0  0.32563  0.63526  0.35169  1.0000
  C   C1717     1.0  0.26524  0.64538  0.35463  1.0000
  C   C1718     1.0  0.30128  0.65121  0.29922  1.0000
  C   C1719     1.0  0.29402  0.66673  0.28428  1.0000
  C   C1720     1.0  0.31457  0.59250  0.32229  1.0000
  C   C1721     1.0  0.34645  0.63428  0.34772  1.0000
  C   C1722     1.0  0.25492  0.64555  0.37447  1.0000
  H   H2990     1.0  0.31640  0.66009  0.33313  1.0000
  H   H2991     1.0  0.32739  0.64162  0.32209  1.0000
  H   H2992     1.0  0.27660  0.65357  0.31944  1.0000
  H   H2993     1.0  0.29063  0.66898  0.31926  1.0000
  H   H2994     1.0  0.28611  0.66055  0.35320  1.0000
  H   H2995     1.0  0.29068  0.63716  0.36451  1.0000
  H   H2996     1.0  0.29705  0.61344  0.34886  1.0000
  H   H2997     1.0  0.28738  0.62085  0.32890  1.0000
  H   H2998     1.0  0.32871  0.60850  0.33117  1.0000
  H   H2999     1.0  0.32166  0.61875  0.30983  1.0000
  H   H3000     1.0  0.31928  0.64304  0.36295  1.0000
  H   H3001     1.0  0.32301  0.62109  0.35680  1.0000
  H   H3002     1.0  0.26386  0.63275  0.35099  1.0000
  H   H3003     1.0  0.25815  0.65755  0.34582  1.0000
  H   H3004     1.0  0.31633  0.65036  0.29701  1.0000
  H   H3005     1.0  0.29888  0.63826  0.29708  1.0000
  H   H3006     1.0  0.30162  0.66408  0.27049  1.0000
  H   H3007     1.0  0.27907  0.66760  0.28524  1.0000
  H   H3008     1.0  0.29615  0.68014  0.28554  1.0000
  H   H3009     1.0  0.31063  0.58397  0.33614  1.0000
  H   H3010     1.0  0.30376  0.59437  0.31423  1.0000
  H   H3011     1.0  0.32770  0.58504  0.31503  1.0000
  C   C1723     1.0  0.22320  0.81171  0.11657  1.0000
  H   H3012     1.0  0.36793  0.53830  0.17250  1.0000
  H   H3013     1.0  0.35359  0.62613  0.33692  1.0000
  H   H3014     1.0  0.24023  0.64502  0.37573  1.0000
  H   H3015     1.0  0.26099  0.63346  0.38411  1.0000
  H   H3016     1.0  0.25540  0.65834  0.37849  1.0000
  C   C1724     1.0  0.32764  0.56240  0.19355  1.0000
  C   C1725     1.0  0.32282  0.79482  0.18651  1.0000
  H   H3017     1.0  0.36582  0.82364  0.09582  1.0000
  H   H3018     1.0  0.19273  0.57612  0.07997  1.0000
  H   H3019     1.0  0.27313  0.72248  0.45323  1.0000
  H   H3020     1.0  0.34160  0.59400  0.17291  1.0000
  C   C1726     1.0  0.36219  0.55143  0.16391  1.0000
  H   H3021     1.0  0.20889  0.53797  0.37262  1.0000
  C   C1727     1.0  0.24177  0.80310  0.10517  1.0000
  H   H3022     1.0  0.33814  0.77727  0.11183  1.0000
  H   H3023     1.0  0.20135  0.77352  0.12766  1.0000
  H   H3024     1.0  0.20078  0.49661  0.41759  1.0000
  C   C1728     1.0  0.19571  0.61366  0.01159  1.0000
  H   H3025     1.0  0.19595  0.57391  0.42455  1.0000
  H   H3026     1.0  0.22243  0.61300  0.06614  1.0000
  H   H3027     1.0  0.37100  0.84421  0.08013  1.0000
  C   C1729     1.0  0.36277  0.61954  0.27737  1.0000
  C   C1730     1.0  0.21552  0.60354  0.07771  1.0000
  C   C1731     1.0  0.36797  0.62664  0.25858  1.0000
  S   S389      1.0  0.35888  0.63274  0.29426  1.0000
  H   H3028     1.0  0.35417  0.74429  0.23245  1.0000
  H   H3029     1.0  0.19552  0.72603  0.30292  1.0000
  N   N100      1.0  0.35027  0.76637  0.32051  1.0000
  C   C1732     1.0  0.23601  0.83624  0.12055  1.0000
  C   C1733     1.0  0.36688  0.75238  0.14896  1.0000
  C   C1734     1.0  0.21952  0.67597  0.99192  1.0000
  H   H3030     1.0  0.19048  0.66787  0.36859  1.0000
  H   H3031     1.0  0.34226  0.90294  0.98456  1.0000
  H   H3032     1.0  0.25477  0.65794  0.97608  1.0000
  H   H3033     1.0  0.36463  0.74060  0.31245  1.0000
  H   H3034     1.0  0.22847  0.66716  0.00147  1.0000
  C   C1735     1.0  0.34899  0.61254  0.13661  1.0000
  H   H3035     1.0  0.34270  0.76935  0.35830  1.0000
  H   H3036     1.0  0.20119  0.60504  0.07595  1.0000
  Fe  Fe194     1.0  0.36324  0.49619  0.10550  1.0000
  H   H3037     1.0  0.36940  0.64085  0.25394  1.0000
  H   H3038     1.0  0.33890  0.62129  0.14570  1.0000
  H   H3039     1.0  0.21432  0.81060  0.17171  1.0000
  H   H3040     1.0  0.27316  0.72797  0.04202  1.0000
  H   H3041     1.0  0.18695  0.47990  0.00425  1.0000
  H   H3042     1.0  0.37861  0.74381  0.22685  1.0000
  H   H3043     1.0  0.31653  0.66336  0.15299  1.0000
  H   H3044     1.0  0.22612  0.85503  0.14033  1.0000
  H   H3045     1.0  0.37200  0.75897  0.26694  1.0000
  H   H3046     1.0  0.20849  0.65333  0.99000  1.0000
  H   H3047     1.0  0.28333  0.93393  0.99833  1.0000
  C   C1736     1.0  0.30396  0.67434  0.15227  1.0000
  H   H3048     1.0  0.36498  0.53047  0.13857  1.0000
  H   H3049     1.0  0.20638  0.62440  0.09438  1.0000
  H   H3050     1.0  0.27453  0.52369  0.08025  1.0000
  C   C1737     1.0  0.25012  0.72465  0.02179  1.0000
  H   H3051     1.0  0.36658  0.56354  0.13451  1.0000
  H   H3052     1.0  0.20714  0.60122  0.10749  1.0000
  C   C1738     1.0  0.35515  0.79753  0.17829  1.0000
  H   H3053     1.0  0.19460  0.49019  0.02769  1.0000
  H   H3054     1.0  0.30179  0.68438  0.45684  1.0000
  C   C1739     1.0  0.36124  0.59721  0.14778  1.0000
  H   H3055     1.0  0.19647  0.75823  0.19526  1.0000
  N   N101      1.0  0.22997  0.57605  0.06116  1.0000
  H   H3056     1.0  0.33005  0.67426  0.02726  1.0000
  C   C1740     1.0  0.35990  0.79955  0.06928  1.0000
  H   H3057     1.0  0.35424  0.54882  0.19978  1.0000
  H   H3058     1.0  0.35488  0.84669  0.05542  1.0000
  H   H3059     1.0  0.19413  0.67440  0.01267  1.0000
  C   C1741     1.0  0.28690  0.74899  0.04228  1.0000
  C   C1742     1.0  0.34555  0.77159  0.17148  1.0000
  C   C1743     1.0  0.21272  0.58001  0.05342  1.0000
  C   C1744     1.0  0.23191  0.72153  0.45614  1.0000
  H   H3060     1.0  0.26245  0.52243  0.06336  1.0000
  H   H3061     1.0  0.34364  0.72924  0.33504  1.0000
  C   C1745     1.0  0.23921  0.78897  0.09553  1.0000
  H   H3062     1.0  0.27736  0.49493  0.21953  1.0000
  N   N102      1.0  0.28283  0.65473  0.12133  1.0000
  C   C1746     1.0  0.29577  0.66275  0.12767  1.0000
  C   C1747     1.0  0.29040  0.65247  0.10160  1.0000
  C   C1748     1.0  0.26456  0.66823  0.12218  1.0000
  C   C1749     1.0  0.27924  0.63671  0.13365  1.0000
  C   C1750     1.0  0.29614  0.62076  0.13502  1.0000
  C   C1751     1.0  0.28905  0.66770  0.14702  1.0000
  C   C1752     1.0  0.25050  0.66507  0.11227  1.0000
  C   C1753     1.0  0.31174  0.64728  0.09536  1.0000
  C   C1754     1.0  0.31707  0.64124  0.07686  1.0000
  C   C1755     1.0  0.29094  0.60410  0.14948  1.0000
  C   C1756     1.0  0.23157  0.67736  0.11710  1.0000
  H   H3063     1.0  0.29857  0.67561  0.11771  1.0000
  H   H3064     1.0  0.30945  0.65345  0.12764  1.0000
  H   H3065     1.0  0.28404  0.64237  0.09846  1.0000
  H   H3066     1.0  0.28636  0.66550  0.09197  1.0000
  H   H3067     1.0  0.26684  0.68250  0.11613  1.0000
  H   H3068     1.0  0.25741  0.66832  0.13675  1.0000
  H   H3069     1.0  0.27215  0.63871  0.14779  1.0000
  H   H3070     1.0  0.26944  0.63138  0.12880  1.0000
  H   H3071     1.0  0.30733  0.62481  0.13893  1.0000
  H   H3072     1.0  0.30126  0.61616  0.12168  1.0000
  H   H3073     1.0  0.27670  0.67903  0.14726  1.0000
  H   H3074     1.0  0.28563  0.65564  0.15773  1.0000
  H   H3075     1.0  0.24853  0.65068  0.11601  1.0000
  H   H3076     1.0  0.25526  0.66846  0.09711  1.0000
  H   H3077     1.0  0.31790  0.65946  0.09369  1.0000
  H   H3078     1.0  0.31827  0.63609  0.10535  1.0000
  H   H3079     1.0  0.33234  0.63757  0.07277  1.0000
  H   H3080     1.0  0.31127  0.62901  0.07782  1.0000
  H   H3081     1.0  0.31186  0.65255  0.06604  1.0000
  H   H3082     1.0  0.30320  0.59270  0.14984  1.0000
  H   H3083     1.0  0.28604  0.60761  0.16335  1.0000
  H   H3084     1.0  0.27992  0.59926  0.14598  1.0000
  H   H3085     1.0  0.23270  0.69204  0.11375  1.0000
  H   H3086     1.0  0.22208  0.67575  0.10900  1.0000
  H   H3087     1.0  0.22549  0.67354  0.13196  1.0000
  C   C1757     1.0  0.24159  0.80046  0.17709  1.0000
  H   H3088     1.0  0.22459  0.58487  0.42267  1.0000
  H   H3089     1.0  0.22190  0.63067  0.97197  1.0000
  H   H3090     1.0  0.35296  0.80584  0.16455  1.0000
  H   H3091     1.0  0.30285  0.55799  0.21402  1.0000
  H   H3092     1.0  0.32287  0.86362  0.05039  1.0000
  C   C1758     1.0  0.23795  0.70480  0.46743  1.0000
  C   C1759     1.0  0.30737  0.78341  0.19185  1.0000
  S   S390      1.0  0.37623  0.53684  0.27572  1.0000
  S   S391      1.0  0.36950  0.68501  0.26579  1.0000
  H   H3093     1.0  0.23418  0.77729  0.10581  1.0000
  S   S392      1.0  0.23778  0.68357  0.46250  1.0000
  H   H3094     1.0  0.37555  0.62071  0.23122  1.0000
  Fe  Fe195     1.0  0.33179  0.50080  0.13834  1.0000
  H   H3095     1.0  0.32125  0.80454  0.17319  1.0000
  S   S393      1.0  0.31084  0.49682  0.12425  1.0000
  C   C1760     1.0  0.19112  0.93973  0.10261  1.0000
  H   H3096     1.0  0.28491  0.69409  0.00939  1.0000
  H   H3097     1.0  0.35633  0.75671  0.14019  1.0000
  H   H3098     1.0  0.30136  0.74670  0.45623  1.0000
  H   H3099     1.0  0.32392  0.54434  0.22057  1.0000
  H   H3100     1.0  0.30990  0.77331  0.18292  1.0000
  C   C1761     1.0  0.25192  0.57816  0.02899  1.0000
  H   H3101     1.0  0.26187  0.85857  0.11145  1.0000
  H   H3102     1.0  0.25533  0.55387  0.08414  1.0000
  H   H3103     1.0  0.22978  0.84527  0.10888  1.0000
  C   C1762     1.0  0.37298  0.49851  0.18015  1.0000
  H   H3104     1.0  0.18670  0.81543  0.13426  1.0000
  C   C1763     1.0  0.19754  0.76157  0.18051  1.0000
  H   H3105     1.0  0.37198  0.78798  0.06815  1.0000
  C   C1764     1.0  0.29989  0.71779  0.46025  1.0000
  H   H3106     1.0  0.31858  0.81746  0.30047  1.0000
  C   C1765     1.0  0.21748  0.54798  0.37208  1.0000
  H   H3107     1.0  0.34860  0.54955  0.16267  1.0000
  H   H3108     1.0  0.24877  0.96899  0.07612  1.0000
  C   C1766     1.0  0.34953  0.58484  0.16313  1.0000
  C   C1767     1.0  0.32705  0.88229  0.97135  1.0000
  C   C1768     1.0  0.21145  0.59437  0.42335  1.0000
  H   H3109     1.0  0.28469  0.50171  0.24276  1.0000
  H   H3110     1.0  0.36173  0.47745  0.34691  1.0000
  H   H3111     1.0  0.32644  0.55180  0.18663  1.0000
  H   H3112     1.0  0.22266  0.55311  0.35721  1.0000
  H   H3113     1.0  0.27521  0.95091  0.05768  1.0000
  H   H3114     1.0  0.38368  0.50271  0.04783  1.0000
  H   H3115     1.0  0.21480  0.82093  0.10660  1.0000
  H   H3116     1.0  0.33513  0.76248  0.20845  1.0000
  C   C1769     1.0  0.37415  0.55291  0.14425  1.0000
  C   C1770     1.0  0.34324  0.78490  0.46644  1.0000
  S   S394      1.0  0.38088  0.49895  0.26050  1.0000
  C   C1771     1.0  0.36535  0.76703  0.15991  1.0000
  C   C1772     1.0  0.30907  0.93222  0.97784  1.0000
  H   H3117     1.0  0.19673  0.95209  0.10176  1.0000
  H   H3118     1.0  0.25379  0.58598  0.39604  1.0000
  H   H3119     1.0  0.35009  0.75458  0.29765  1.0000
  H   H3120     1.0  0.20552  0.69231  0.01267  1.0000
  H   H3121     1.0  0.30514  0.90497  0.98913  1.0000
  Fe  Fe196     1.0  0.37611  0.55198  0.24660  1.0000
  C   C1773     1.0  0.35992  0.75517  0.30596  1.0000
  H   H3122     1.0  0.25268  0.78343  0.08717  1.0000
  H   H3123     1.0  0.36703  0.74949  0.19846  1.0000
  Fe  Fe197     1.0  0.37955  0.69329  0.28731  1.0000
  H   H3124     1.0  0.31476  0.71367  0.45429  1.0000
  H   H3125     1.0  0.33969  0.78141  0.21445  1.0000
  H   H3126     1.0  0.28937  0.75499  0.97758  1.0000
  H   H3127     1.0  0.20503  0.83855  0.14897  1.0000
  C   C1774     1.0  0.33846  0.47986  0.29033  1.0000
  C   C1775     1.0  0.36739  0.82381  0.18237  1.0000
  C   C1776     1.0  0.35339  0.81125  0.19076  1.0000
  C   C1777     1.0  0.37643  0.82933  0.08464  1.0000
  H   H3128     1.0  0.18811  0.59688  0.46233  1.0000
  H   H3129     1.0  0.22661  0.68706  0.98322  1.0000
  H   H3130     1.0  0.35135  0.78944  0.34483  1.0000
  C   C1778     1.0  0.29734  0.73527  0.46755  1.0000
  H   H3131     1.0  0.19878  0.93442  0.09000  1.0000
  C   C1779     1.0  0.29049  0.74286  0.97165  1.0000
  C   C1780     1.0  0.31490  0.67929  0.02872  1.0000
  H   H3132     1.0  0.36133  0.79607  0.09818  1.0000
  H   H3133     1.0  0.22809  0.52833  0.43856  1.0000
  C   C1781     1.0  0.22208  0.55156  0.46624  1.0000
  H   H3134     1.0  0.36881  0.60384  0.15409  1.0000
  Fe  Fe198     1.0  0.19423  0.68576  0.42019  1.0000
  C   C1782     1.0  0.28231  0.48002  0.21967  1.0000
  C   C1783     1.0  0.38126  0.87102  0.02490  1.0000
  H   H3135     1.0  0.19017  0.92869  0.13241  1.0000
  H   H3136     1.0  0.29796  0.88029  0.98343  1.0000
  H   H3137     1.0  0.19949  0.56198  0.39431  1.0000
  C   C1784     1.0  0.28956  0.94214  0.98512  1.0000
  H   H3138     1.0  0.38368  0.73793  0.27939  1.0000
  H   H3139     1.0  0.19277  0.63927  0.42479  1.0000
  H   H3140     1.0  0.37918  0.78257  0.41491  1.0000
  C   C1785     1.0  0.30897  0.91293  0.97487  1.0000
  C   C1786     1.0  0.38269  0.80260  0.42955  1.0000
  H   H3141     1.0  0.19290  0.69500  0.99486  1.0000
  C   C1787     1.0  0.32786  0.77621  0.46490  1.0000
  H   H3142     1.0  0.38274  0.54832  0.20006  1.0000
  H   H3143     1.0  0.25920  0.63087  0.46314  1.0000
  H   H3144     1.0  0.33885  0.47517  0.22035  1.0000
  S   S395      1.0  0.35295  0.47629  0.13069  1.0000
  H   H3145     1.0  0.31370  0.66395  0.97057  1.0000
  H   H3146     1.0  0.38507  0.70218  0.32004  1.0000
  C   C1788     1.0  0.33800  0.47436  0.23519  1.0000
  H   H3147     1.0  0.30091  0.47423  0.09836  1.0000
  H   H3148     1.0  0.27435  0.47429  0.25773  1.0000
  C   C1789     1.0  0.26128  0.63119  0.96840  1.0000
  H   H3149     1.0  0.32160  0.81229  0.51858  1.0000
  H   H3150     1.0  0.33670  0.79867  0.46964  1.0000
  H   H3151     1.0  0.34453  0.73850  0.82633  1.0000
  Fe  Fe199     1.0  0.21236  0.91454  0.61249  1.0000
  S   S396      1.0  0.21802  0.93742  0.58829  1.0000
  H   H3152     1.0  0.23528  0.57820  0.47331  1.0000
  Fe  Fe200     1.0  0.22778  0.88508  0.58944  1.0000
  S   S397      1.0  0.23499  0.90553  0.56350  1.0000
  S   S398      1.0  0.23262  0.85425  0.59184  1.0000
  Fe  Fe201     1.0  0.24527  0.91874  0.58108  1.0000
  S   S399      1.0  0.27217  0.92893  0.57099  1.0000
  Fe  Fe202     1.0  0.20705  0.92239  0.57306  1.0000
  N   N103      1.0  0.38218  0.56434  0.65364  1.0000
  S   S400      1.0  0.24047  0.89680  0.60634  1.0000
  H   H3153     1.0  0.30615  0.51273  0.61580  1.0000
  Fe  Fe203     1.0  0.34137  0.70869  0.88930  1.0000
  S   S401      1.0  0.33015  0.72417  0.91248  1.0000
  S   S402      1.0  0.36686  0.68603  0.88814  1.0000
  Fe  Fe204     1.0  0.31084  0.72870  0.86876  1.0000
  S   S403      1.0  0.29701  0.74649  0.88948  1.0000
  S   S404      1.0  0.30304  0.73032  0.84181  1.0000
  Fe  Fe205     1.0  0.32546  0.74904  0.89009  1.0000
  S   S405      1.0  0.33114  0.77700  0.88845  1.0000
  Fe  Fe206     1.0  0.30238  0.72058  0.91061  1.0000
  S   S406      1.0  0.27825  0.71688  0.93435  1.0000
  S   S407      1.0  0.33886  0.73391  0.86712  1.0000
  S   S408      1.0  0.31396  0.70253  0.88976  1.0000
  S   S409      1.0  0.24093  0.68721  0.84583  1.0000
  H   H3154     1.0  0.23305  0.58610  0.53427  1.0000
  S   S410      1.0  0.38471  0.78307  0.93673  1.0000
  C   C1790     1.0  0.23587  0.67193  0.95070  1.0000
  H   H3155     1.0  0.20033  0.71016  0.73227  1.0000
  H   H3156     1.0  0.34393  0.84776  0.46844  1.0000
  H   H3157     1.0  0.31495  0.94117  0.96511  1.0000
  S   S411      1.0  0.36474  0.87515  0.89932  1.0000
  Fe  Fe207     1.0  0.19886  0.52054  0.59666  1.0000
  S   S412      1.0  0.36198  0.83401  0.94313  1.0000
  S   S413      1.0  0.27775  0.89544  0.90876  1.0000
  C   C1791     1.0  0.24432  0.66701  0.70872  1.0000
  H   H3158     1.0  0.30655  0.78806  0.51616  1.0000
  H   H3159     1.0  0.20510  0.90929  0.81790  1.0000
  Fe  Fe208     1.0  0.29431  0.61769  0.66361  1.0000
  S   S414      1.0  0.26568  0.61768  0.68069  1.0000
  S   S415      1.0  0.31872  0.60052  0.67568  1.0000
  Fe  Fe209     1.0  0.28047  0.64350  0.63069  1.0000
  S   S416      1.0  0.25075  0.64565  0.64491  1.0000
  S   S417      1.0  0.29047  0.65744  0.60147  1.0000
  Fe  Fe210     1.0  0.26051  0.64803  0.66942  1.0000
  Fe  Fe211     1.0  0.25847  0.61513  0.65477  1.0000
  H   H3160     1.0  0.33244  0.77778  0.57638  1.0000
  S   S418      1.0  0.28975  0.64826  0.65428  1.0000
  S   S419      1.0  0.28758  0.61266  0.63863  1.0000
  Fe  Fe212     1.0  0.25702  0.78930  0.52254  1.0000
  S   S420      1.0  0.27357  0.76901  0.54190  1.0000
  S   S421      1.0  0.24982  0.82008  0.52072  1.0000
  Fe  Fe213     1.0  0.25579  0.76028  0.50198  1.0000
  S   S422      1.0  0.27258  0.73746  0.51943  1.0000
  C   C1792     1.0  0.24496  0.64926  0.71938  1.0000
  Fe  Fe214     1.0  0.25484  0.75009  0.54309  1.0000
  S   S423      1.0  0.24264  0.73393  0.57056  1.0000
  Fe  Fe215     1.0  0.29003  0.75805  0.51694  1.0000
  S   S424      1.0  0.32108  0.75011  0.51299  1.0000
  S   S425      1.0  0.23660  0.77152  0.52588  1.0000
  S   S426      1.0  0.27501  0.77971  0.49728  1.0000
  H   H3161     1.0  0.21042  0.91838  0.83444  1.0000
  H   H3162     1.0  0.19550  0.94768  0.84095  1.0000
  H   H3163     1.0  0.25293  0.72120  0.49753  1.0000
  S   S427      1.0  0.18935  0.93800  0.55219  1.0000
  H   H3164     1.0  0.31967  0.92496  0.90974  1.0000
  Fe  Fe216     1.0  0.26979  0.91055  0.88177  1.0000
  H   H3165     1.0  0.23587  0.63561  0.94987  1.0000
  H   H3166     1.0  0.25023  0.69185  0.49106  1.0000
  H   H3167     1.0  0.28973  0.48617  0.61385  1.0000
  H   H3168     1.0  0.20198  0.65236  0.59592  1.0000
  H   H3169     1.0  0.18831  0.95014  0.88417  1.0000
  H   H3170     1.0  0.38338  0.65232  0.81078  1.0000
  Fe  Fe217     1.0  0.22308  0.54941  0.58245  1.0000
  S   S428      1.0  0.23080  0.54290  0.55417  1.0000
  S   S429      1.0  0.23792  0.57105  0.58392  1.0000
  H   H3171     1.0  0.20835  0.68464  0.63604  1.0000
  Fe  Fe218     1.0  0.23427  0.51343  0.56867  1.0000
  H   H3172     1.0  0.23666  0.82597  0.80656  1.0000
  Fe  Fe219     1.0  0.20105  0.54200  0.55775  1.0000
  H   H3173     1.0  0.33844  0.87428  0.96249  1.0000
  S   S430      1.0  0.22853  0.51980  0.59669  1.0000
  H   H3174     1.0  0.23899  0.96172  0.89063  1.0000
  C   C1793     1.0  0.32829  0.92701  0.93412  1.0000
  H   H3175     1.0  0.21307  0.65905  0.61989  1.0000
  H   H3176     1.0  0.30398  0.88115  0.95915  1.0000
  H   H3177     1.0  0.22111  0.82345  0.79338  1.0000
  H   H3178     1.0  0.29774  0.83528  0.85474  1.0000
  C   C1794     1.0  0.22703  0.57762  0.63692  1.0000
  C   C1795     1.0  0.33141  0.76722  0.51551  1.0000
  C   C1796     1.0  0.32108  0.78487  0.51662  1.0000
  C   C1797     1.0  0.32963  0.79860  0.51794  1.0000
  H   H3179     1.0  0.19850  0.91996  0.51975  1.0000
  S   S431      1.0  0.19217  0.85947  0.71087  1.0000
  C   C1798     1.0  0.35030  0.76332  0.51584  1.0000
  H   H3180     1.0  0.20191  0.88365  0.64440  1.0000
  H   H3181     1.0  0.35835  0.74967  0.51501  1.0000
  C   C1799     1.0  0.23974  0.58832  0.63637  1.0000
  C   C1800     1.0  0.25234  0.59269  0.62000  1.0000
  C   C1801     1.0  0.25200  0.58666  0.60424  1.0000
  C   C1802     1.0  0.23891  0.57651  0.60461  1.0000
  C   C1803     1.0  0.22655  0.57178  0.62106  1.0000
  H   H3182     1.0  0.30241  0.93498  0.76886  1.0000
  H   H3183     1.0  0.26231  0.60073  0.61951  1.0000
  H   H3184     1.0  0.26184  0.58998  0.59164  1.0000
  C   C1804     1.0  0.33584  0.61219  0.67565  1.0000
  C   C1805     1.0  0.34869  0.60380  0.68696  1.0000
  C   C1806     1.0  0.36349  0.61196  0.68609  1.0000
  C   C1807     1.0  0.36523  0.62885  0.67425  1.0000
  C   C1808     1.0  0.35204  0.63756  0.66335  1.0000
  C   C1809     1.0  0.33747  0.62916  0.66391  1.0000
  H   H3185     1.0  0.34730  0.59085  0.69629  1.0000
  H   H3186     1.0  0.32736  0.88183  0.85618  1.0000
  H   H3187     1.0  0.35335  0.65061  0.65414  1.0000
  H   H3188     1.0  0.32788  0.63557  0.65485  1.0000
  C   C1810     1.0  0.27726  0.67883  0.59319  1.0000
  C   C1811     1.0  0.26361  0.68858  0.60510  1.0000
  C   C1812     1.0  0.25304  0.70549  0.59801  1.0000
  C   C1813     1.0  0.25616  0.71278  0.57903  1.0000
  C   C1814     1.0  0.26973  0.70295  0.56713  1.0000
  C   C1815     1.0  0.28022  0.68599  0.57421  1.0000
  H   H3189     1.0  0.26120  0.68311  0.61977  1.0000
  H   H3190     1.0  0.24251  0.71301  0.60727  1.0000
  H   H3191     1.0  0.27205  0.70831  0.55248  1.0000
  H   H3192     1.0  0.29054  0.67830  0.56493  1.0000
  C   C1816     1.0  0.24167  0.68187  0.71735  1.0000
  S   S432      1.0  0.20821  0.85322  0.75791  1.0000
  Fe  Fe220     1.0  0.20053  0.88072  0.76622  1.0000
  C   C1817     1.0  0.28143  0.69915  0.95350  1.0000
  C   C1818     1.0  0.35161  0.96084  0.71614  1.0000
  C   C1819     1.0  0.22564  0.87698  0.80216  1.0000
  S   S433      1.0  0.31292  0.93701  0.82911  1.0000
  H   H3193     1.0  0.30116  0.94857  0.56647  1.0000
  Fe  Fe221     1.0  0.21756  0.72053  0.78745  1.0000
  C   C1820     1.0  0.34051  0.88101  0.90255  1.0000
  C   C1821     1.0  0.33242  0.89367  0.88872  1.0000
  C   C1822     1.0  0.31314  0.89846  0.89074  1.0000
  C   C1823     1.0  0.30184  0.89058  0.90663  1.0000
  C   C1824     1.0  0.30988  0.87820  0.92065  1.0000
  C   C1825     1.0  0.32919  0.87338  0.91860  1.0000
  H   H3194     1.0  0.29731  0.47454  0.55737  1.0000
  H   H3195     1.0  0.34811  0.69753  0.79002  1.0000
  H   H3196     1.0  0.30115  0.87190  0.93282  1.0000
  H   H3197     1.0  0.33527  0.86375  0.92940  1.0000
  H   H3198     1.0  0.38179  0.54072  0.70979  1.0000
  H   H3199     1.0  0.27927  0.82578  0.87137  1.0000
  H   H3200     1.0  0.24676  0.63778  0.71287  1.0000
  H   H3201     1.0  0.31692  0.77642  0.47757  1.0000
  H   H3202     1.0  0.20906  0.61956  0.86260  1.0000
  H   H3203     1.0  0.25009  0.47504  0.50231  1.0000
  S   S434      1.0  0.22023  0.96513  0.86101  1.0000
  H   H3204     1.0  0.21133  0.96056  0.50937  1.0000
  C   C1826     1.0  0.36240  0.89673  0.96029  1.0000
  H   H3205     1.0  0.37289  0.71423  0.85505  1.0000
  H   H3206     1.0  0.36088  0.57147  0.62474  1.0000
  S   S435      1.0  0.24317  0.69893  0.79114  1.0000
  H   H3207     1.0  0.31581  0.95389  0.86833  1.0000
  C   C1827     1.0  0.34566  0.77862  0.90229  1.0000
  C   C1828     1.0  0.35298  0.79452  0.89853  1.0000
  C   C1829     1.0  0.36466  0.79618  0.90931  1.0000
  C   C1830     1.0  0.36935  0.78174  0.92368  1.0000
  C   C1831     1.0  0.36220  0.76575  0.92732  1.0000
  C   C1832     1.0  0.35021  0.76429  0.91678  1.0000
  H   H3208     1.0  0.34984  0.80549  0.88710  1.0000
  H   H3209     1.0  0.37027  0.80849  0.90633  1.0000
  H   H3210     1.0  0.36583  0.75456  0.93842  1.0000
  H   H3211     1.0  0.34449  0.75209  0.91990  1.0000
  C   C1833     1.0  0.28656  0.71739  0.84305  1.0000
  C   C1834     1.0  0.27720  0.70906  0.86003  1.0000
  C   C1835     1.0  0.26343  0.69956  0.86071  1.0000
  C   C1836     1.0  0.25881  0.69853  0.84445  1.0000
  C   C1837     1.0  0.26833  0.70668  0.82746  1.0000
  C   C1838     1.0  0.28224  0.71602  0.82677  1.0000
  H   H3212     1.0  0.28031  0.71020  0.87267  1.0000
  H   H3213     1.0  0.25609  0.69329  0.87388  1.0000
  H   H3214     1.0  0.28943  0.72247  0.81360  1.0000
  C   C1839     1.0  0.23722  0.84494  0.57199  1.0000
  C   C1840     1.0  0.23836  0.82604  0.57388  1.0000
  C   C1841     1.0  0.24240  0.81816  0.55825  1.0000
  C   C1842     1.0  0.24525  0.82922  0.54066  1.0000
  C   C1843     1.0  0.24413  0.84811  0.53879  1.0000
  C   C1844     1.0  0.24018  0.85595  0.55441  1.0000
  H   H3215     1.0  0.23613  0.81744  0.58748  1.0000
  H   H3216     1.0  0.24318  0.80359  0.55979  1.0000
  H   H3217     1.0  0.24640  0.85669  0.52519  1.0000
  H   H3218     1.0  0.23952  0.87047  0.55281  1.0000
  C   C1845     1.0  0.19587  0.76740  0.79460  1.0000
  H   H3219     1.0  0.18648  0.65531  0.78339  1.0000
  H   H3220     1.0  0.19342  0.75427  0.80285  1.0000
  H   H3221     1.0  0.36627  0.75387  0.87560  1.0000
  H   H3222     1.0  0.33944  0.97084  0.69218  1.0000
  H   H3223     1.0  0.38231  0.71865  0.88865  1.0000
  C   C1846     1.0  0.19012  0.80073  0.79061  1.0000
  H   H3224     1.0  0.32692  0.73157  0.55070  1.0000
  C   C1847     1.0  0.35651  0.88639  0.54724  1.0000
  C   C1848     1.0  0.19641  0.62681  0.78053  1.0000
  C   C1849     1.0  0.20037  0.88673  0.65780  1.0000
  C   C1850     1.0  0.29601  0.48702  0.62506  1.0000
  C   C1851     1.0  0.28404  0.96166  0.60785  1.0000
  C   C1852     1.0  0.29578  0.95992  0.59086  1.0000
  C   C1853     1.0  0.29203  0.94992  0.57958  1.0000
  C   C1854     1.0  0.27646  0.94170  0.58518  1.0000
  C   C1855     1.0  0.26460  0.94369  0.60206  1.0000
  C   C1856     1.0  0.26840  0.95362  0.61335  1.0000
  H   H3225     1.0  0.26493  0.70584  0.81488  1.0000
  C   C1857     1.0  0.37553  0.70691  0.92668  1.0000
  H   H3226     1.0  0.25256  0.93743  0.60654  1.0000
  H   H3227     1.0  0.33186  0.94325  0.90625  1.0000
  S   S436      1.0  0.19904  0.90097  0.59790  1.0000
  C   C1858     1.0  0.24121  0.73805  0.47464  1.0000
  C   C1859     1.0  0.29494  0.50719  0.62656  1.0000
  H   H3228     1.0  0.33303  0.81540  0.93121  1.0000
  C   C1860     1.0  0.34857  0.79482  0.51800  1.0000
  C   C1861     1.0  0.36459  0.57770  0.65001  1.0000
  H   H3229     1.0  0.22262  0.90996  0.51901  1.0000
  H   H3230     1.0  0.30989  0.68832  0.94266  1.0000
  H   H3231     1.0  0.27710  0.74350  0.96801  1.0000
  H   H3232     1.0  0.25921  0.95497  0.62644  1.0000
  C   C1862     1.0  0.24036  0.90327  0.79020  1.0000
  H   H3233     1.0  0.19681  0.88036  0.83985  1.0000
  H   H3234     1.0  0.23989  0.68240  0.95582  1.0000
  C   C1863     1.0  0.19347  0.68328  0.74392  1.0000
  H   H3235     1.0  0.34241  0.82579  0.48355  1.0000
  H   H3236     1.0  0.19783  0.74245  0.84606  1.0000
  H   H3237     1.0  0.33389  0.77216  0.55442  1.0000
  C   C1864     1.0  0.33126  0.92881  0.91329  1.0000
  H   H3238     1.0  0.28520  0.96010  0.80902  1.0000
  H   H3239     1.0  0.24124  0.68775  0.91276  1.0000
  C   C1865     1.0  0.24285  0.88524  0.82070  1.0000
  C   C1866     1.0  0.30903  0.95384  0.74293  1.0000
  C   C1867     1.0  0.24693  0.72134  0.48612  1.0000
  H   H3240     1.0  0.24384  0.63258  0.74674  1.0000
  H   H3241     1.0  0.29703  0.95230  0.73816  1.0000
  H   H3242     1.0  0.30708  0.90821  0.87993  1.0000
  Fe  Fe222     1.0  0.24494  0.94159  0.86056  1.0000
  H   H3243     1.0  0.19752  0.92234  0.67801  1.0000
  H   H3244     1.0  0.23663  0.48923  0.51847  1.0000
  H   H3245     1.0  0.29340  0.50969  0.59027  1.0000
  H   H3246     1.0  0.36180  0.63567  0.71226  1.0000
  H   H3247     1.0  0.29588  0.70696  0.47230  1.0000
  H   H3248     1.0  0.24009  0.94643  0.78165  1.0000
  H   H3249     1.0  0.38326  0.54874  0.63330  1.0000
  H   H3250     1.0  0.19836  0.85911  0.67249  1.0000
  Fe  Fe223     1.0  0.18818  0.86593  0.73892  1.0000
  C   C1868     1.0  0.22016  0.58253  0.47377  1.0000
  H   H3251     1.0  0.21443  0.69992  0.61441  1.0000
  H   H3252     1.0  0.20904  0.81689  0.54957  1.0000
  H   H3253     1.0  0.18552  0.48596  0.56212  1.0000
  H   H3254     1.0  0.36309  0.83501  0.47910  1.0000
  H   H3255     1.0  0.20620  0.65134  0.76581  1.0000
  C   C1869     1.0  0.18704  0.78359  0.80120  1.0000
  H   H3256     1.0  0.36466  0.90074  0.94506  1.0000
  H   H3257     1.0  0.33924  0.89772  0.93724  1.0000
  C   C1870     1.0  0.37792  0.90152  0.96638  1.0000
  H   H3258     1.0  0.29888  0.50585  0.63997  1.0000
  C   C1871     1.0  0.26088  0.51038  0.63435  1.0000
  H   H3259     1.0  0.35720  0.97328  0.71464  1.0000
  H   H3260     1.0  0.21422  0.55726  0.49344  1.0000
  H   H3261     1.0  0.25588  0.69512  0.92364  1.0000
  C   C1872     1.0  0.24017  0.67895  0.73648  1.0000
  H   H3262     1.0  0.19749  0.56764  0.47902  1.0000
  C   C1873     1.0  0.19597  0.87682  0.69117  1.0000
  C   C1874     1.0  0.34909  0.67473  0.81375  1.0000
  S   S437      1.0  0.24468  0.75891  0.47760  1.0000
  H   H3263     1.0  0.23861  0.86943  0.88782  1.0000
  H   H3264     1.0  0.21835  0.95745  0.81827  1.0000
  C   C1875     1.0  0.19780  0.90851  0.67679  1.0000
  H   H3265     1.0  0.31542  0.80350  0.85286  1.0000
  C   C1876     1.0  0.22237  0.94770  0.80876  1.0000
  S   S438      1.0  0.24985  0.88149  0.84175  1.0000
  H   H3266     1.0  0.18902  0.62440  0.59606  1.0000
  C   C1877     1.0  0.32961  0.96372  0.80510  1.0000
  H   H3267     1.0  0.32284  0.47636  0.63301  1.0000
  H   H3268     1.0  0.34131  0.73867  0.56870  1.0000
  H   H3269     1.0  0.36610  0.79886  0.47602  1.0000
  H   H3270     1.0  0.33468  0.94317  0.57440  1.0000
  S   S439      1.0  0.19273  0.55092  0.58498  1.0000
  H   H3271     1.0  0.18862  0.64855  0.69556  1.0000
  S   S440      1.0  0.23959  0.59595  0.65631  1.0000
  C   C1878     1.0  0.33876  0.76736  0.56764  1.0000
  H   H3272     1.0  0.19443  0.89773  0.70599  1.0000
  H   H3273     1.0  0.23363  0.66800  0.61620  1.0000
  H   H3274     1.0  0.33627  0.93852  0.59826  1.0000
  H   H3275     1.0  0.20396  0.63128  0.84020  1.0000
  C   C1879     1.0  0.19185  0.85471  0.54215  1.0000
  C   C1880     1.0  0.34397  0.94196  0.58388  1.0000
  N   N104      1.0  0.21167  0.59637  0.48603  1.0000
  C   C1881     1.0  0.32776  0.85254  0.86670  1.0000
  C   C1882     1.0  0.35888  0.77711  0.51706  1.0000
  H   H3276     1.0  0.26252  0.53714  0.57322  1.0000
  H   H3277     1.0  0.21374  0.64224  0.85268  1.0000
  C   C1883     1.0  0.20403  0.63308  0.85413  1.0000
  H   H3278     1.0  0.33374  0.67842  0.81693  1.0000
  H   H3279     1.0  0.38312  0.68606  0.80876  1.0000
  C   C1884     1.0  0.25200  0.66688  0.93481  1.0000
  C   C1885     1.0  0.30454  0.94935  0.76394  1.0000
  H   H3280     1.0  0.29166  0.95863  0.76922  1.0000
  C   C1886     1.0  0.37323  0.76894  0.84826  1.0000
  C   C1887     1.0  0.34827  0.83516  0.56216  1.0000
  H   H3281     1.0  0.32389  0.86994  0.84006  1.0000
  C   C1888     1.0  0.34833  0.73492  0.81251  1.0000
  C   C1889     1.0  0.22655  0.51045  0.64549  1.0000
  H   H3282     1.0  0.25348  0.70678  0.96796  1.0000
  H   H3283     1.0  0.33899  0.74451  0.59051  1.0000
  H   H3284     1.0  0.35849  0.83008  0.55046  1.0000
  H   H3285     1.0  0.23843  0.69044  0.74299  1.0000
  C   C1890     1.0  0.22482  0.64212  0.96008  1.0000
  H   H3286     1.0  0.20420  0.81478  0.76494  1.0000
  H   H3287     1.0  0.21520  0.60245  0.54533  1.0000
  H   H3288     1.0  0.37121  0.75843  0.84165  1.0000
  H   H3289     1.0  0.24427  0.60813  0.48673  1.0000
  H   H3290     1.0  0.34821  0.95483  0.73103  1.0000
  H   H3291     1.0  0.20997  0.60787  0.80166  1.0000
  H   H3292     1.0  0.19513  0.65416  0.96139  1.0000
  H   H3293     1.0  0.23266  0.58302  0.50236  1.0000
  C   C1891     1.0  0.20809  0.62270  0.79517  1.0000
  C   C1892     1.0  0.20800  0.76828  0.77749  1.0000
  H   H3294     1.0  0.19019  0.63849  0.93936  1.0000
  H   H3295     1.0  0.29914  0.85896  0.86462  1.0000
  C   C1893     1.0  0.31600  0.47648  0.62177  1.0000
  H   H3296     1.0  0.36914  0.56388  0.71056  1.0000
  H   H3297     1.0  0.22769  0.69062  0.52875  1.0000
  H   H3298     1.0  0.24631  0.47987  0.59705  1.0000
  C   C1894     1.0  0.33377  0.74874  0.57746  1.0000
  H   H3299     1.0  0.36316  0.93796  0.55075  1.0000
  H   H3300     1.0  0.19912  0.62906  0.71087  1.0000
  H   H3301     1.0  0.30622  0.73215  0.94739  1.0000
  H   H3302     1.0  0.26317  0.50179  0.64798  1.0000
  C   C1895     1.0  0.21816  0.61409  0.47669  1.0000
  N   N105      1.0  0.29414  0.84812  0.57363  1.0000
  C   C1896     1.0  0.29020  0.86235  0.55671  1.0000
  C   C1897     1.0  0.28860  0.83047  0.57367  1.0000
  C   C1898     1.0  0.28240  0.85562  0.59025  1.0000
  C   C1899     1.0  0.31410  0.84455  0.57519  1.0000
  C   C1900     1.0  0.29339  0.88185  0.55560  1.0000
  C   C1901     1.0  0.28160  0.84201  0.60915  1.0000
  C   C1902     1.0  0.29106  0.82522  0.55473  1.0000
  C   C1903     1.0  0.28988  0.80514  0.55704  1.0000
  C   C1904     1.0  0.28995  0.89455  0.53741  1.0000
  C   C1905     1.0  0.26836  0.85104  0.62446  1.0000
  H   H3303     1.0  0.27550  0.86394  0.55579  1.0000
  H   H3304     1.0  0.29851  0.85787  0.54392  1.0000
  H   H3305     1.0  0.29597  0.81869  0.58271  1.0000
  H   H3306     1.0  0.27360  0.83116  0.57978  1.0000
  H   H3307     1.0  0.26794  0.86111  0.58824  1.0000
  H   H3308     1.0  0.28734  0.86750  0.59189  1.0000
  H   H3309     1.0  0.31762  0.85714  0.57697  1.0000
  H   H3310     1.0  0.31641  0.83421  0.58788  1.0000
  H   H3311     1.0  0.28370  0.88829  0.56675  1.0000
  H   H3312     1.0  0.30776  0.88139  0.55656  1.0000
  H   H3313     1.0  0.29539  0.83759  0.61288  1.0000
  H   H3314     1.0  0.27662  0.82961  0.60912  1.0000
  H   H3315     1.0  0.27993  0.83394  0.54763  1.0000
  H   H3316     1.0  0.30432  0.82729  0.54540  1.0000
  H   H3317     1.0  0.27736  0.80189  0.56725  1.0000
  H   H3318     1.0  0.28911  0.80258  0.54364  1.0000
  H   H3319     1.0  0.30232  0.79589  0.56157  1.0000
  H   H3320     1.0  0.29973  0.88930  0.52557  1.0000
  H   H3321     1.0  0.27554  0.89578  0.53597  1.0000
  H   H3322     1.0  0.29196  0.90849  0.53715  1.0000
  H   H3323     1.0  0.26837  0.84129  0.63791  1.0000
  H   H3324     1.0  0.27259  0.86360  0.62533  1.0000
  H   H3325     1.0  0.25404  0.85478  0.62193  1.0000
  H   H3326     1.0  0.18547  0.58790  0.49824  1.0000
  H   H3327     1.0  0.36015  0.77929  0.84998  1.0000
  Fe  Fe224     1.0  0.37725  0.85288  0.92063  1.0000
  C   C1906     1.0  0.36104  0.92695  0.58031  1.0000
  H   H3328     1.0  0.36613  0.91057  0.53097  1.0000
  C   C1907     1.0  0.36224  0.58341  0.62966  1.0000
  H   H3329     1.0  0.22193  0.62604  0.78887  1.0000
  H   H3330     1.0  0.22061  0.63565  0.60356  1.0000
  H   H3331     1.0  0.21071  0.62524  0.48435  1.0000
  H   H3332     1.0  0.36477  0.65854  0.71091  1.0000
  H   H3333     1.0  0.20802  0.68233  0.58831  1.0000
  C   C1908     1.0  0.23261  0.87346  0.81830  1.0000
  N   N106      1.0  0.35704  0.68096  0.82675  1.0000
  H   H3334     1.0  0.24496  0.86370  0.91002  1.0000
  C   C1909     1.0  0.34918  0.70109  0.82719  1.0000
  C   C1910     1.0  0.35148  0.66997  0.84589  1.0000
  H   H3335     1.0  0.33151  0.70646  0.53526  1.0000
  C   C1911     1.0  0.32737  0.90702  0.94424  1.0000
  C   C1912     1.0  0.38224  0.54662  0.64839  1.0000
  C   C1913     1.0  0.33043  0.67296  0.85430  1.0000
  Fe  Fe225     1.0  0.22750  0.67990  0.78640  1.0000
  H   H3336     1.0  0.35078  0.84859  0.56279  1.0000
  H   H3337     1.0  0.35231  0.87992  0.56193  1.0000
  C   C1914     1.0  0.32674  0.66130  0.87371  1.0000
  H   H3338     1.0  0.34922  0.77655  0.47831  1.0000
  C   C1915     1.0  0.21262  0.60210  0.51779  1.0000
  H   H3339     1.0  0.33458  0.70473  0.82537  1.0000
  H   H3340     1.0  0.34854  0.70389  0.84098  1.0000
  H   H3341     1.0  0.35847  0.67302  0.85565  1.0000
  H   H3342     1.0  0.35608  0.65498  0.84617  1.0000
  H   H3343     1.0  0.19608  0.85809  0.52686  1.0000
  C   C1916     1.0  0.31331  0.95677  0.81166  1.0000
  Fe  Fe226     1.0  0.28531  0.92990  0.84358  1.0000
  C   C1917     1.0  0.23925  0.61307  0.47363  1.0000
  H   H3344     1.0  0.37961  0.69725  0.93911  1.0000
  H   H3345     1.0  0.35218  0.57206  0.65790  1.0000
  H   H3346     1.0  0.32273  0.66888  0.84599  1.0000
  H   H3347     1.0  0.32457  0.68755  0.85521  1.0000
  H   H3348     1.0  0.35054  0.82515  0.57504  1.0000
  Fe  Fe227     1.0  0.25816  0.90477  0.84879  1.0000
  C   C1918     1.0  0.24696  0.90000  0.80650  1.0000
  S   S441      1.0  0.20015  0.92270  0.64000  1.0000
  C   C1919     1.0  0.33154  0.86880  0.85100  1.0000
  C   C1920     1.0  0.35187  0.83376  0.47292  1.0000
  H   H3349     1.0  0.21201  0.83140  0.81468  1.0000
  H   H3350     1.0  0.35236  0.65945  0.81581  1.0000
  H   H3351     1.0  0.34443  0.91981  0.90808  1.0000
  H   H3352     1.0  0.33116  0.64644  0.87333  1.0000
  H   H3353     1.0  0.33427  0.66461  0.88275  1.0000
  H   H3354     1.0  0.31171  0.66416  0.87971  1.0000
  N   N107      1.0  0.22912  0.65859  0.58256  1.0000
  C   C1921     1.0  0.22922  0.66550  0.56225  1.0000
  H   H3355     1.0  0.18934  0.92548  0.78672  1.0000
  C   C1922     1.0  0.24826  0.65008  0.58619  1.0000
  C   C1923     1.0  0.25889  0.63394  0.57659  1.0000
  C   C1924     1.0  0.24174  0.67961  0.55192  1.0000
  C   C1925     1.0  0.27865  0.62765  0.57982  1.0000
  C   C1926     1.0  0.24183  0.68436  0.53132  1.0000
  H   H3356     1.0  0.23360  0.65403  0.55473  1.0000
  H   H3357     1.0  0.23089  0.68521  0.58642  1.0000
  H   H3358     1.0  0.25688  0.66066  0.58246  1.0000
  H   H3359     1.0  0.24776  0.64469  0.60119  1.0000
  H   H3360     1.0  0.25976  0.63771  0.56151  1.0000
  H   H3361     1.0  0.25200  0.62208  0.58241  1.0000
  H   H3362     1.0  0.23676  0.69272  0.55691  1.0000
  H   H3363     1.0  0.25625  0.67408  0.55352  1.0000
  S   S442      1.0  0.21997  0.89766  0.76826  1.0000
  H   H3364     1.0  0.22746  0.62594  0.57142  1.0000
  H   H3365     1.0  0.27872  0.62391  0.59479  1.0000
  H   H3366     1.0  0.28558  0.61538  0.57370  1.0000
  H   H3367     1.0  0.28663  0.63871  0.57324  1.0000
  H   H3368     1.0  0.24728  0.67191  0.52519  1.0000
  C   C1927     1.0  0.19403  0.88839  0.85080  1.0000
  H   H3369     1.0  0.25087  0.69446  0.52441  1.0000
  H   H3370     1.0  0.32284  0.84944  0.96427  1.0000
  H   H3371     1.0  0.21635  0.56403  0.62145  1.0000
  N   N108      1.0  0.30546  0.73222  0.58861  1.0000
  C   C1928     1.0  0.31759  0.71831  0.60062  1.0000
  C   C1929     1.0  0.31253  0.75002  0.58171  1.0000
  C   C1930     1.0  0.28638  0.73626  0.60046  1.0000
  C   C1931     1.0  0.30377  0.72482  0.57276  1.0000
  C   C1932     1.0  0.32191  0.71909  0.55921  1.0000
  C   C1933     1.0  0.31180  0.69937  0.60877  1.0000
  C   C1934     1.0  0.27224  0.75231  0.59172  1.0000
  H   H3372     1.0  0.27070  0.87199  0.88466  1.0000
  C   C1935     1.0  0.31884  0.70863  0.54605  1.0000
  C   C1936     1.0  0.32536  0.68642  0.62025  1.0000
  C   C1937     1.0  0.25391  0.75569  0.60536  1.0000
  H   H3373     1.0  0.31821  0.72416  0.61234  1.0000
  H   H3374     1.0  0.33208  0.71532  0.59310  1.0000
  H   H3375     1.0  0.30720  0.75798  0.56911  1.0000
  H   H3376     1.0  0.30708  0.75899  0.59210  1.0000
  H   H3377     1.0  0.28733  0.73935  0.61362  1.0000
  H   H3378     1.0  0.27983  0.72402  0.60435  1.0000
  H   H3379     1.0  0.29669  0.71300  0.57798  1.0000
  H   H3380     1.0  0.29470  0.73517  0.56419  1.0000
  H   H3381     1.0  0.33282  0.71007  0.56637  1.0000
  H   H3382     1.0  0.29796  0.70081  0.61795  1.0000
  H   H3383     1.0  0.31161  0.69250  0.59770  1.0000
  H   H3384     1.0  0.26923  0.74900  0.57969  1.0000
  H   H3385     1.0  0.27729  0.76541  0.58720  1.0000
  H   H3386     1.0  0.18841  0.84227  0.58164  1.0000
  H   H3387     1.0  0.31581  0.69500  0.55362  1.0000
  H   H3388     1.0  0.32073  0.67313  0.62609  1.0000
  H   H3389     1.0  0.33940  0.68364  0.61157  1.0000
  H   H3390     1.0  0.32598  0.69243  0.63180  1.0000
  H   H3391     1.0  0.24399  0.76694  0.59858  1.0000
  H   H3392     1.0  0.24784  0.74316  0.60991  1.0000
  H   H3393     1.0  0.25589  0.75975  0.61756  1.0000
  H   H3394     1.0  0.21031  0.60912  0.60072  1.0000
  C   C1938     1.0  0.20183  0.80164  0.77328  1.0000
  C   C1939     1.0  0.20714  0.97370  0.51436  1.0000
  H   H3395     1.0  0.37354  0.60515  0.69457  1.0000
  H   H3396     1.0  0.33977  0.93170  0.93685  1.0000
  H   H3397     1.0  0.36359  0.59052  0.65482  1.0000
  H   H3398     1.0  0.21468  0.87916  0.53325  1.0000
  H   H3399     1.0  0.34171  0.95688  0.81087  1.0000
  H   H3400     1.0  0.34108  0.89972  0.87630  1.0000
  S   S443      1.0  0.35880  0.81246  0.51948  1.0000
  C   C1940     1.0  0.19084  0.60014  0.48942  1.0000
  N   N109      1.0  0.23103  0.65636  0.96637  1.0000
  C   C1941     1.0  0.19829  0.87288  0.67371  1.0000
  C   C1942     1.0  0.25378  0.68339  0.91887  1.0000
  C   C1943     1.0  0.18516  0.90833  0.84392  1.0000
  H   H3401     1.0  0.22964  0.86185  0.82916  1.0000
  C   C1944     1.0  0.19362  0.52584  0.52083  1.0000
  N   N110      1.0  0.30088  0.83897  0.89016  1.0000
  C   C1945     1.0  0.30694  0.85503  0.87588  1.0000
  C   C1946     1.0  0.28074  0.84420  0.89921  1.0000
  C   C1947     1.0  0.31230  0.83456  0.90480  1.0000
  C   C1948     1.0  0.30421  0.82206  0.88219  1.0000
  C   C1949     1.0  0.29443  0.82379  0.86625  1.0000
  C   C1950     1.0  0.30725  0.81944  0.92188  1.0000
  C   C1951     1.0  0.26770  0.85805  0.88713  1.0000
  C   C1952     1.0  0.24744  0.85921  0.89674  1.0000
  C   C1953     1.0  0.30030  0.80621  0.85846  1.0000
  C   C1954     1.0  0.31791  0.81834  0.93670  1.0000
  H   H3402     1.0  0.30353  0.86734  0.88224  1.0000
  H   H3403     1.0  0.27472  0.83166  0.90525  1.0000
  H   H3404     1.0  0.27944  0.85087  0.91099  1.0000
  H   H3405     1.0  0.31146  0.84723  0.90975  1.0000
  H   H3406     1.0  0.32714  0.82984  0.89907  1.0000
  H   H3407     1.0  0.31924  0.81706  0.87751  1.0000
  H   H3408     1.0  0.29955  0.81053  0.89301  1.0000
  H   H3409     1.0  0.33624  0.85190  0.87678  1.0000
  H   H3410     1.0  0.31095  0.80576  0.91803  1.0000
  H   H3411     1.0  0.29233  0.82214  0.92817  1.0000
  H   H3412     1.0  0.26933  0.85459  0.87357  1.0000
  C   C1955     1.0  0.20740  0.64894  0.95138  1.0000
  H   H3413     1.0  0.35617  0.91397  0.58251  1.0000
  H   H3414     1.0  0.24345  0.84569  0.89925  1.0000
  H   H3415     1.0  0.29299  0.80771  0.84717  1.0000
  H   H3416     1.0  0.22846  0.50174  0.65910  1.0000
  H   H3417     1.0  0.31413  0.83148  0.94167  1.0000
  H   H3418     1.0  0.31456  0.80710  0.94855  1.0000
  C   C1956     1.0  0.20415  0.89176  0.53514  1.0000
  C   C1957     1.0  0.20908  0.90713  0.51885  1.0000
  H   H3419     1.0  0.26046  0.50067  0.62596  1.0000
  H   H3420     1.0  0.20490  0.89592  0.54778  1.0000
  H   H3421     1.0  0.20627  0.64153  0.56784  1.0000
  C   C1958     1.0  0.30466  0.96574  0.87166  1.0000
  C   C1959     1.0  0.19247  0.64769  0.77195  1.0000
  N   N111      1.0  0.30361  0.64915  0.71935  1.0000
  C   C1960     1.0  0.29471  0.66326  0.73128  1.0000
  C   C1961     1.0  0.30042  0.65698  0.69992  1.0000
  C   C1962     1.0  0.29419  0.63291  0.72724  1.0000
  C   C1963     1.0  0.32390  0.64224  0.71952  1.0000
  C   C1964     1.0  0.33642  0.65663  0.71261  1.0000
  C   C1965     1.0  0.29511  0.65684  0.75207  1.0000
  C   C1966     1.0  0.29868  0.61807  0.71536  1.0000
  C   C1967     1.0  0.30050  0.67776  0.69231  1.0000
  C   C1968     1.0  0.29997  0.68308  0.67183  1.0000
  C   C1969     1.0  0.35548  0.64859  0.71742  1.0000
  C   C1970     1.0  0.28674  0.67277  0.76220  1.0000
  C   C1971     1.0  0.28725  0.60319  0.72427  1.0000
  H   H3422     1.0  0.27991  0.66827  0.73021  1.0000
  H   H3423     1.0  0.30093  0.67566  0.72632  1.0000
  H   H3424     1.0  0.31069  0.64906  0.69012  1.0000
  H   H3425     1.0  0.28658  0.65542  0.69885  1.0000
  H   H3426     1.0  0.27902  0.63777  0.72990  1.0000
  H   H3427     1.0  0.29766  0.62556  0.74080  1.0000
  H   H3428     1.0  0.32589  0.63469  0.73354  1.0000
  H   H3429     1.0  0.32992  0.63188  0.71065  1.0000
  H   H3430     1.0  0.33062  0.66898  0.71874  1.0000
  H   H3431     1.0  0.33852  0.66073  0.69736  1.0000
  H   H3432     1.0  0.28678  0.64607  0.75860  1.0000
  H   H3433     1.0  0.30946  0.65143  0.75427  1.0000
  H   H3434     1.0  0.31343  0.61121  0.71385  1.0000
  H   H3435     1.0  0.29553  0.62404  0.70147  1.0000
  H   H3436     1.0  0.28804  0.68618  0.69954  1.0000
  H   H3437     1.0  0.31281  0.68168  0.69413  1.0000
  H   H3438     1.0  0.31184  0.67470  0.66386  1.0000
  H   H3439     1.0  0.28682  0.68107  0.66963  1.0000
  H   H3440     1.0  0.30071  0.69781  0.66666  1.0000
  H   H3441     1.0  0.37410  0.58911  0.62045  1.0000
  H   H3442     1.0  0.35444  0.64568  0.73256  1.0000
  C   C1972     1.0  0.20319  0.61808  0.58970  1.0000
  H   H3443     1.0  0.29499  0.68375  0.75699  1.0000
  H   H3444     1.0  0.27229  0.67866  0.76039  1.0000
  H   H3445     1.0  0.28651  0.66775  0.77716  1.0000
  H   H3446     1.0  0.29019  0.59625  0.73810  1.0000
  H   H3447     1.0  0.27226  0.60923  0.72556  1.0000
  H   H3448     1.0  0.29082  0.59274  0.71551  1.0000
  H   H3449     1.0  0.22904  0.96944  0.78515  1.0000
  H   H3450     1.0  0.20523  0.82412  0.52624  1.0000
  H   H3451     1.0  0.21488  0.67199  0.56021  1.0000
  C   C1973     1.0  0.35481  0.68281  0.79300  1.0000
  H   H3452     1.0  0.28017  0.52029  0.56277  1.0000
  Fe  Fe228     1.0  0.37793  0.84012  0.96107  1.0000
  S   S444      1.0  0.21485  0.67175  0.81637  1.0000
  H   H3453     1.0  0.31499  0.90414  0.94124  1.0000
  H   H3454     1.0  0.35510  0.65832  0.78322  1.0000
  H   H3455     1.0  0.19767  0.87096  0.56751  1.0000
  C   C1974     1.0  0.18777  0.70410  0.73798  1.0000
  H   H3456     1.0  0.34796  0.95541  0.58182  1.0000
  C   C1975     1.0  0.21974  0.67095  0.61290  1.0000
  H   H3457     1.0  0.23684  0.64195  0.47406  1.0000
  C   C1976     1.0  0.22753  0.97328  0.89116  1.0000
  H   H3458     1.0  0.21729  0.57415  0.64958  1.0000
  H   H3459     1.0  0.19183  0.62988  0.74518  1.0000
  S   S445      1.0  0.20512  0.51176  0.56958  1.0000
  H   H3460     1.0  0.21081  0.72452  0.86077  1.0000
  H   H3461     1.0  0.38238  0.50857  0.65779  1.0000
  H   H3462     1.0  0.34440  0.88949  0.54061  1.0000
  S   S446      1.0  0.24210  0.91293  0.87533  1.0000
  C   C1977     1.0  0.29771  0.96558  0.80418  1.0000
  H   H3463     1.0  0.26590  0.67964  0.90797  1.0000
  C   C1978     1.0  0.21236  0.56463  0.47940  1.0000
  H   H3464     1.0  0.20269  0.68070  0.75375  1.0000
  C   C1979     1.0  0.21631  0.64505  0.59099  1.0000
  C   C1980     1.0  0.19042  0.64507  0.74149  1.0000
  H   H3465     1.0  0.26492  0.63367  0.95321  1.0000
  H   H3466     1.0  0.36358  0.71274  0.79917  1.0000
  H   H3467     1.0  0.24098  0.69566  0.70917  1.0000
  H   H3468     1.0  0.24362  0.91464  0.77918  1.0000
  H   H3469     1.0  0.20507  0.85086  0.54714  1.0000
  S   S447      1.0  0.25924  0.93370  0.83330  1.0000
  H   H3470     1.0  0.31499  0.93627  0.93833  1.0000
  H   H3471     1.0  0.38205  0.77147  0.48378  1.0000
  S   S448      1.0  0.27115  0.94007  0.86962  1.0000
  H   H3472     1.0  0.34654  0.86685  0.84487  1.0000
  H   H3473     1.0  0.38266  0.94519  0.64902  1.0000
  S   S449      1.0  0.20417  0.71576  0.81734  1.0000
  C   C1981     1.0  0.34477  0.59812  0.62764  1.0000
  N   N112      1.0  0.24255  0.76856  0.81779  1.0000
  C   C1982     1.0  0.22522  0.76302  0.83022  1.0000
  C   C1983     1.0  0.23835  0.78831  0.80763  1.0000
  C   C1984     1.0  0.24915  0.75647  0.80362  1.0000
  C   C1985     1.0  0.25776  0.76562  0.82819  1.0000
  C   C1986     1.0  0.25345  0.77577  0.84433  1.0000
  C   C1987     1.0  0.22721  0.74275  0.84085  1.0000
  C   C1988     1.0  0.26578  0.76109  0.78801  1.0000
  C   C1989     1.0  0.22358  0.80214  0.81810  1.0000
  C   C1990     1.0  0.22341  0.82192  0.80749  1.0000
  C   C1991     1.0  0.26856  0.76894  0.85568  1.0000
  C   C1992     1.0  0.30485  0.74412  0.95367  1.0000
  C   C1993     1.0  0.27057  0.74828  0.77436  1.0000
  H   H3474     1.0  0.21443  0.76543  0.82198  1.0000
  H   H3475     1.0  0.21912  0.77175  0.84062  1.0000
  H   H3476     1.0  0.25126  0.79391  0.80251  1.0000
  H   H3477     1.0  0.23304  0.78905  0.79508  1.0000
  H   H3478     1.0  0.23761  0.75677  0.79700  1.0000
  H   H3479     1.0  0.25348  0.74192  0.81023  1.0000
  H   H3480     1.0  0.26242  0.75073  0.83347  1.0000
  H   H3481     1.0  0.27023  0.77009  0.81882  1.0000
  H   H3482     1.0  0.24026  0.77369  0.85387  1.0000
  H   H3483     1.0  0.25302  0.79067  0.83884  1.0000
  H   H3484     1.0  0.23075  0.73313  0.83125  1.0000
  H   H3485     1.0  0.23796  0.73921  0.84927  1.0000
  H   H3486     1.0  0.27828  0.75930  0.79366  1.0000
  H   H3487     1.0  0.26270  0.77538  0.78016  1.0000
  H   H3488     1.0  0.21256  0.51937  0.64718  1.0000
  H   H3489     1.0  0.22574  0.80134  0.83202  1.0000
  H   H3490     1.0  0.37342  0.77400  0.51744  1.0000
  C   C1994     1.0  0.36698  0.94681  0.70718  1.0000
  C   C1995     1.0  0.20544  0.94433  0.80329  1.0000
  H   H3491     1.0  0.26557  0.77690  0.86673  1.0000
  H   H3492     1.0  0.26913  0.75419  0.86222  1.0000
  H   H3493     1.0  0.28227  0.77066  0.84688  1.0000
  H   H3494     1.0  0.34350  0.92152  0.96545  1.0000
  H   H3495     1.0  0.25889  0.75029  0.76738  1.0000
  H   H3496     1.0  0.28285  0.75139  0.76369  1.0000
  H   H3497     1.0  0.27371  0.73368  0.78149  1.0000
  H   H3498     1.0  0.29678  0.79424  0.86932  1.0000
  C   C1996     1.0  0.20910  0.73925  0.85385  1.0000
  H   H3499     1.0  0.33550  0.73623  0.80752  1.0000
  C   C1997     1.0  0.34836  0.67310  0.78129  1.0000
  C   C1998     1.0  0.20839  0.68752  0.62108  1.0000
  H   H3500     1.0  0.28274  0.73946  0.47436  1.0000
  H   H3501     1.0  0.37853  0.94378  0.56094  1.0000
  H   H3502     1.0  0.33256  0.83991  0.86089  1.0000
  H   H3503     1.0  0.21116  0.57662  0.51174  1.0000
  H   H3504     1.0  0.20126  0.63077  0.80608  1.0000
  H   H3505     1.0  0.31851  0.74444  0.95611  1.0000
  C   C1999     1.0  0.24229  0.47480  0.51669  1.0000
  H   H3506     1.0  0.36884  0.54216  0.65475  1.0000
  H   H3507     1.0  0.20248  0.51973  0.53067  1.0000
  H   H3508     1.0  0.34555  0.61069  0.63191  1.0000
  H   H3509     1.0  0.19199  0.80872  0.54304  1.0000
  H   H3510     1.0  0.21011  0.90306  0.50565  1.0000
  H   H3511     1.0  0.21994  0.61373  0.51205  1.0000
  H   H3512     1.0  0.26924  0.50834  0.59594  1.0000
  C   C2000     1.0  0.22938  0.89202  0.78815  1.0000
  H   H3513     1.0  0.29958  0.96543  0.70872  1.0000
  C   C2001     1.0  0.36653  0.55312  0.68767  1.0000
  H   H3514     1.0  0.33233  0.59293  0.63623  1.0000
  H   H3515     1.0  0.35647  0.74487  0.80293  1.0000
  H   H3516     1.0  0.32727  0.82319  0.55894  1.0000
  H   H3517     1.0  0.30042  0.75685  0.94379  1.0000
  Fe  Fe229     1.0  0.22855  0.69269  0.82064  1.0000
  H   H3518     1.0  0.25532  0.90880  0.80804  1.0000
  C   C2002     1.0  0.21082  0.78545  0.76680  1.0000
  H   H3519     1.0  0.22011  0.78624  0.75350  1.0000
  C   C2003     1.0  0.24113  0.66115  0.74708  1.0000
  H   H3520     1.0  0.35279  0.56200  0.68663  1.0000
  H   H3521     1.0  0.32753  0.84639  0.54579  1.0000
  H   H3522     1.0  0.36942  0.92545  0.59075  1.0000
  H   H3523     1.0  0.26523  0.66279  0.93972  1.0000
  H   H3524     1.0  0.19969  0.50163  0.50915  1.0000
  H   H3525     1.0  0.22356  0.67945  0.94475  1.0000
  H   H3526     1.0  0.35218  0.67947  0.76651  1.0000
  S   S450      1.0  0.24035  0.65677  0.77090  1.0000
  H   H3527     1.0  0.21734  0.86813  0.80058  1.0000
  C   C2004     1.0  0.32870  0.83713  0.55930  1.0000
  C   C2005     1.0  0.22171  0.67503  0.59169  1.0000
  S   S451      1.0  0.28563  0.90025  0.85637  1.0000
  S   S452      1.0  0.22050  0.74824  0.76939  1.0000
  H   H3528     1.0  0.19757  0.60774  0.52076  1.0000
  C   C2006     1.0  0.37260  0.93205  0.56066  1.0000
  H   H3529     1.0  0.34323  0.60191  0.61306  1.0000
  C   C2007     1.0  0.37791  0.67742  0.82209  1.0000
  N   N113      1.0  0.27662  0.52046  0.62562  1.0000
  C   C2008     1.0  0.21753  0.58865  0.50432  1.0000
  C   C2009     1.0  0.24536  0.70478  0.48245  1.0000
  C   C2010     1.0  0.27494  0.53490  0.63659  1.0000
  C   C2011     1.0  0.27565  0.53013  0.60603  1.0000
  C   C2012     1.0  0.27906  0.51779  0.59186  1.0000
  C   C2013     1.0  0.24119  0.52239  0.63796  1.0000
  C   C2014     1.0  0.29123  0.54525  0.63167  1.0000
  C   C2015     1.0  0.33451  0.96555  0.70707  1.0000
  H   H3530     1.0  0.36660  0.53942  0.68529  1.0000
  C   C2016     1.0  0.27691  0.52938  0.57286  1.0000
  C   C2017     1.0  0.24321  0.64637  0.73855  1.0000
  C   C2018     1.0  0.28897  0.55741  0.64547  1.0000
  H   H3531     1.0  0.35400  0.76609  0.56454  1.0000
  S   S453      1.0  0.20309  0.70197  0.78020  1.0000
  H   H3532     1.0  0.35105  0.91338  0.55274  1.0000
  C   C2019     1.0  0.19987  0.90463  0.65936  1.0000
  H   H3533     1.0  0.27305  0.52859  0.65157  1.0000
  H   H3534     1.0  0.26245  0.54588  0.63482  1.0000
  H   H3535     1.0  0.26220  0.53982  0.60541  1.0000
  H   H3536     1.0  0.28617  0.53888  0.60050  1.0000
  H   H3537     1.0  0.20992  0.58158  0.54325  1.0000
  H   H3538     1.0  0.20966  0.79923  0.81971  1.0000
  H   H3539     1.0  0.23981  0.53065  0.64842  1.0000
  H   H3540     1.0  0.23791  0.53190  0.62522  1.0000
  H   H3541     1.0  0.29166  0.55441  0.61790  1.0000
  H   H3542     1.0  0.30477  0.53568  0.63173  1.0000
  H   H3543     1.0  0.19994  0.62204  0.95744  1.0000
  H   H3544     1.0  0.36770  0.87660  0.54020  1.0000
  H   H3545     1.0  0.35703  0.54508  0.71719  1.0000
  N   N114      1.0  0.32667  0.90268  0.96472  1.0000
  C   C2020     1.0  0.35977  0.71541  0.81330  1.0000
  H   H3546     1.0  0.20490  0.64730  0.73739  1.0000
  H   H3547     1.0  0.28645  0.53921  0.56809  1.0000
  H   H3548     1.0  0.25004  0.65565  0.92923  1.0000
  H   H3549     1.0  0.30724  0.71653  0.53918  1.0000
  S   S454      1.0  0.24662  0.67114  0.68468  1.0000
  H   H3550     1.0  0.27568  0.56751  0.64586  1.0000
  H   H3551     1.0  0.28935  0.54894  0.65950  1.0000
  H   H3552     1.0  0.30037  0.56515  0.64138  1.0000
  C   C2021     1.0  0.21404  0.63291  0.57852  1.0000
  S   S455      1.0  0.25999  0.49395  0.55828  1.0000
  C   C2022     1.0  0.21809  0.59241  0.53623  1.0000
  H   H3553     1.0  0.37527  0.73712  0.90052  1.0000
  C   C2023     1.0  0.29841  0.68706  0.95423  1.0000
  C   C2024     1.0  0.27071  0.47855  0.57553  1.0000
  H   H3554     1.0  0.20216  0.60932  0.58058  1.0000
  H   H3555     1.0  0.19267  0.86049  0.60246  1.0000
  H   H3556     1.0  0.37957  0.77110  0.87327  1.0000
  H   H3557     1.0  0.20794  0.65014  0.70415  1.0000
  C   C2025     1.0  0.23568  0.95559  0.79177  1.0000
  H   H3558     1.0  0.22728  0.50143  0.63591  1.0000
  C   C2026     1.0  0.20276  0.63331  0.94541  1.0000
  H   H3559     1.0  0.20520  0.74775  0.86455  1.0000
  N   N115      1.0  0.19081  0.93733  0.81896  1.0000
  H   H3560     1.0  0.20717  0.88762  0.85501  1.0000
  C   C2027     1.0  0.37809  0.76005  0.86709  1.0000
  C   C2028     1.0  0.19597  0.89462  0.69265  1.0000
  H   H3561     1.0  0.29361  0.96673  0.84824  1.0000
  H   H3562     1.0  0.23000  0.93460  0.81559  1.0000
  C   C2029     1.0  0.19880  0.91819  0.82821  1.0000
  H   H3563     1.0  0.31609  0.95072  0.76958  1.0000
  H   H3564     1.0  0.20419  0.61874  0.76986  1.0000
  H   H3565     1.0  0.19390  0.69035  0.61923  1.0000
  H   H3566     1.0  0.20959  0.65997  0.93901  1.0000
  H   H3567     1.0  0.21430  0.62775  0.93490  1.0000
  H   H3568     1.0  0.33039  0.95246  0.70760  1.0000
  S   S456      1.0  0.34289  0.97043  0.61609  1.0000
  H   H3569     1.0  0.19937  0.95725  0.79455  1.0000
  C   C2030     1.0  0.36880  0.55056  0.70748  1.0000
  H   H3570     1.0  0.21109  0.93439  0.79392  1.0000
  H   H3571     1.0  0.37939  0.94431  0.71323  1.0000
  H   H3572     1.0  0.36376  0.88165  0.96434  1.0000
  H   H3573     1.0  0.36508  0.71876  0.93112  1.0000
  C   C2031     1.0  0.36290  0.90415  0.54578  1.0000
  H   H3574     1.0  0.36243  0.93358  0.70962  1.0000
  H   H3575     1.0  0.36998  0.68135  0.78846  1.0000
  H   H3576     1.0  0.30767  0.96637  0.58643  1.0000
  H   H3577     1.0  0.37084  0.95196  0.69211  1.0000
  H   H3578     1.0  0.37505  0.75631  0.47332  1.0000
  H   H3579     1.0  0.33311  0.67438  0.78503  1.0000
  C   C2032     1.0  0.19841  0.82077  0.54097  1.0000
  H   H3580     1.0  0.37888  0.95622  0.59978  1.0000
  H   H3581     1.0  0.37271  0.71503  0.81765  1.0000
  H   H3582     1.0  0.18538  0.64401  0.87683  1.0000
  H   H3583     1.0  0.20141  0.67787  0.73149  1.0000
  H   H3584     1.0  0.36925  0.69962  0.91977  1.0000
  H   H3585     1.0  0.28855  0.47961  0.63809  1.0000
  H   H3586     1.0  0.30609  0.73273  0.47789  1.0000
  H   H3587     1.0  0.32388  0.48274  0.60836  1.0000
  H   H3588     1.0  0.24823  0.95682  0.79585  1.0000
  C   C2033     1.0  0.19522  0.64431  0.70774  1.0000
  Fe  Fe230     1.0  0.19164  0.69533  0.81054  1.0000
  H   H3589     1.0  0.20785  0.97049  0.52917  1.0000
  H   H3590     1.0  0.32111  0.94335  0.73839  1.0000
  H   H3591     1.0  0.19057  0.95279  0.90628  1.0000
  H   H3592     1.0  0.37656  0.89259  0.56906  1.0000
  H   H3593     1.0  0.37789  0.91646  0.96195  1.0000
  H   H3594     1.0  0.21611  0.53894  0.47069  1.0000
  H   H3595     1.0  0.38181  0.57523  0.67717  1.0000
  C   C2034     1.0  0.19210  0.51564  0.50859  1.0000
  C   C2035     1.0  0.38226  0.56176  0.67384  1.0000
  H   H3596     1.0  0.29337  0.96031  0.88228  1.0000
  C   C2036     1.0  0.38005  0.90026  0.55465  1.0000
  H   H3597     1.0  0.38314  0.68153  0.83246  1.0000
  S   S457      1.0  0.38375  0.63926  0.67285  1.0000
  H   H3598     1.0  0.38430  0.77598  0.83916  1.0000
  H   H3599     1.0  0.28492  0.97249  0.68159  1.0000
  H   H3600     1.0  0.29731  0.91417  0.96803  1.0000
  C   C2037     1.0  0.31288  0.97363  0.73550  1.0000
  H   H3601     1.0  0.18567  0.93178  0.90394  1.0000
  Fe  Fe231     1.0  0.56238  0.45197  0.15740  1.0000
  H   H3602     1.0  0.46800  0.23769  0.11813  1.0000
  H   H3603     1.0  0.39902  0.09568  0.15891  1.0000
  Fe  Fe232     1.0  0.56185  0.44443  0.12013  1.0000
  S   S458      1.0  0.54808  0.47269  0.17556  1.0000
  S   S459      1.0  0.54779  0.45591  0.09574  1.0000
  C   C2038     1.0  0.39058  0.22179  0.40144  1.0000
  H   H3604     1.0  0.52470  0.14025  0.02886  1.0000
  C   C2039     1.0  0.41677  0.10849  0.41729  1.0000
  H   H3605     1.0  0.57015  0.05526  0.01707  1.0000
  S   S460      1.0  0.54582  0.43643  0.14871  1.0000
  H   H3606     1.0  0.38926  0.43117  0.06862  1.0000
  Fe  Fe233     1.0  0.50208  0.41077  0.04422  1.0000
  S   S461      1.0  0.48258  0.43806  0.04190  1.0000
  S   S462      1.0  0.52233  0.40011  0.06327  1.0000
  Fe  Fe234     1.0  0.48706  0.39826  0.01688  1.0000
  S   S463      1.0  0.46603  0.42441  0.01252  1.0000
  S   S464      1.0  0.49286  0.37541  0.00131  1.0000
  Fe  Fe235     1.0  0.48927  0.43806  0.01148  1.0000
  C   C2040     1.0  0.55938  0.12544  0.01618  1.0000
  Fe  Fe236     1.0  0.46128  0.42196  0.04320  1.0000
  S   S465      1.0  0.51060  0.41211  0.01381  1.0000
  S   S466      1.0  0.48040  0.39447  0.04758  1.0000
  Fe  Fe237     1.0  0.49646  0.12835  0.32008  1.0000
  S   S467      1.0  0.50002  0.14970  0.29403  1.0000
  S   S468      1.0  0.52017  0.10401  0.32171  1.0000
  Fe  Fe238     1.0  0.45995  0.15069  0.33661  1.0000
  S   S469      1.0  0.46102  0.17366  0.31191  1.0000
  S   S470      1.0  0.43604  0.15040  0.36115  1.0000
  Fe  Fe239     1.0  0.46995  0.15131  0.29559  1.0000
  S   S471      1.0  0.45742  0.15585  0.27066  1.0000
  Fe  Fe240     1.0  0.49091  0.16985  0.31286  1.0000
  S   S472      1.0  0.46698  0.12833  0.32024  1.0000
  S   S473      1.0  0.48929  0.14842  0.33892  1.0000
  Fe  Fe241     1.0  0.43183  0.30984  0.99819  1.0000
  S   S474      1.0  0.45797  0.29076  0.98807  1.0000
  S   S475      1.0  0.42781  0.33374  0.01209  1.0000
  H   H3607     1.0  0.42557  0.99841  0.19446  1.0000
  Fe  Fe242     1.0  0.44196  0.26848  0.00225  1.0000
  S   S476      1.0  0.45663  0.24133  0.01639  1.0000
  H   H3608     1.0  0.41182  0.07579  0.09528  1.0000
  Fe  Fe243     1.0  0.44154  0.09534  0.21339  1.0000
  S   S477      1.0  0.46237  0.10188  0.18752  1.0000
  S   S478      1.0  0.44960  0.08861  0.24114  1.0000
  Fe  Fe244     1.0  0.41186  0.09703  0.19231  1.0000
  S   S479      1.0  0.43020  0.10403  0.16466  1.0000
  Fe  Fe245     1.0  0.45189  0.08234  0.17706  1.0000
  S   S480      1.0  0.47152  0.06156  0.16148  1.0000
  Fe  Fe246     1.0  0.43885  0.12289  0.17754  1.0000
  S   S481      1.0  0.44114  0.15208  0.16387  1.0000
  S   S482      1.0  0.43301  0.07388  0.20384  1.0000
  S   S483      1.0  0.41867  0.11786  0.20426  1.0000
  Fe  Fe247     1.0  0.55375  0.20715  0.07916  1.0000
  S   S484      1.0  0.52673  0.20028  0.07974  1.0000
  H   H3609     1.0  0.48937  0.35366  0.04008  1.0000
  Fe  Fe248     1.0  0.54047  0.21917  0.11596  1.0000
  S   S485      1.0  0.51232  0.21313  0.11956  1.0000
  S   S486      1.0  0.54549  0.22821  0.13981  1.0000
  Fe  Fe249     1.0  0.52741  0.18740  0.10932  1.0000
  S   S487      1.0  0.52205  0.15866  0.12051  1.0000
  Fe  Fe250     1.0  0.51426  0.22664  0.08974  1.0000
  S   S488      1.0  0.48993  0.24802  0.08146  1.0000
  S   S489      1.0  0.55550  0.19228  0.10808  1.0000
  S   S490      1.0  0.54131  0.23475  0.08683  1.0000
  H   H3610     1.0  0.52014  0.32172  0.44270  1.0000
  C   C2041     1.0  0.53281  0.15083  0.02057  1.0000
  H   H3611     1.0  0.48311  0.47001  0.28762  1.0000
  H   H3612     1.0  0.50874  0.44697  0.26020  1.0000
  H   H3613     1.0  0.54167  0.44075  0.99668  1.0000
  H   H3614     1.0  0.46455  0.32575  0.42827  1.0000
  C   C2042     1.0  0.44592  0.30738  0.43270  1.0000
  S   S491      1.0  0.58462  0.41953  0.12252  1.0000
  H   H3615     1.0  0.50956  0.30725  0.03198  1.0000
  H   H3616     1.0  0.44544  0.29257  0.43765  1.0000
  H   H3617     1.0  0.57761  0.21789  0.27750  1.0000
  C   C2043     1.0  0.50254  0.34349  0.04031  1.0000
  H   H3618     1.0  0.49279  0.45006  0.20109  1.0000
  C   C2044     1.0  0.57081  0.41958  0.45595  1.0000
  C   C2045     1.0  0.56583  0.99323  0.06873  1.0000
  Fe  Fe251     1.0  0.54865  0.35233  0.41295  1.0000
  S   S492      1.0  0.51992  0.35912  0.40791  1.0000
  S   S493      1.0  0.56717  0.32483  0.40979  1.0000
  Fe  Fe252     1.0  0.52559  0.38719  0.39444  1.0000
  S   S494      1.0  0.51734  0.39956  0.36703  1.0000
  S   S495      1.0  0.55524  0.37953  0.39720  1.0000
  C   C2046     1.0  0.54425  0.40508  0.46658  1.0000
  C   C2047     1.0  0.38724  0.01501  0.12818  1.0000
  H   H3619     1.0  0.56638  0.10540  0.97798  1.0000
  C   C2048     1.0  0.52379  0.16950  0.02656  1.0000
  H   H3620     1.0  0.51676  0.99729  0.18130  1.0000
  C   C2049     1.0  0.39754  0.07346  0.10117  1.0000
  H   H3621     1.0  0.45452  0.37082  0.40505  1.0000
  C   C2050     1.0  0.55860  0.41050  0.45240  1.0000
  C   C2051     1.0  0.51558  0.42343  0.36025  1.0000
  C   C2052     1.0  0.51138  0.43246  0.34302  1.0000
  C   C2053     1.0  0.51244  0.45106  0.33632  1.0000
  C   C2054     1.0  0.51910  0.43214  0.20242  1.0000
  C   C2055     1.0  0.52004  0.45202  0.36485  1.0000
  C   C2056     1.0  0.51960  0.43331  0.37128  1.0000
  H   H3622     1.0  0.50799  0.42487  0.33460  1.0000
  C   C2057     1.0  0.50542  0.44985  0.20586  1.0000
  H   H3623     1.0  0.46790  0.45830  0.22346  1.0000
  H   H3624     1.0  0.52268  0.42645  0.38464  1.0000
  H   H3625     1.0  0.55196  0.40656  0.99832  1.0000
  H   H3626     1.0  0.52583  0.00502  0.34020  1.0000
  H   H3627     1.0  0.46293  0.21922  0.13738  1.0000
  H   H3628     1.0  0.41966  0.03154  0.16898  1.0000
  H   H3629     1.0  0.54377  0.12777  0.99481  1.0000
  C   C2058     1.0  0.49898  0.32391  0.40461  1.0000
  C   C2059     1.0  0.56442  0.23880  0.13619  1.0000
  C   C2060     1.0  0.56908  0.24236  0.15137  1.0000
  C   C2061     1.0  0.51160  0.46156  0.97028  1.0000
  H   H3630     1.0  0.57670  0.02245  0.03162  1.0000
  H   H3631     1.0  0.48753  0.30007  0.00509  1.0000
  H   H3632     1.0  0.43624  0.21717  0.12542  1.0000
  H   H3633     1.0  0.56116  0.23838  0.16505  1.0000
  C   C2062     1.0  0.38844  0.02393  0.14383  1.0000
  H   H3634     1.0  0.50899  0.15511  0.08659  1.0000
  H   H3635     1.0  0.44767  0.47273  0.24741  1.0000
  C   C2063     1.0  0.46369  0.15373  0.15204  1.0000
  C   C2064     1.0  0.47624  0.13834  0.14678  1.0000
  C   C2065     1.0  0.49423  0.13992  0.13723  1.0000
  C   C2066     1.0  0.49969  0.15688  0.13295  1.0000
  C   C2067     1.0  0.48724  0.17217  0.13853  1.0000
  C   C2068     1.0  0.46920  0.17065  0.14790  1.0000
  H   H3636     1.0  0.47201  0.12527  0.14980  1.0000
  H   H3637     1.0  0.50386  0.12803  0.13299  1.0000
  H   H3638     1.0  0.49147  0.18517  0.13559  1.0000
  H   H3639     1.0  0.45954  0.18255  0.15207  1.0000
  C   C2069     1.0  0.46616  0.24352  0.03412  1.0000
  C   C2070     1.0  0.48193  0.23093  0.03861  1.0000
  C   C2071     1.0  0.48952  0.23231  0.05300  1.0000
  C   C2072     1.0  0.48102  0.24598  0.06323  1.0000
  C   C2073     1.0  0.46503  0.25833  0.05897  1.0000
  C   C2074     1.0  0.45779  0.25733  0.04422  1.0000
  H   H3640     1.0  0.48849  0.22035  0.03070  1.0000
  H   H3641     1.0  0.50195  0.22286  0.05608  1.0000
  H   H3642     1.0  0.45829  0.26881  0.06698  1.0000
  H   H3643     1.0  0.44554  0.26703  0.04086  1.0000
  H   H3644     1.0  0.47184  0.00686  0.13952  1.0000
  S   S496      1.0  0.39419  0.31957  0.45917  1.0000
  C   C2075     1.0  0.58398  0.25097  0.14895  1.0000
  H   H3645     1.0  0.57712  0.28098  0.28924  1.0000
  H   H3646     1.0  0.52491  0.97546  0.29735  1.0000
  H   H3647     1.0  0.44900  0.97852  0.08319  1.0000
  C   C2076     1.0  0.47869  0.05662  0.43019  1.0000
  H   H3648     1.0  0.57249  0.06161  0.97256  1.0000
  H   H3649     1.0  0.42556  0.98817  0.21850  1.0000
  C   C2077     1.0  0.47153  0.03136  0.14862  1.0000
  C   C2078     1.0  0.46086  0.04525  0.15794  1.0000
  C   C2079     1.0  0.44204  0.04548  0.16498  1.0000
  H   H3650     1.0  0.48607  0.03120  0.14307  1.0000
  H   H3651     1.0  0.43369  0.05619  0.17212  1.0000
  C   C2080     1.0  0.41899  0.17073  0.36111  1.0000
  C   C2081     1.0  0.40159  0.17043  0.37279  1.0000
  H   H3652     1.0  0.41595  0.00069  0.12258  1.0000
  Fe  Fe253     1.0  0.57285  0.26160  0.34678  1.0000
  C   C2082     1.0  0.40870  0.20314  0.34907  1.0000
  C   C2083     1.0  0.42253  0.18720  0.34944  1.0000
  H   H3653     1.0  0.56602  0.97822  0.07372  1.0000
  H   H3654     1.0  0.49739  0.01182  0.08692  1.0000
  H   H3655     1.0  0.41154  0.21578  0.33982  1.0000
  H   H3656     1.0  0.43599  0.18777  0.34080  1.0000
  C   C2084     1.0  0.45400  0.13690  0.26377  1.0000
  C   C2085     1.0  0.44542  0.14008  0.24879  1.0000
  C   C2086     1.0  0.44393  0.12535  0.24182  1.0000
  C   C2087     1.0  0.45073  0.10729  0.25003  1.0000
  C   C2088     1.0  0.45873  0.10405  0.26546  1.0000
  C   C2089     1.0  0.46041  0.11883  0.27231  1.0000
  H   H3657     1.0  0.44030  0.15404  0.24227  1.0000
  H   H3658     1.0  0.43773  0.12798  0.22995  1.0000
  H   H3659     1.0  0.46391  0.09008  0.27191  1.0000
  H   H3660     1.0  0.46695  0.11629  0.28393  1.0000
  C   C2090     1.0  0.55056  0.31800  0.36601  1.0000
  C   C2091     1.0  0.55309  0.32589  0.37967  1.0000
  C   C2092     1.0  0.56304  0.31518  0.39303  1.0000
  H   H3661     1.0  0.53036  0.34376  0.04280  1.0000
  H   H3662     1.0  0.54754  0.34031  0.37971  1.0000
  H   H3663     1.0  0.56961  0.30563  0.26262  1.0000
  H   H3664     1.0  0.54891  0.29855  0.44171  1.0000
  H   H3665     1.0  0.40965  0.43053  0.02991  1.0000
  H   H3666     1.0  0.53719  0.44862  0.29720  1.0000
  C   C2093     1.0  0.55856  0.18155  0.27911  1.0000
  H   H3667     1.0  0.44453  0.07781  0.42481  1.0000
  C   C2094     1.0  0.52409  0.21199  0.32004  1.0000
  H   H3668     1.0  0.56742  0.08567  0.41329  1.0000
  H   H3669     1.0  0.38847  0.08673  0.10380  1.0000
  C   C2095     1.0  0.47458  0.36428  0.00382  1.0000
  C   C2096     1.0  0.47755  0.34924  0.99538  1.0000
  C   C2097     1.0  0.46324  0.33985  0.99763  1.0000
  C   C2098     1.0  0.44589  0.34555  0.00825  1.0000
  C   C2099     1.0  0.44289  0.36075  0.01645  1.0000
  C   C2100     1.0  0.45722  0.37004  0.01435  1.0000
  H   H3670     1.0  0.49097  0.34478  0.98717  1.0000
  H   H3671     1.0  0.46561  0.32823  0.99115  1.0000
  H   H3672     1.0  0.42943  0.36529  0.02454  1.0000
  H   H3673     1.0  0.45485  0.38163  0.02088  1.0000
  C   C2101     1.0  0.46876  0.36722  0.42707  1.0000
  H   H3674     1.0  0.40677  0.04626  0.11567  1.0000
  H   H3675     1.0  0.56223  0.14521  0.27516  1.0000
  C   C2102     1.0  0.57118  0.42034  0.35016  1.0000
  H   H3676     1.0  0.55614  0.01123  0.30280  1.0000
  C   C2103     1.0  0.48305  0.46488  0.25259  1.0000
  H   H3677     1.0  0.43477  0.31532  0.44174  1.0000
  C   C2104     1.0  0.44743  0.22353  0.11574  1.0000
  H   H3678     1.0  0.46705  0.05042  0.43929  1.0000
  H   H3679     1.0  0.44117  0.46070  0.05211  1.0000
  H   H3680     1.0  0.42404  0.16262  0.32330  1.0000
  H   H3681     1.0  0.53197  0.13487  0.36365  1.0000
  H   H3682     1.0  0.49853  0.01454  0.19946  1.0000
  H   H3683     1.0  0.48968  0.31839  0.38166  1.0000
  C   C2105     1.0  0.46352  0.01750  0.14670  1.0000
  C   C2106     1.0  0.52152  0.99072  0.29376  1.0000
  C   C2107     1.0  0.41977  0.16128  0.31096  1.0000
  C   C2108     1.0  0.53579  0.29436  0.44239  1.0000
  H   H3684     1.0  0.55768  0.35972  0.34768  1.0000
  H   H3685     1.0  0.42808  0.34511  0.45834  1.0000
  H   H3686     1.0  0.52537  0.26687  0.37362  1.0000
  N   N116      1.0  0.56210  0.20080  0.27145  1.0000
  H   H3687     1.0  0.46497  0.18269  0.07410  1.0000
  H   H3688     1.0  0.50271  0.00625  0.10955  1.0000
  C   C2109     1.0  0.54096  0.44028  0.08666  1.0000
  C   C2110     1.0  0.53005  0.44701  0.07322  1.0000
  C   C2111     1.0  0.52418  0.43483  0.06594  1.0000
  C   C2112     1.0  0.52936  0.41586  0.07199  1.0000
  C   C2113     1.0  0.54040  0.40915  0.08530  1.0000
  C   C2114     1.0  0.54612  0.42131  0.09269  1.0000
  H   H3689     1.0  0.40038  0.20329  0.42527  1.0000
  H   H3690     1.0  0.51573  0.44011  0.05565  1.0000
  H   H3691     1.0  0.54452  0.39448  0.08992  1.0000
  H   H3692     1.0  0.55453  0.41603  0.10304  1.0000
  C   C2115     1.0  0.49917  0.06739  0.36522  1.0000
  C   C2116     1.0  0.50054  0.08298  0.35103  1.0000
  H   H3693     1.0  0.48588  0.06534  0.37342  1.0000
  H   H3694     1.0  0.48831  0.09317  0.34848  1.0000
  C   C2117     1.0  0.47131  0.02763  0.21211  1.0000
  H   H3695     1.0  0.53840  0.43733  0.02083  1.0000
  S   S497      1.0  0.56269  0.46330  0.25562  1.0000
  H   H3696     1.0  0.43539  0.19574  0.06797  1.0000
  C   C2118     1.0  0.54877  0.44027  0.00790  1.0000
  H   H3697     1.0  0.54048  0.14883  0.26825  1.0000
  C   C2119     1.0  0.51772  0.08505  0.33983  1.0000
  H   H3698     1.0  0.42323  0.18155  0.09516  1.0000
  C   C2120     1.0  0.56499  0.42336  0.00832  1.0000
  H   H3699     1.0  0.44319  0.46548  0.11548  1.0000
  H   H3700     1.0  0.52608  0.46168  0.06854  1.0000
  H   H3701     1.0  0.47761  0.28765  0.11801  1.0000
  H   H3702     1.0  0.46114  0.44901  0.07820  1.0000
  C   C2121     1.0  0.55837  0.40566  0.01011  1.0000
  H   H3703     1.0  0.45169  0.20967  0.05483  1.0000
  H   H3704     1.0  0.50758  0.33960  0.02664  1.0000
  C   C2122     1.0  0.49923  0.45994  0.26297  1.0000
  H   H3705     1.0  0.39251  0.05161  0.18994  1.0000
  H   H3706     1.0  0.40240  0.21561  0.39157  1.0000
  H   H3707     1.0  0.50470  0.98810  0.09768  1.0000
  H   H3708     1.0  0.43180  0.34279  0.05313  1.0000
  H   H3709     1.0  0.49130  0.18206  0.09889  1.0000
  H   H3710     1.0  0.56724  0.44162  0.19923  1.0000
  Fe  Fe254     1.0  0.54452  0.38882  0.42429  1.0000
  C   C2123     1.0  0.53723  0.47357  0.00367  1.0000
  C   C2124     1.0  0.58298  0.36713  0.16800  1.0000
  H   H3711     1.0  0.48789  0.02888  0.35205  1.0000
  H   H3712     1.0  0.57419  0.44848  0.02348  1.0000
  H   H3713     1.0  0.43110  0.32957  0.07635  1.0000
  H   H3714     1.0  0.49677  0.18698  0.03243  1.0000
  H   H3715     1.0  0.50489  0.34545  0.36892  1.0000
  C   C2125     1.0  0.46809  0.47140  0.08558  1.0000
  C   C2126     1.0  0.52534  0.26859  0.38761  1.0000
  H   H3716     1.0  0.52629  0.16961  0.04014  1.0000
  H   H3717     1.0  0.40981  0.22314  0.06687  1.0000
  H   H3718     1.0  0.51373  0.31781  0.05710  1.0000
  C   C2127     1.0  0.48360  0.98396  0.21849  1.0000
  H   H3719     1.0  0.40275  0.41283  0.04914  1.0000
  H   H3720     1.0  0.49199  0.27553  0.01327  1.0000
  H   H3721     1.0  0.47097  0.27730  0.10264  1.0000
  C   C2128     1.0  0.39886  0.45939  0.09280  1.0000
  H   H3722     1.0  0.38529  0.19489  0.41600  1.0000
  H   H3723     1.0  0.40098  0.98767  0.14045  1.0000
  H   H3724     1.0  0.48117  0.99875  0.37030  1.0000
  H   H3725     1.0  0.54665  0.07302  0.33394  1.0000
  C   C2129     1.0  0.43603  0.97746  0.07976  1.0000
  S   S498      1.0  0.54035  0.36080  0.44036  1.0000
  H   H3726     1.0  0.53690  0.99527  0.00274  1.0000
  H   H3727     1.0  0.56241  0.12185  0.07528  1.0000
  H   H3728     1.0  0.45284  0.30358  0.06501  1.0000
  H   H3729     1.0  0.45290  0.31531  0.04142  1.0000
  S   S499      1.0  0.43464  0.99963  0.15313  1.0000
  C   C2130     1.0  0.58240  0.19180  0.29661  1.0000
  C   C2131     1.0  0.49195  0.45711  0.28379  1.0000
  H   H3730     1.0  0.57363  0.27433  0.37888  1.0000
  Fe  Fe255     1.0  0.56981  0.41280  0.15189  1.0000
  C   C2132     1.0  0.44273  0.18680  0.10889  1.0000
  H   H3731     1.0  0.53518  0.99444  0.09739  1.0000
  H   H3732     1.0  0.55322  0.30314  0.09645  1.0000
  H   H3733     1.0  0.49522  0.43854  0.23449  1.0000
  H   H3734     1.0  0.50720  0.47109  0.25896  1.0000
  H   H3735     1.0  0.41781  0.46815  0.14215  1.0000
  S   S500      1.0  0.50358  0.19493  0.30741  1.0000
  H   H3736     1.0  0.51202  0.35798  0.05627  1.0000
  C   C2133     1.0  0.39733  0.05905  0.11906  1.0000
  C   C2134     1.0  0.39419  0.23943  0.40516  1.0000
  H   H3737     1.0  0.46586  0.30738  0.44801  1.0000
  H   H3738     1.0  0.55724  0.02805  0.02100  1.0000
  C   C2135     1.0  0.49969  0.98633  0.22615  1.0000
  S   S501      1.0  0.43366  0.42356  0.06293  1.0000
  H   H3739     1.0  0.54264  0.07455  0.38160  1.0000
  S   S502      1.0  0.49466  0.46363  0.99050  1.0000
  C   C2136     1.0  0.46967  0.18979  0.08248  1.0000
  H   H3740     1.0  0.56702  0.34580  0.17702  1.0000
  Fe  Fe256     1.0  0.40725  0.28987  0.98807  1.0000
  S   S503      1.0  0.41660  0.28731  0.01428  1.0000
  H   H3741     1.0  0.38566  0.10090  0.13143  1.0000
  H   H3742     1.0  0.51946  0.43255  0.12403  1.0000
  H   H3743     1.0  0.56215  0.04540  0.39039  1.0000
  C   C2137     1.0  0.38653  0.17610  0.32223  1.0000
  H   H3744     1.0  0.50440  0.98755  0.36175  1.0000
  H   H3745     1.0  0.40409  0.41375  0.00845  1.0000
  C   C2138     1.0  0.43123  0.98611  0.20415  1.0000
  N   N117      1.0  0.50266  0.14617  0.19319  1.0000
  C   C2139     1.0  0.49975  0.12827  0.19055  1.0000
  C   C2140     1.0  0.48512  0.16070  0.19252  1.0000
  C   C2141     1.0  0.51750  0.15255  0.17731  1.0000
  C   C2142     1.0  0.50919  0.14389  0.21081  1.0000
  C   C2143     1.0  0.49652  0.13637  0.22891  1.0000
  C   C2144     1.0  0.51682  0.11227  0.18988  1.0000
  C   C2145     1.0  0.52102  0.17202  0.17589  1.0000
  C   C2146     1.0  0.46651  0.15412  0.20003  1.0000
  C   C2147     1.0  0.45015  0.17029  0.20133  1.0000
  C   C2148     1.0  0.50589  0.13264  0.24530  1.0000
  C   C2149     1.0  0.51164  0.09473  0.18844  1.0000
  C   C2150     1.0  0.53533  0.17727  0.15861  1.0000
  H   H3746     1.0  0.40599  0.28060  0.38155  1.0000
  H   H3747     1.0  0.48870  0.12295  0.20156  1.0000
  H   H3748     1.0  0.48502  0.17162  0.19981  1.0000
  H   H3749     1.0  0.48451  0.16785  0.17805  1.0000
  H   H3750     1.0  0.51419  0.15231  0.16401  1.0000
  H   H3751     1.0  0.53105  0.14302  0.17797  1.0000
  H   H3752     1.0  0.52323  0.13508  0.21018  1.0000
  H   H3753     1.0  0.51080  0.15735  0.21250  1.0000
  H   H3754     1.0  0.49292  0.12335  0.22853  1.0000
  H   H3755     1.0  0.48369  0.14679  0.23162  1.0000
  H   H3756     1.0  0.52773  0.11559  0.17765  1.0000
  H   H3757     1.0  0.52257  0.10917  0.20250  1.0000
  H   H3758     1.0  0.52644  0.17252  0.18786  1.0000
  H   H3759     1.0  0.50827  0.18274  0.17514  1.0000
  H   H3760     1.0  0.46447  0.14609  0.19076  1.0000
  H   H3761     1.0  0.46611  0.14516  0.21374  1.0000
  H   H3762     1.0  0.44982  0.17949  0.18762  1.0000
  H   H3763     1.0  0.43709  0.16503  0.20612  1.0000
  C   C2151     1.0  0.51657  0.01876  0.33915  1.0000
  H   H3764     1.0  0.51880  0.12208  0.24362  1.0000
  H   H3765     1.0  0.50910  0.14548  0.24683  1.0000
  H   H3766     1.0  0.49649  0.12749  0.25816  1.0000
  H   H3767     1.0  0.50111  0.09029  0.20066  1.0000
  H   H3768     1.0  0.50610  0.09700  0.17577  1.0000
  C   C2152     1.0  0.54582  0.10788  0.35746  1.0000
  H   H3769     1.0  0.54861  0.16720  0.15860  1.0000
  H   H3770     1.0  0.53019  0.17791  0.14609  1.0000
  S   S504      1.0  0.55527  0.28984  0.34813  1.0000
  H   H3771     1.0  0.57379  0.18306  0.30745  1.0000
  H   H3772     1.0  0.40787  0.29459  0.41230  1.0000
  C   C2153     1.0  0.56063  0.45808  0.02316  1.0000
  H   H3773     1.0  0.51819  0.36530  0.03168  1.0000
  H   H3774     1.0  0.57049  0.43461  0.29239  1.0000
  H   H3775     1.0  0.44662  0.24075  0.13465  1.0000
  H   H3776     1.0  0.51973  0.06860  0.30020  1.0000
  H   H3777     1.0  0.55387  0.43507  0.38125  1.0000
  H   H3778     1.0  0.58223  0.44562  0.34603  1.0000
  C   C2154     1.0  0.56585  0.46062  0.97086  1.0000
  H   H3779     1.0  0.48710  0.97499  0.18531  1.0000
  H   H3780     1.0  0.56053  0.17081  0.01344  1.0000
  S   S505      1.0  0.43106  0.26871  0.97760  1.0000
  C   C2155     1.0  0.52222  0.31103  0.43445  1.0000
  H   H3781     1.0  0.51333  0.32518  0.39726  1.0000
  H   H3782     1.0  0.48337  0.06460  0.43780  1.0000
  H   H3783     1.0  0.48615  0.13733  0.37974  1.0000
  H   H3784     1.0  0.44112  0.23558  0.10623  1.0000
  H   H3785     1.0  0.49406  0.33513  0.41259  1.0000
  H   H3786     1.0  0.41100  0.10417  0.40750  1.0000
  N   N118      1.0  0.56843  0.08389  0.37623  1.0000
  H   H3787     1.0  0.47640  0.29926  0.40910  1.0000
  H   H3788     1.0  0.49519  0.27521  0.10251  1.0000
  C   C2156     1.0  0.57600  0.31317  0.14218  1.0000
  C   C2157     1.0  0.44132  0.21418  0.08311  1.0000
  S   S506      1.0  0.57655  0.46216  0.12839  1.0000
  C   C2158     1.0  0.56812  0.29883  0.21823  1.0000
  H   H3789     1.0  0.57297  0.28628  0.08898  1.0000
  H   H3790     1.0  0.51465  0.44909  0.23033  1.0000
  C   C2159     1.0  0.49530  0.28862  0.01401  1.0000
  H   H3791     1.0  0.38934  0.02441  0.11458  1.0000
  C   C2160     1.0  0.58490  0.29398  0.22726  1.0000
  C   C2161     1.0  0.40831  0.44331  0.08640  1.0000
  H   H3792     1.0  0.41799  0.09709  0.42940  1.0000
  H   H3793     1.0  0.48236  0.05237  0.19852  1.0000
  H   H3794     1.0  0.52784  0.29427  0.40693  1.0000
  S   S507      1.0  0.57278  0.24637  0.32522  1.0000
  H   H3795     1.0  0.55852  0.21301  0.29512  1.0000
  H   H3796     1.0  0.51404  0.46149  0.02145  1.0000
  H   H3797     1.0  0.50917  0.05664  0.28933  1.0000
  H   H3798     1.0  0.52407  0.08352  0.18777  1.0000
  C   C2162     1.0  0.40604  0.40678  0.02260  1.0000
  H   H3799     1.0  0.39876  0.15775  0.38190  1.0000
  H   H3800     1.0  0.47198  0.33134  0.39641  1.0000
  H   H3801     1.0  0.52051  0.25679  0.39782  1.0000
  H   H3802     1.0  0.47992  0.37354  0.41828  1.0000
  H   H3803     1.0  0.42741  0.21821  0.09169  1.0000
  C   C2163     1.0  0.46455  0.31092  0.43334  1.0000
  H   H3804     1.0  0.48727  0.35843  0.38410  1.0000
  H   H3805     1.0  0.49972  0.17508  0.01406  1.0000
  H   H3806     1.0  0.50094  0.12785  0.39619  1.0000
  H   H3807     1.0  0.51468  0.27753  0.42006  1.0000
  H   H3808     1.0  0.42836  0.28006  0.41939  1.0000
  C   C2164     1.0  0.56061  0.42626  0.30178  1.0000
  H   H3809     1.0  0.57720  0.28802  0.40352  1.0000
  H   H3810     1.0  0.51867  0.97693  0.43912  1.0000
  C   C2165     1.0  0.57470  0.24396  0.11852  1.0000
  H   H3811     1.0  0.54735  0.05819  0.03139  1.0000
  H   H3812     1.0  0.57118  0.24125  0.10676  1.0000
  C   C2166     1.0  0.49262  0.12435  0.38804  1.0000
  C   C2167     1.0  0.51654  0.01998  0.30598  1.0000
  C   C2168     1.0  0.43953  0.35791  0.43085  1.0000
  C   C2169     1.0  0.43406  0.03161  0.16306  1.0000
  C   C2170     1.0  0.45935  0.99975  0.20074  1.0000
  H   H3813     1.0  0.52419  0.02515  0.29194  1.0000
  H   H3814     1.0  0.44563  0.16634  0.09186  1.0000
  C   C2171     1.0  0.52194  0.99860  0.31007  1.0000
  H   H3815     1.0  0.43391  0.45481  0.10280  1.0000
  H   H3816     1.0  0.42888  0.14900  0.30601  1.0000
  C   C2172     1.0  0.50102  0.45088  0.22659  1.0000
  H   H3817     1.0  0.51692  0.29786  0.37974  1.0000
  C   C2173     1.0  0.49033  0.98864  0.18429  1.0000
  C   C2174     1.0  0.51403  0.29067  0.40967  1.0000
  N   N119      1.0  0.45097  0.09910  0.40102  1.0000
  C   C2175     1.0  0.45629  0.08465  0.41727  1.0000
  C   C2176     1.0  0.43572  0.11399  0.40807  1.0000
  C   C2177     1.0  0.44476  0.09010  0.38886  1.0000
  C   C2178     1.0  0.46709  0.10778  0.38989  1.0000
  C   C2179     1.0  0.47772  0.11447  0.40094  1.0000
  C   C2180     1.0  0.47291  0.06889  0.41270  1.0000
  C   C2181     1.0  0.43747  0.10317  0.37207  1.0000
  H   H3818     1.0  0.43056  0.19454  0.11715  1.0000
  H   H3819     1.0  0.51823  0.47184  0.41658  1.0000
  H   H3820     1.0  0.41703  0.16547  0.12823  1.0000
  C   C2182     1.0  0.43138  0.09260  0.36093  1.0000
  Fe  Fe257     1.0  0.57490  0.22113  0.34778  1.0000
  H   H3821     1.0  0.45915  0.09110  0.42750  1.0000
  H   H3822     1.0  0.43987  0.11921  0.41841  1.0000
  H   H3823     1.0  0.55599  0.30639  0.22670  1.0000
  H   H3824     1.0  0.43409  0.08203  0.39702  1.0000
  H   H3825     1.0  0.45638  0.07984  0.38310  1.0000
  H   H3826     1.0  0.47724  0.09823  0.38169  1.0000
  H   H3827     1.0  0.46238  0.11995  0.37947  1.0000
  H   H3828     1.0  0.48468  0.10274  0.41025  1.0000
  H   H3829     1.0  0.46830  0.12421  0.40934  1.0000
  H   H3830     1.0  0.46912  0.06000  0.40540  1.0000
  H   H3831     1.0  0.48519  0.07416  0.40397  1.0000
  H   H3832     1.0  0.44845  0.11008  0.36265  1.0000
  H   H3833     1.0  0.51646  0.99158  0.15100  1.0000
  H   H3834     1.0  0.44317  0.08214  0.35566  1.0000
  H   H3835     1.0  0.47120  0.98517  0.22984  1.0000
  H   H3836     1.0  0.47515  0.45356  0.25780  1.0000
  C   C2183     1.0  0.38786  0.20731  0.41915  1.0000
  S   S508      1.0  0.48721  0.36146  0.45523  1.0000
  H   H3837     1.0  0.58405  0.39425  0.31697  1.0000
  C   C2184     1.0  0.46149  0.20961  0.10483  1.0000
  C   C2185     1.0  0.46875  0.36049  0.44579  1.0000
  H   H3838     1.0  0.56572  0.13455  0.98578  1.0000
  H   H3839     1.0  0.41998  0.08573  0.36950  1.0000
  C   C2186     1.0  0.49646  0.01604  0.34781  1.0000
  C   C2187     1.0  0.48400  0.17531  0.09247  1.0000
  C   C2188     1.0  0.51666  0.35314  0.04303  1.0000
  C   C2189     1.0  0.53341  0.07158  0.34287  1.0000
  C   C2190     1.0  0.58483  0.15170  0.00385  1.0000
  H   H3840     1.0  0.50611  0.17488  0.06826  1.0000
  C   C2191     1.0  0.42769  0.15903  0.11762  1.0000
  C   C2192     1.0  0.44482  0.01746  0.15414  1.0000
  H   H3841     1.0  0.44703  0.22701  0.07798  1.0000
  H   H3842     1.0  0.55940  0.09508  0.00191  1.0000
  S   S509      1.0  0.55512  0.00222  0.40810  1.0000
  C   C2193     1.0  0.49030  0.34705  0.37654  1.0000
  N   N120      1.0  0.55141  0.00161  0.05704  1.0000
  C   C2194     1.0  0.55605  0.99223  0.04084  1.0000
  C   C2195     1.0  0.55234  0.46958  0.19779  1.0000
  C   C2196     1.0  0.53316  0.99740  0.06862  1.0000
  C   C2197     1.0  0.54968  0.02224  0.05133  1.0000
  C   C2198     1.0  0.56213  0.02971  0.03285  1.0000
  C   C2199     1.0  0.54069  0.99663  0.02948  1.0000
  C   C2200     1.0  0.52685  0.00360  0.08741  1.0000
  H   H3843     1.0  0.55626  0.17500  0.25337  1.0000
  S   S510      1.0  0.56154  0.19647  0.35334  1.0000
  C   C2201     1.0  0.56172  0.05017  0.03065  1.0000
  Fe  Fe258     1.0  0.57857  0.99885  0.38394  1.0000
  C   C2202     1.0  0.50667  0.00237  0.09584  1.0000
  C   C2203     1.0  0.50533  0.04770  0.31955  1.0000
  H   H3844     1.0  0.58255  0.45272  0.99183  1.0000
  H   H3845     1.0  0.56237  0.99924  0.08123  1.0000
  C   C2204     1.0  0.48978  0.29121  0.03393  1.0000
  C   C2205     1.0  0.56637  0.44053  0.37338  1.0000
  H   H3846     1.0  0.52181  0.00389  0.06093  1.0000
  H   H3847     1.0  0.53525  0.02909  0.04997  1.0000
  H   H3848     1.0  0.55233  0.02773  0.06238  1.0000
  H   H3849     1.0  0.42090  0.40042  0.02191  1.0000
  C   C2206     1.0  0.54808  0.15378  0.27604  1.0000
  C   C2207     1.0  0.54199  0.43399  0.29597  1.0000
  H   H3850     1.0  0.53431  0.01147  0.02721  1.0000
  H   H3851     1.0  0.52828  0.01797  0.08594  1.0000
  C   C2208     1.0  0.57239  0.32263  0.10930  1.0000
  H   H3852     1.0  0.45111  0.17831  0.11911  1.0000
  Fe  Fe259     1.0  0.53701  0.01084  0.38708  1.0000
  H   H3853     1.0  0.39645  0.15709  0.30314  1.0000
  Fe  Fe260     1.0  0.55807  0.98048  0.36636  1.0000
  H   H3854     1.0  0.48211  0.28483  0.42957  1.0000
  C   C2209     1.0  0.45233  0.98266  0.20007  1.0000
  H   H3855     1.0  0.57698  0.21685  0.24754  1.0000
  H   H3856     1.0  0.54436  0.37128  0.14460  1.0000
  H   H3857     1.0  0.55904  0.38840  0.35553  1.0000
  H   H3858     1.0  0.42139  0.15030  0.11237  1.0000
  H   H3859     1.0  0.55175  0.39243  0.33399  1.0000
  H   H3860     1.0  0.53150  0.42596  0.30460  1.0000
  H   H3861     1.0  0.51978  0.43210  0.97701  1.0000
  H   H3862     1.0  0.44326  0.31197  0.41848  1.0000
  H   H3863     1.0  0.50569  0.05409  0.33098  1.0000
  H   H3864     1.0  0.54534  0.16757  0.35096  1.0000
  H   H3865     1.0  0.39724  0.11473  0.26463  1.0000
  S   S511      1.0  0.42260  0.35498  0.42052  1.0000
  H   H3866     1.0  0.53972  0.26839  0.38834  1.0000
  H   H3867     1.0  0.55548  0.15602  0.04336  1.0000
  H   H3868     1.0  0.52874  0.31704  0.42035  1.0000
  C   C2210     1.0  0.56357  0.15794  0.00804  1.0000
  H   H3869     1.0  0.53365  0.10173  0.36494  1.0000
  H   H3870     1.0  0.52256  0.16658  0.33318  1.0000
  H   H3871     1.0  0.55102  0.11563  0.02565  1.0000
  H   H3872     1.0  0.55123  0.45235  0.03579  1.0000
  H   H3873     1.0  0.57153  0.17150  0.28089  1.0000
  C   C2211     1.0  0.53827  0.03450  0.31436  1.0000
  H   H3874     1.0  0.50025  0.00456  0.37587  1.0000
  C   C2212     1.0  0.52054  0.47332  0.02013  1.0000
  H   H3875     1.0  0.39371  0.05136  0.15688  1.0000
  Fe  Fe261     1.0  0.39682  0.34533  0.43781  1.0000
  C   C2213     1.0  0.50752  0.06255  0.30161  1.0000
  H   H3876     1.0  0.50198  0.11550  0.37864  1.0000
  N   N121      1.0  0.51931  0.02978  0.31967  1.0000
  H   H3877     1.0  0.52453  0.47223  0.03335  1.0000
  C   C2214     1.0  0.51496  0.05415  0.36860  1.0000
  H   H3878     1.0  0.54535  0.08377  0.39940  1.0000
  H   H3879     1.0  0.46990  0.05231  0.22184  1.0000
  H   H3880     1.0  0.55340  0.11071  0.38164  1.0000
  C   C2215     1.0  0.55819  0.29946  0.36552  1.0000
  C   C2216     1.0  0.57009  0.29651  0.39288  1.0000
  H   H3881     1.0  0.50178  0.02330  0.30473  1.0000
  C   C2217     1.0  0.56214  0.45301  0.20630  1.0000
  H   H3882     1.0  0.53073  0.15279  0.00630  1.0000
  H   H3883     1.0  0.55354  0.35839  0.10786  1.0000
  H   H3884     1.0  0.47189  0.21718  0.09508  1.0000
  H   H3885     1.0  0.49474  0.13068  0.17751  1.0000
  H   H3886     1.0  0.49853  0.28555  0.39101  1.0000
  N   N122      1.0  0.46130  0.44093  0.10726  1.0000
  C   C2218     1.0  0.46888  0.45053  0.08809  1.0000
  C   C2219     1.0  0.45900  0.42217  0.10640  1.0000
  C   C2220     1.0  0.44225  0.45184  0.11357  1.0000
  C   C2221     1.0  0.47308  0.43950  0.12097  1.0000
  C   C2222     1.0  0.49424  0.43779  0.11367  1.0000
  H   H3887     1.0  0.56063  0.46909  0.05529  1.0000
  C   C2223     1.0  0.47656  0.40898  0.09866  1.0000
  C   C2224     1.0  0.47180  0.39132  0.09701  1.0000
  C   C2225     1.0  0.50448  0.43302  0.12956  1.0000
  C   C2226     1.0  0.56697  0.10549  0.99230  1.0000
  C   C2227     1.0  0.41364  0.45671  0.13876  1.0000
  H   H3888     1.0  0.48338  0.44398  0.08308  1.0000
  H   H3889     1.0  0.45354  0.41462  0.12034  1.0000
  H   H3890     1.0  0.44851  0.42372  0.09795  1.0000
  H   H3891     1.0  0.57530  0.03456  0.29742  1.0000
  C   C2228     1.0  0.56843  0.30056  0.09141  1.0000
  H   H3892     1.0  0.47085  0.42767  0.13260  1.0000
  H   H3893     1.0  0.49736  0.45103  0.10499  1.0000
  H   H3894     1.0  0.50015  0.42719  0.10520  1.0000
  H   H3895     1.0  0.54075  0.15206  0.29069  1.0000
  H   H3896     1.0  0.40324  0.12719  0.24149  1.0000
  H   H3897     1.0  0.48345  0.41521  0.08476  1.0000
  H   H3898     1.0  0.48639  0.40487  0.10812  1.0000
  H   H3899     1.0  0.48454  0.38230  0.09100  1.0000
  H   H3900     1.0  0.46585  0.38380  0.11075  1.0000
  H   H3901     1.0  0.46172  0.39449  0.08785  1.0000
  H   H3902     1.0  0.52962  0.98883  0.03700  1.0000
  H   H3903     1.0  0.49939  0.44360  0.13824  1.0000
  H   H3904     1.0  0.50273  0.41934  0.13818  1.0000
  H   H3905     1.0  0.49106  0.04517  0.32219  1.0000
  C   C2229     1.0  0.53892  0.12851  0.35151  1.0000
  H   H3906     1.0  0.57287  0.43833  0.23063  1.0000
  H   H3907     1.0  0.58192  0.42384  0.44502  1.0000
  H   H3908     1.0  0.54304  0.34679  0.13000  1.0000
  H   H3909     1.0  0.55777  0.44971  0.34743  1.0000
  N   N123      1.0  0.48822  0.46815  0.23181  1.0000
  H   H3910     1.0  0.54290  0.32634  0.35566  1.0000
  H   H3911     1.0  0.38696  0.45898  0.10399  1.0000
  C   C2230     1.0  0.55544  0.31248  0.15031  1.0000
  C   C2231     1.0  0.54332  0.13200  0.05645  1.0000
  C   C2232     1.0  0.55866  0.05519  0.39981  1.0000
  H   H3912     1.0  0.43558  0.98477  0.06535  1.0000
  C   C2233     1.0  0.55343  0.29712  0.16738  1.0000
  H   H3913     1.0  0.57028  0.39388  0.01018  1.0000
  N   N124      1.0  0.47968  0.99687  0.20078  1.0000
  C   C2234     1.0  0.40030  0.42056  0.03536  1.0000
  H   H3914     1.0  0.55709  0.32559  0.11249  1.0000
  H   H3915     1.0  0.39799  0.45384  0.04313  1.0000
  C   C2235     1.0  0.45397  0.35266  0.45710  1.0000
  H   H3916     1.0  0.54341  0.43321  0.28138  1.0000
  S   S512      1.0  0.51513  0.39867  0.42025  1.0000
  H   H3917     1.0  0.46758  0.31081  0.09156  1.0000
  H   H3918     1.0  0.54698  0.03568  0.42293  1.0000
  H   H3919     1.0  0.54861  0.30983  0.14034  1.0000
  H   H3920     1.0  0.54808  0.32559  0.15465  1.0000
  C   C2236     1.0  0.55498  0.01829  0.31415  1.0000
  C   C2237     1.0  0.52041  0.97999  0.16224  1.0000
  H   H3921     1.0  0.53249  0.43177  0.20590  1.0000
  C   C2238     1.0  0.42336  0.22358  0.05727  1.0000
  H   H3922     1.0  0.46868  0.45179  0.12747  1.0000
  H   H3923     1.0  0.55971  0.99795  0.00276  1.0000
  H   H3924     1.0  0.53857  0.29703  0.17319  1.0000
  H   H3925     1.0  0.56019  0.28352  0.16375  1.0000
  H   H3926     1.0  0.55975  0.29921  0.17809  1.0000
  H   H3927     1.0  0.57435  0.36724  0.45531  1.0000
  H   H3928     1.0  0.39899  0.14633  0.32652  1.0000
  H   H3929     1.0  0.56460  0.07118  0.35562  1.0000
  H   H3930     1.0  0.42621  0.23766  0.05434  1.0000
  H   H3931     1.0  0.54110  0.22538  0.32899  1.0000
  N   N125      1.0  0.55394  0.45849  0.00608  1.0000
  H   H3932     1.0  0.53941  0.04302  0.32370  1.0000
  H   H3933     1.0  0.42637  0.10232  0.34895  1.0000
  H   H3934     1.0  0.43891  0.43752  0.14273  1.0000
  H   H3935     1.0  0.56468  0.28599  0.21702  1.0000
  H   H3936     1.0  0.55171  0.10232  0.34470  1.0000
  S   S513      1.0  0.57203  0.23690  0.36979  1.0000
  H   H3937     1.0  0.39793  0.39570  0.02786  1.0000
  H   H3938     1.0  0.50138  0.29374  0.44592  1.0000
  H   H3939     1.0  0.58115  0.28544  0.24107  1.0000
  C   C2239     1.0  0.54371  0.21339  0.26937  1.0000
  H   H3940     1.0  0.45786  0.03360  0.20773  1.0000
  C   C2240     1.0  0.57588  0.07528  0.35941  1.0000
  C   C2241     1.0  0.54346  0.23436  0.26448  1.0000
  H   H3941     1.0  0.57047  0.05347  0.40645  1.0000
  H   H3942     1.0  0.52874  0.13937  0.05744  1.0000
  H   H3943     1.0  0.43913  0.15002  0.12417  1.0000
  C   C2242     1.0  0.52386  0.24536  0.26387  1.0000
  H   H3944     1.0  0.54977  0.18090  0.29322  1.0000
  H   H3945     1.0  0.42543  0.11381  0.37642  1.0000
  C   C2243     1.0  0.54666  0.37374  0.12936  1.0000
  H   H3946     1.0  0.38607  0.01349  0.15675  1.0000
  H   H3947     1.0  0.53328  0.21073  0.28227  1.0000
  H   H3948     1.0  0.53830  0.21048  0.25841  1.0000
  H   H3949     1.0  0.46853  0.01942  0.22630  1.0000
  C   C2244     1.0  0.49080  0.07844  0.30184  1.0000
  H   H3950     1.0  0.53436  0.18162  0.26834  1.0000
  C   C2245     1.0  0.39128  0.20283  0.36054  1.0000
  H   H3951     1.0  0.55219  0.23826  0.25073  1.0000
  H   H3952     1.0  0.54840  0.23876  0.27481  1.0000
  H   H3953     1.0  0.49279  0.31767  0.44146  1.0000
  C   C2246     1.0  0.39462  0.11738  0.25048  1.0000
  C   C2247     1.0  0.54885  0.17399  0.26791  1.0000
  H   H3954     1.0  0.52067  0.02549  0.34838  1.0000
  C   C2248     1.0  0.56791  0.28872  0.37902  1.0000
  H   H3955     1.0  0.53357  0.98236  0.07154  1.0000
  H   H3956     1.0  0.42169  0.17358  0.29990  1.0000
  C   C2249     1.0  0.43323  0.32871  0.06168  1.0000
  H   H3957     1.0  0.51837  0.24199  0.25326  1.0000
  H   H3958     1.0  0.51455  0.24232  0.27749  1.0000
  H   H3959     1.0  0.52398  0.26030  0.26037  1.0000
  H   H3960     1.0  0.53062  0.04995  0.40927  1.0000
  H   H3961     1.0  0.54420  0.11789  0.05466  1.0000
  C   C2250     1.0  0.56035  0.10394  0.36974  1.0000
  H   H3962     1.0  0.49643  0.16282  0.03779  1.0000
  C   C2251     1.0  0.45426  0.36582  0.41962  1.0000
  C   C2252     1.0  0.52647  0.17940  0.33235  1.0000
  C   C2253     1.0  0.54807  0.99113  0.01074  1.0000
  H   H3963     1.0  0.54775  0.14415  0.07750  1.0000
  H   H3964     1.0  0.53830  0.05921  0.42498  1.0000
  H   H3965     1.0  0.38919  0.12053  0.43037  1.0000
  C   C2254     1.0  0.51261  0.28671  0.39126  1.0000
  C   C2255     1.0  0.55835  0.12466  0.99640  1.0000
  C   C2256     1.0  0.47969  0.04364  0.21249  1.0000
  H   H3966     1.0  0.42258  0.22051  0.04410  1.0000
  H   H3967     1.0  0.48598  0.99750  0.17157  1.0000
  H   H3968     1.0  0.39227  0.17978  0.33257  1.0000
  C   C2257     1.0  0.43928  0.35148  0.44969  1.0000
  H   H3969     1.0  0.45574  0.01066  0.18883  1.0000
  C   C2258     1.0  0.53941  0.17998  0.34231  1.0000
  C   C2259     1.0  0.54261  0.04976  0.41514  1.0000
  H   H3970     1.0  0.48884  0.08491  0.31384  1.0000
  H   H3971     1.0  0.51211  0.99264  0.32208  1.0000
  H   H3972     1.0  0.48905  0.32046  0.02467  1.0000
  C   C2260     1.0  0.43065  0.44288  0.13180  1.0000
  C   C2261     1.0  0.48406  0.01558  0.19849  1.0000
  H   H3973     1.0  0.48314  0.02368  0.18436  1.0000
  H   H3974     1.0  0.53791  0.19103  0.15807  1.0000
  H   H3975     1.0  0.57633  0.33217  0.09602  1.0000
  C   C2262     1.0  0.48687  0.32914  0.38985  1.0000
  H   H3976     1.0  0.38746  0.27961  0.40098  1.0000
  H   H3977     1.0  0.39116  0.40276  0.44846  1.0000
  H   H3978     1.0  0.49589  0.99928  0.23140  1.0000
  H   H3979     1.0  0.49309  0.08906  0.28910  1.0000
  Fe  Fe262     1.0  0.51180  0.36975  0.43404  1.0000
  C   C2263     1.0  0.49876  0.16505  0.07904  1.0000
  H   H3980     1.0  0.47807  0.07359  0.30243  1.0000
  C   C2264     1.0  0.42957  0.46022  0.06364  1.0000
  N   N126      1.0  0.55300  0.14413  0.02127  1.0000
  H   H3981     1.0  0.48115  0.35084  0.36641  1.0000
  C   C2265     1.0  0.54488  0.19650  0.34102  1.0000
  C   C2266     1.0  0.51165  0.98508  0.18103  1.0000
  H   H3982     1.0  0.49281  0.03850  0.21758  1.0000
  H   H3983     1.0  0.57149  0.42151  0.02026  1.0000
  H   H3984     1.0  0.51349  0.41989  0.21070  1.0000
  S   S514      1.0  0.56064  0.00960  0.36300  1.0000
  H   H3985     1.0  0.57342  0.10688  0.39923  1.0000
  N   N127      1.0  0.49906  0.30536  0.41745  1.0000
  H   H3986     1.0  0.57357  0.34737  0.14040  1.0000
  C   C2267     1.0  0.56987  0.20681  0.28484  1.0000
  S   S515      1.0  0.51274  0.03495  0.38666  1.0000
  C   C2268     1.0  0.43501  0.17369  0.10174  1.0000
  H   H3987     1.0  0.57191  0.31017  0.07814  1.0000
  C   C2269     1.0  0.43874  0.20947  0.06545  1.0000
  H   H3988     1.0  0.49007  0.01271  0.33787  1.0000
  H   H3989     1.0  0.49134  0.30939  0.09244  1.0000
  N   N128      1.0  0.45360  0.19981  0.09467  1.0000
  C   C2270     1.0  0.53710  0.21255  0.32994  1.0000
  C   C2271     1.0  0.56526  0.45116  0.22408  1.0000
  C   C2272     1.0  0.56370  0.38706  0.34094  1.0000
  H   H3990     1.0  0.50370  0.45312  0.29101  1.0000
  N   N129      1.0  0.39565  0.25530  0.38890  1.0000
  H   H3991     1.0  0.53901  0.28328  0.43448  1.0000
  H   H3992     1.0  0.56306  0.30153  0.29648  1.0000
  H   H3993     1.0  0.40605  0.26114  0.42194  1.0000
  C   C2273     1.0  0.40937  0.24954  0.37237  1.0000
  C   C2274     1.0  0.42938  0.24103  0.37504  1.0000
  C   C2275     1.0  0.56963  0.36650  0.34091  1.0000
  H   H3994     1.0  0.56811  0.20005  0.24240  1.0000
  C   C2276     1.0  0.41347  0.26649  0.40787  1.0000
  C   C2277     1.0  0.41990  0.28358  0.40868  1.0000
  C   C2278     1.0  0.44079  0.23233  0.35877  1.0000
  S   S516      1.0  0.56194  0.40588  0.43021  1.0000
  H   H3995     1.0  0.56894  0.99533  0.03132  1.0000
  H   H3996     1.0  0.58477  0.01299  0.31097  1.0000
  H   H3997     1.0  0.40692  0.23496  0.41090  1.0000
  H   H3998     1.0  0.49368  0.47209  0.06505  1.0000
  H   H3999     1.0  0.55385  0.00840  0.32737  1.0000
  H   H4000     1.0  0.42231  0.32230  0.06012  1.0000
  C   C2279     1.0  0.58069  0.34886  0.17400  1.0000
  H   H4001     1.0  0.40434  0.23977  0.36712  1.0000
  H   H4002     1.0  0.41050  0.26148  0.36073  1.0000
  H   H4003     1.0  0.42988  0.23015  0.38763  1.0000
  H   H4004     1.0  0.43620  0.25195  0.37577  1.0000
  C   C2280     1.0  0.55335  0.35547  0.12287  1.0000
  H   H4005     1.0  0.53187  0.99541  0.28152  1.0000
  H   H4006     1.0  0.49034  0.04530  0.42646  1.0000
  C   C2281     1.0  0.55923  0.42759  0.32191  1.0000
  H   H4007     1.0  0.55897  0.16218  0.99463  1.0000
  H   H4008     1.0  0.42588  0.25598  0.40433  1.0000
  H   H4009     1.0  0.53337  0.38095  0.12514  1.0000
  H   H4010     1.0  0.48383  0.44603  0.28855  1.0000
  H   H4011     1.0  0.42842  0.28885  0.39522  1.0000
  H   H4012     1.0  0.43516  0.22060  0.35793  1.0000
  H   H4013     1.0  0.44082  0.24259  0.34563  1.0000
  H   H4014     1.0  0.45530  0.22705  0.36059  1.0000
  H   H4015     1.0  0.40375  0.43051  0.09287  1.0000
  H   H4016     1.0  0.52950  0.18085  0.01639  1.0000
  H   H4017     1.0  0.52172  0.43153  0.18764  1.0000
  C   C2282     1.0  0.40268  0.12470  0.42398  1.0000
  H   H4018     1.0  0.56496  0.41188  0.29979  1.0000
  H   H4019     1.0  0.51035  0.28799  0.00879  1.0000
  H   H4020     1.0  0.47494  0.29095  0.03864  1.0000
  C   C2283     1.0  0.42338  0.44375  0.07152  1.0000
  C   C2284     1.0  0.50291  0.17378  0.02776  1.0000
  H   H4021     1.0  0.57109  0.30737  0.20422  1.0000
  H   H4022     1.0  0.58376  0.29897  0.14113  1.0000
  C   C2285     1.0  0.57304  0.34607  0.12640  1.0000
  H   H4023     1.0  0.54440  0.04645  0.36004  1.0000
  H   H4024     1.0  0.57573  0.42481  0.99555  1.0000
  H   H4025     1.0  0.57675  0.24998  0.25834  1.0000
  H   H4026     1.0  0.43336  0.12617  0.39681  1.0000
  H   H4027     1.0  0.53840  0.12360  0.08624  1.0000
  H   H4028     1.0  0.57843  0.43213  0.37929  1.0000
  H   H4029     1.0  0.49764  0.27920  0.04225  1.0000
  C   C2286     1.0  0.50313  0.30654  0.43543  1.0000
  H   H4030     1.0  0.54824  0.40298  0.02324  1.0000
  C   C2287     1.0  0.55311  0.07509  0.38917  1.0000
  C   C2288     1.0  0.48078  0.29933  0.42180  1.0000
  H   H4031     1.0  0.55777  0.41637  0.35755  1.0000
  H   H4032     1.0  0.47735  0.16494  0.10321  1.0000
  C   C2289     1.0  0.55632  0.14231  0.04036  1.0000
  C   C2290     1.0  0.40028  0.27116  0.39414  1.0000
  H   H4033     1.0  0.45080  0.00483  0.21323  1.0000
  C   C2291     1.0  0.49562  0.00074  0.36496  1.0000
  C   C2292     1.0  0.53211  0.05636  0.35743  1.0000
  H   H4034     1.0  0.52882  0.13084  0.34255  1.0000
  C   C2293     1.0  0.57471  0.20252  0.25271  1.0000
  C   C2294     1.0  0.51883  0.19540  0.32111  1.0000
  C   C2295     1.0  0.45688  0.23069  0.12715  1.0000
  H   H4035     1.0  0.54051  0.04296  0.30021  1.0000
  H   H4036     1.0  0.46909  0.19957  0.11489  1.0000
  H   H4037     1.0  0.57158  0.11148  0.36184  1.0000
  H   H4038     1.0  0.50967  0.45788  0.32284  1.0000
  C   C2296     1.0  0.57819  0.30276  0.10566  1.0000
  H   H4039     1.0  0.49247  0.15734  0.07259  1.0000
  H   H4040     1.0  0.57069  0.13490  0.04129  1.0000
  H   H4041     1.0  0.56765  0.05245  0.04155  1.0000
  C   C2297     1.0  0.54834  0.13035  0.07495  1.0000
  H   H4042     1.0  0.58171  0.10164  0.99353  1.0000
  H   H4043     1.0  0.51814  0.22445  0.31145  1.0000
  H   H4044     1.0  0.47726  0.19990  0.07226  1.0000
  S   S517      1.0  0.56355  0.38476  0.16536  1.0000
  H   H4045     1.0  0.42559  0.43139  0.12955  1.0000
  H   H4046     1.0  0.45100  0.17822  0.21130  1.0000
  H   H4047     1.0  0.55054  0.13533  0.34351  1.0000
  C   C2298     1.0  0.51698  0.46077  0.34719  1.0000
  N   N130      1.0  0.48711  0.31503  0.05421  1.0000
  C   C2299     1.0  0.48803  0.29837  0.06972  1.0000
  C   C2300     1.0  0.49419  0.30929  0.03574  1.0000
  C   C2301     1.0  0.49980  0.32651  0.05603  1.0000
  C   C2302     1.0  0.46790  0.32673  0.05526  1.0000
  C   C2303     1.0  0.45221  0.31712  0.05553  1.0000
  C   C2304     1.0  0.48170  0.30228  0.08953  1.0000
  H   H4048     1.0  0.39273  0.06873  0.09095  1.0000
  H   H4049     1.0  0.53587  0.99347  0.31331  1.0000
  H   H4050     1.0  0.53004  0.28897  0.45704  1.0000
  H   H4051     1.0  0.54673  0.42263  0.33040  1.0000
  C   C2305     1.0  0.48138  0.28449  0.10400  1.0000
  N   N131      1.0  0.58013  0.32629  0.12407  1.0000
  H   H4052     1.0  0.50243  0.29017  0.06844  1.0000
  H   H4053     1.0  0.47972  0.28878  0.06885  1.0000
  S   S518      1.0  0.53300  0.98223  0.38906  1.0000
  H   H4054     1.0  0.55691  0.38279  0.12328  1.0000
  H   H4055     1.0  0.56976  0.16997  0.08148  1.0000
  H   H4056     1.0  0.49457  0.33206  0.06887  1.0000
  H   H4057     1.0  0.46403  0.33346  0.06736  1.0000
  H   H4058     1.0  0.46754  0.33836  0.04320  1.0000
  H   H4059     1.0  0.40293  0.02548  0.14210  1.0000
  C   C2306     1.0  0.57690  0.29555  0.28908  1.0000
  H   H4060     1.0  0.38733  0.02432  0.18050  1.0000
  C   C2307     1.0  0.56923  0.46206  0.98957  1.0000
  H   H4061     1.0  0.39890  0.10416  0.24562  1.0000
  C   C2308     1.0  0.57838  0.09181  0.40288  1.0000
  H   H4062     1.0  0.45717  0.97935  0.18611  1.0000
  C   C2309     1.0  0.47110  0.47160  0.22383  1.0000
  C   C2310     1.0  0.39973  0.15898  0.31579  1.0000
  H   H4063     1.0  0.53475  0.39811  0.46396  1.0000
  H   H4064     1.0  0.40302  0.06413  0.12839  1.0000
  H   H4065     1.0  0.58177  0.41107  0.35782  1.0000
  H   H4066     1.0  0.55622  0.44252  0.32199  1.0000
  H   H4067     1.0  0.39213  0.37950  0.38394  1.0000
  H   H4068     1.0  0.58222  0.35516  0.11679  1.0000
  H   H4069     1.0  0.51177  0.46142  0.19706  1.0000
  H   H4070     1.0  0.40737  0.12922  0.43443  1.0000
  C   C2311     1.0  0.56954  0.44015  0.35294  1.0000
  C   C2312     1.0  0.58066  0.30638  0.26928  1.0000
  H   H4071     1.0  0.57441  0.29267  0.11842  1.0000
  C   C2313     1.0  0.38773  0.18648  0.37254  1.0000
  H   H4072     1.0  0.57280  0.03197  0.32204  1.0000
  H   H4073     1.0  0.58383  0.04323  0.34434  1.0000
  H   H4074     1.0  0.42415  0.98429  0.08907  1.0000
  H   H4075     1.0  0.40062  0.13644  0.41228  1.0000
  H   H4076     1.0  0.56443  0.45489  0.37510  1.0000
  H   H4077     1.0  0.50755  0.99496  0.29035  1.0000
  C   C2314     1.0  0.57304  0.02495  0.31092  1.0000
  H   H4078     1.0  0.39985  0.99056  0.11668  1.0000
  N   N132      1.0  0.57571  0.41775  0.33045  1.0000
  H   H4079     1.0  0.57382  0.11944  0.01813  1.0000
  H   H4080     1.0  0.51251  0.98682  0.21553  1.0000
  H   H4081     1.0  0.52341  0.45955  0.37333  1.0000
  C   C2315     1.0  0.40191  0.99743  0.12695  1.0000
  H   H4082     1.0  0.40518  0.44980  0.15138  1.0000
  S   S519      1.0  0.57661  0.20279  0.05462  1.0000
  H   H4083     1.0  0.58219  0.20970  0.31469  1.0000
  H   H4084     1.0  0.49362  0.97887  0.46695  1.0000
  H   H4085     1.0  0.40495  0.46250  0.12819  1.0000
  H   H4086     1.0  0.58114  0.31675  0.15292  1.0000
  H   H4087     1.0  0.53180  0.47289  0.99173  1.0000
  C   C2316     1.0  0.55848  0.46580  0.23345  1.0000
  C   C2317     1.0  0.58394  0.08310  0.38556  1.0000
  H   H4088     1.0  0.57955  0.32092  0.26990  1.0000
  H   H4089     1.0  0.53569  0.97680  0.16046  1.0000
  H   H4090     1.0  0.57859  0.32143  0.23338  1.0000
  H   H4091     1.0  0.55921  0.97704  0.04557  1.0000
  H   H4092     1.0  0.58120  0.08548  0.34727  1.0000
  H   H4093     1.0  0.46926  0.23393  0.97234  1.0000
  H   H4094     1.0  0.57430  0.36409  0.32661  1.0000
  H   H4095     1.0  0.58089  0.36011  0.34868  1.0000
  C   C2318     1.0  0.57979  0.16600  0.06973  1.0000
  C   C2319     1.0  0.57978  0.39730  0.33100  1.0000
  C   C2320     1.0  0.58160  0.35819  0.46622  1.0000
  H   H4096     1.0  0.38775  0.18743  0.30995  1.0000
  H   H4097     1.0  0.55278  0.97600  0.01254  1.0000
  S   S520      1.0  0.42068  0.31372  0.97274  1.0000
  H   H4098     1.0  0.56371  0.44675  0.97120  1.0000
  H   H4099     1.0  0.58413  0.46471  0.04248  1.0000
  H   H4100     1.0  0.58347  0.13716  0.08194  1.0000
  C   C2321     1.0  0.53611  0.44341  0.95125  1.0000
  H   H4101     1.0  0.38888  0.32266  0.92261  1.0000
  Fe  Fe263     1.0  0.52078  0.04765  0.78987  1.0000
  S   S521      1.0  0.49126  0.04823  0.80424  1.0000
  H   H4102     1.0  0.53699  0.40527  0.91660  1.0000
  Fe  Fe264     1.0  0.52375  0.01215  0.77738  1.0000
  S   S522      1.0  0.49452  0.00980  0.79104  1.0000
  Fe  Fe265     1.0  0.48761  0.03995  0.77958  1.0000
  S   S523      1.0  0.46195  0.05448  0.76835  1.0000
  Fe  Fe266     1.0  0.50048  0.01814  0.81457  1.0000
  S   S524      1.0  0.51642  0.04192  0.76393  1.0000
  H   H4103     1.0  0.50677  0.14468  0.77242  1.0000
  H   H4104     1.0  0.56267  0.37088  0.48726  1.0000
  S   S525      1.0  0.40782  0.00625  0.76298  1.0000
  C   C2322     1.0  0.39448  0.39640  0.51289  1.0000
  H   H4105     1.0  0.57005  0.06667  0.94873  1.0000
  H   H4106     1.0  0.51503  0.15774  0.83719  1.0000
  S   S526      1.0  0.55890  0.45937  0.53066  1.0000
  S   S527      1.0  0.54630  0.13586  0.88060  1.0000
  Fe  Fe267     1.0  0.46972  0.26401  0.81954  1.0000
  S   S528      1.0  0.48253  0.25663  0.84440  1.0000
  S   S529      1.0  0.47178  0.29062  0.79879  1.0000
  Fe  Fe268     1.0  0.45651  0.22764  0.82829  1.0000
  S   S530      1.0  0.46851  0.21767  0.85382  1.0000
  S   S531      1.0  0.44365  0.20628  0.82302  1.0000
  Fe  Fe269     1.0  0.45672  0.24616  0.85901  1.0000
  S   S532      1.0  0.44018  0.24962  0.88718  1.0000
  Fe  Fe270     1.0  0.49315  0.22897  0.83680  1.0000
  S   S533      1.0  0.52333  0.21631  0.83583  1.0000
  S   S534      1.0  0.44281  0.25547  0.83474  1.0000
  S   S535      1.0  0.48224  0.23695  0.81075  1.0000
  H   H4107     1.0  0.39580  0.00938  0.60553  1.0000
  Fe  Fe271     1.0  0.54819  0.37139  0.78077  1.0000
  S   S536      1.0  0.53741  0.36615  0.81114  1.0000
  Fe  Fe272     1.0  0.51905  0.40557  0.77378  1.0000
  S   S537      1.0  0.50554  0.40357  0.80379  1.0000
  S   S538      1.0  0.51230  0.42867  0.75003  1.0000
  Fe  Fe273     1.0  0.53450  0.39642  0.80878  1.0000
  S   S539      1.0  0.54285  0.40351  0.83203  1.0000
  Fe  Fe274     1.0  0.50931  0.37342  0.80420  1.0000
  S   S540      1.0  0.48895  0.35663  0.82321  1.0000
  S   S541      1.0  0.54777  0.40107  0.77883  1.0000
  S   S542      1.0  0.52034  0.37599  0.77373  1.0000
  C   C2323     1.0  0.44270  0.45432  0.57947  1.0000
  H   H4108     1.0  0.45191  0.99723  0.61918  1.0000
  C   C2324     1.0  0.40873  0.99610  0.63730  1.0000
  H   H4109     1.0  0.55360  0.47088  0.96715  1.0000
  S   S543      1.0  0.55247  0.42018  0.51056  1.0000
  C   C2325     1.0  0.42213  0.98917  0.60577  1.0000
  Fe  Fe275     1.0  0.42822  0.45602  0.64986  1.0000
  H   H4110     1.0  0.43194  0.41908  0.54580  1.0000
  C   C2326     1.0  0.39758  0.99446  0.81689  1.0000
  Fe  Fe276     1.0  0.45154  0.44164  0.67961  1.0000
  S   S544      1.0  0.47574  0.45301  0.66154  1.0000
  S   S545      1.0  0.45267  0.42410  0.70792  1.0000
  C   C2327     1.0  0.42808  0.31142  0.86198  1.0000
  Fe  Fe277     1.0  0.46966  0.44227  0.63963  1.0000
  S   S546      1.0  0.49096  0.42431  0.62210  1.0000
  C   C2328     1.0  0.42487  0.46296  0.59119  1.0000
  S   S547      1.0  0.44672  0.42910  0.65817  1.0000
  H   H4111     1.0  0.39537  0.41623  0.47403  1.0000
  C   C2329     1.0  0.54600  0.28472  0.79713  1.0000
  C   C2330     1.0  0.40277  0.02820  0.64354  1.0000
  N   N133      1.0  0.54324  0.30347  0.80154  1.0000
  H   H4112     1.0  0.58477  0.39915  0.79285  1.0000
  C   C2331     1.0  0.39731  0.44293  0.63176  1.0000
  C   C2332     1.0  0.52808  0.27813  0.79790  1.0000
  H   H4113     1.0  0.49915  0.12313  0.77809  1.0000
  H   H4114     1.0  0.42510  0.29806  0.84135  1.0000
  H   H4115     1.0  0.40547  0.10412  0.77134  1.0000
  C   C2333     1.0  0.56198  0.05140  0.83043  1.0000
  C   C2334     1.0  0.39079  0.23272  0.85075  1.0000
  H   H4116     1.0  0.56293  0.42116  0.90869  1.0000
  C   C2335     1.0  0.53232  0.25815  0.79574  1.0000
  C   C2336     1.0  0.54694  0.42557  0.82998  1.0000
  H   H4117     1.0  0.42186  0.41465  0.48940  1.0000
  H   H4118     1.0  0.51563  0.01749  0.64889  1.0000
  H   H4119     1.0  0.44277  0.46563  0.71144  1.0000
  H   H4120     1.0  0.47519  0.99750  0.73996  1.0000
  H   H4121     1.0  0.49608  0.03109  0.67552  1.0000
  H   H4122     1.0  0.41956  0.40319  0.61716  1.0000
  H   H4123     1.0  0.42373  0.42524  0.63392  1.0000
  H   H4124     1.0  0.53506  0.46083  0.66056  1.0000
  H   H4125     1.0  0.47624  0.44720  0.55942  1.0000
  H   H4126     1.0  0.42963  0.97791  0.59819  1.0000
  H   H4127     1.0  0.44813  0.39719  0.54699  1.0000
  C   C2337     1.0  0.40411  0.20238  0.79831  1.0000
  H   H4128     1.0  0.41127  0.34397  0.91184  1.0000
  C   C2338     1.0  0.54715  0.43847  0.81345  1.0000
  C   C2339     1.0  0.55365  0.44758  0.84422  1.0000
  Fe  Fe278     1.0  0.44524  0.29239  0.96402  1.0000
  C   C2340     1.0  0.54491  0.44299  0.59242  1.0000
  C   C2341     1.0  0.54011  0.42850  0.58787  1.0000
  C   C2342     1.0  0.52355  0.42277  0.59721  1.0000
  C   C2343     1.0  0.51147  0.43193  0.61064  1.0000
  C   C2344     1.0  0.51615  0.44656  0.61505  1.0000
  C   C2345     1.0  0.53303  0.45187  0.60616  1.0000
  H   H4129     1.0  0.54930  0.42154  0.57736  1.0000
  H   H4130     1.0  0.52008  0.41129  0.59394  1.0000
  H   H4131     1.0  0.50683  0.45369  0.62537  1.0000
  H   H4132     1.0  0.42443  0.35929  0.88241  1.0000
  C   C2346     1.0  0.49672  0.42614  0.73787  1.0000
  C   C2347     1.0  0.48484  0.41375  0.74554  1.0000
  C   C2348     1.0  0.47156  0.41301  0.73608  1.0000
  C   C2349     1.0  0.47017  0.42456  0.71890  1.0000
  C   C2350     1.0  0.48239  0.43660  0.71106  1.0000
  C   C2351     1.0  0.49566  0.43736  0.72048  1.0000
  H   H4133     1.0  0.48555  0.40507  0.75897  1.0000
  H   H4134     1.0  0.46212  0.40366  0.74223  1.0000
  H   H4135     1.0  0.48133  0.44563  0.69794  1.0000
  H   H4136     1.0  0.50488  0.44692  0.71451  1.0000
  H   H4137     1.0  0.45287  0.30613  0.87270  1.0000
  H   H4138     1.0  0.47698  0.05106  0.70416  1.0000
  H   H4139     1.0  0.54460  0.43502  0.80157  1.0000
  H   H4140     1.0  0.50855  0.44884  0.53927  1.0000
  C   C2352     1.0  0.47697  0.30883  0.80547  1.0000
  C   C2353     1.0  0.47722  0.32581  0.79320  1.0000
  C   C2354     1.0  0.48143  0.34048  0.79826  1.0000
  C   C2355     1.0  0.48511  0.33826  0.81575  1.0000
  C   C2356     1.0  0.48481  0.32133  0.82798  1.0000
  C   C2357     1.0  0.48092  0.30664  0.82282  1.0000
  H   H4141     1.0  0.47403  0.32765  0.77978  1.0000
  H   H4142     1.0  0.48137  0.35361  0.78882  1.0000
  H   H4143     1.0  0.48776  0.31943  0.84144  1.0000
  H   H4144     1.0  0.48080  0.29374  0.83238  1.0000
  C   C2358     1.0  0.44635  0.26268  0.89968  1.0000
  C   C2359     1.0  0.46186  0.27083  0.89298  1.0000
  C   C2360     1.0  0.46666  0.28052  0.90386  1.0000
  C   C2361     1.0  0.45580  0.28231  0.92132  1.0000
  C   C2362     1.0  0.44012  0.27447  0.92772  1.0000
  C   C2363     1.0  0.43550  0.26458  0.91702  1.0000
  H   H4145     1.0  0.47019  0.26961  0.87952  1.0000
  H   H4146     1.0  0.47876  0.28666  0.89876  1.0000
  S   S548      1.0  0.43071  0.46756  0.67324  1.0000
  H   H4147     1.0  0.42336  0.25850  0.92219  1.0000
  C   C2364     1.0  0.53998  0.15802  0.86785  1.0000
  C   C2365     1.0  0.55339  0.16732  0.85602  1.0000
  C   C2366     1.0  0.54811  0.18523  0.84623  1.0000
  C   C2367     1.0  0.52941  0.19378  0.84804  1.0000
  C   C2368     1.0  0.51600  0.18434  0.85967  1.0000
  C   C2369     1.0  0.52129  0.16653  0.86967  1.0000
  H   H4148     1.0  0.56786  0.16081  0.85461  1.0000
  H   H4149     1.0  0.55855  0.19247  0.83722  1.0000
  H   H4150     1.0  0.50158  0.19076  0.86100  1.0000
  H   H4151     1.0  0.51088  0.15932  0.87877  1.0000
  H   H4152     1.0  0.41571  0.39390  0.52887  1.0000
  C   C2370     1.0  0.55387  0.46050  0.82770  1.0000
  H   H4153     1.0  0.51261  0.11609  0.83349  1.0000
  H   H4154     1.0  0.45875  0.45182  0.78949  1.0000
  H   H4155     1.0  0.46562  0.44084  0.76994  1.0000
  H   H4156     1.0  0.52723  0.14921  0.79040  1.0000
  H   H4157     1.0  0.39179  0.24495  0.94422  1.0000
  C   C2371     1.0  0.41655  0.32893  0.91530  1.0000
  C   C2372     1.0  0.55652  0.08351  0.80385  1.0000
  C   C2373     1.0  0.44695  0.04083  0.76733  1.0000
  C   C2374     1.0  0.45232  0.02170  0.76975  1.0000
  C   C2375     1.0  0.44010  0.01118  0.76868  1.0000
  C   C2376     1.0  0.42247  0.01972  0.76516  1.0000
  C   C2377     1.0  0.41706  0.03883  0.76292  1.0000
  C   C2378     1.0  0.42933  0.04935  0.76382  1.0000
  H   H4158     1.0  0.46598  0.01502  0.77203  1.0000
  H   H4159     1.0  0.44439  0.99642  0.77028  1.0000
  H   H4160     1.0  0.40344  0.04554  0.76041  1.0000
  H   H4161     1.0  0.42512  0.06414  0.76175  1.0000
  C   C2379     1.0  0.40439  0.23472  0.79339  1.0000
  C   C2380     1.0  0.41879  0.23055  0.80311  1.0000
  C   C2381     1.0  0.42580  0.21226  0.81053  1.0000
  C   C2382     1.0  0.56427  0.00280  0.88017  1.0000
  H   H4162     1.0  0.45500  0.08383  0.80400  1.0000
  H   H4163     1.0  0.42447  0.24146  0.80484  1.0000
  H   H4164     1.0  0.50611  0.41216  0.56662  1.0000
  C   C2383     1.0  0.55601  0.99515  0.70159  1.0000
  H   H4165     1.0  0.46883  0.02949  0.69526  1.0000
  H   H4166     1.0  0.54096  0.17261  0.81299  1.0000
  H   H4167     1.0  0.52678  0.42919  0.54340  1.0000
  C   C2384     1.0  0.53873  0.41492  0.90315  1.0000
  H   H4168     1.0  0.41189  0.16472  0.75263  1.0000
  C   C2385     1.0  0.57786  0.36786  0.48235  1.0000
  H   H4169     1.0  0.39408  0.99986  0.63563  1.0000
  H   H4170     1.0  0.44041  0.31410  0.83270  1.0000
  C   C2386     1.0  0.50426  0.16915  0.81210  1.0000
  S   S549      1.0  0.46161  0.29484  0.93465  1.0000
  C   C2387     1.0  0.43041  0.35747  0.85353  1.0000
  H   H4171     1.0  0.42699  0.34964  0.84488  1.0000
  C   C2388     1.0  0.39672  0.08466  0.79551  1.0000
  C   C2389     1.0  0.42036  0.37741  0.84876  1.0000
  C   C2390     1.0  0.51159  0.12745  0.79882  1.0000
  H   H4172     1.0  0.43581  0.04314  0.70317  1.0000
  H   H4173     1.0  0.49424  0.38251  0.95776  1.0000
  H   H4174     1.0  0.45475  0.40083  0.49133  1.0000
  H   H4175     1.0  0.40742  0.46512  0.74126  1.0000
  H   H4176     1.0  0.54359  0.28988  0.83000  1.0000
  C   C2391     1.0  0.56109  0.37625  0.54101  1.0000
  H   H4177     1.0  0.42521  0.40574  0.46871  1.0000
  H   H4178     1.0  0.56744  0.30962  0.78118  1.0000
  C   C2392     1.0  0.55461  0.41746  0.48783  1.0000
  C   C2393     1.0  0.57588  0.01700  0.87849  1.0000
  H   H4179     1.0  0.43228  0.37439  0.48496  1.0000
  S   S550      1.0  0.56593  0.44980  0.58144  1.0000
  H   H4180     1.0  0.56178  0.42640  0.88458  1.0000
  C   C2394     1.0  0.53112  0.97802  0.89261  1.0000
  C   C2395     1.0  0.57565  0.98298  0.88418  1.0000
  H   H4181     1.0  0.57201  0.29656  0.82166  1.0000
  H   H4182     1.0  0.43193  0.02018  0.70556  1.0000
  H   H4183     1.0  0.48237  0.98368  0.72291  1.0000
  C   C2396     1.0  0.49933  0.46573  0.91923  1.0000
  H   H4184     1.0  0.42195  0.03257  0.72392  1.0000
  H   H4185     1.0  0.40068  0.97958  0.81658  1.0000
  H   H4186     1.0  0.48006  0.45464  0.77335  1.0000
  C   C2397     1.0  0.41973  0.16580  0.76260  1.0000
  C   C2398     1.0  0.45140  0.02175  0.72143  1.0000
  H   H4187     1.0  0.40609  0.30507  0.93301  1.0000
  H   H4188     1.0  0.55094  0.46585  0.79948  1.0000
  C   C2399     1.0  0.47652  0.23859  0.95801  1.0000
  H   H4189     1.0  0.57954  0.46331  0.94210  1.0000
  H   H4190     1.0  0.45287  0.03186  0.72882  1.0000
  C   C2400     1.0  0.45505  0.47042  0.76354  1.0000
  S   S551      1.0  0.53343  0.07178  0.78896  1.0000
  C   C2401     1.0  0.43747  0.04780  0.82253  1.0000
  H   H4191     1.0  0.44774  0.29183  0.84675  1.0000
  H   H4192     1.0  0.50730  0.39788  0.96047  1.0000
  H   H4193     1.0  0.53120  0.40423  0.49516  1.0000
  C   C2402     1.0  0.40890  0.41513  0.61925  1.0000
  H   H4194     1.0  0.46877  0.25235  0.95245  1.0000
  C   C2403     1.0  0.41118  0.42752  0.62888  1.0000
  Fe  Fe279     1.0  0.58423  0.46991  0.51411  1.0000
  H   H4195     1.0  0.57638  0.34515  0.47070  1.0000
  H   H4196     1.0  0.53682  0.10858  0.82647  1.0000
  H   H4197     1.0  0.52878  0.01871  0.66486  1.0000
  H   H4198     1.0  0.55621  0.45102  0.85609  1.0000
  H   H4199     1.0  0.39548  0.08201  0.81066  1.0000
  S   S552      1.0  0.53045  0.01792  0.80215  1.0000
  C   C2404     1.0  0.49094  0.02598  0.72061  1.0000
  H   H4200     1.0  0.44508  0.04955  0.83238  1.0000
  H   H4201     1.0  0.54788  0.32313  0.82693  1.0000
  H   H4202     1.0  0.55711  0.13121  0.81522  1.0000
  H   H4203     1.0  0.54640  0.14353  0.83333  1.0000
  H   H4204     1.0  0.51649  0.98407  0.72461  1.0000
  H   H4205     1.0  0.47961  0.17899  0.83155  1.0000
  H   H4206     1.0  0.57214  0.38259  0.63503  1.0000
  H   H4207     1.0  0.49370  0.44744  0.87336  1.0000
  H   H4208     1.0  0.42197  0.32671  0.52130  1.0000
  C   C2405     1.0  0.49547  0.39714  0.95486  1.0000
  H   H4209     1.0  0.41409  0.31852  0.50506  1.0000
  H   H4210     1.0  0.40050  0.34941  0.49129  1.0000
  C   C2406     1.0  0.48619  0.99445  0.72787  1.0000
  H   H4211     1.0  0.40848  0.04084  0.64059  1.0000
  H   H4212     1.0  0.54178  0.25647  0.78238  1.0000
  H   H4213     1.0  0.54433  0.43017  0.94896  1.0000
  H   H4214     1.0  0.46151  0.09971  0.82536  1.0000
  H   H4215     1.0  0.55037  0.42005  0.85801  1.0000
  H   H4216     1.0  0.51425  0.31102  0.85482  1.0000
  H   H4217     1.0  0.49963  0.46160  0.89261  1.0000
  H   H4218     1.0  0.39753  0.32864  0.52289  1.0000
  H   H4219     1.0  0.57855  0.08223  0.95714  1.0000
  H   H4220     1.0  0.52431  0.33081  0.82407  1.0000
  H   H4221     1.0  0.44861  0.00906  0.73147  1.0000
  H   H4222     1.0  0.41602  0.32261  0.85954  1.0000
  H   H4223     1.0  0.52623  0.32804  0.85596  1.0000
  H   H4224     1.0  0.42500  0.39859  0.56053  1.0000
  H   H4225     1.0  0.51822  0.27906  0.81117  1.0000
  H   H4226     1.0  0.48587  0.44006  0.57961  1.0000
  C   C2407     1.0  0.50283  0.00637  0.69703  1.0000
  H   H4227     1.0  0.55496  0.28399  0.78331  1.0000
  H   H4228     1.0  0.51938  0.12945  0.85840  1.0000
  H   H4229     1.0  0.51234  0.34341  0.76553  1.0000
  C   C2408     1.0  0.53545  0.32047  0.76982  1.0000
  H   H4230     1.0  0.56435  0.39864  0.61553  1.0000
  N   N134      1.0  0.49185  0.21751  0.91356  1.0000
  C   C2409     1.0  0.49824  0.22737  0.89409  1.0000
  C   C2410     1.0  0.47456  0.21082  0.91449  1.0000
  C   C2411     1.0  0.48663  0.23145  0.92585  1.0000
  C   C2412     1.0  0.50658  0.20186  0.92046  1.0000
  C   C2413     1.0  0.52037  0.19146  0.90595  1.0000
  C   C2414     1.0  0.51356  0.23836  0.89162  1.0000
  C   C2415     1.0  0.47746  0.22484  0.94622  1.0000
  C   C2416     1.0  0.47637  0.19667  0.90256  1.0000
  C   C2417     1.0  0.45743  0.19330  0.90262  1.0000
  C   C2418     1.0  0.53214  0.17400  0.91507  1.0000
  C   C2419     1.0  0.52372  0.24241  0.87160  1.0000
  H   H4231     1.0  0.39719  0.21966  0.85900  1.0000
  H   H4232     1.0  0.48639  0.23723  0.88884  1.0000
  H   H4233     1.0  0.50316  0.21780  0.88437  1.0000
  H   H4234     1.0  0.46914  0.20399  0.92876  1.0000
  H   H4235     1.0  0.46345  0.22277  0.91075  1.0000
  H   H4236     1.0  0.47692  0.24376  0.92021  1.0000
  H   H4237     1.0  0.49899  0.23649  0.92619  1.0000
  H   H4238     1.0  0.51528  0.20683  0.92714  1.0000
  H   H4239     1.0  0.50004  0.19156  0.93154  1.0000
  H   H4240     1.0  0.52994  0.20026  0.89677  1.0000
  H   H4241     1.0  0.51326  0.18745  0.89715  1.0000
  H   H4242     1.0  0.50724  0.25174  0.89593  1.0000
  H   H4243     1.0  0.52390  0.23079  0.90018  1.0000
  H   H4244     1.0  0.48521  0.21133  0.95227  1.0000
  H   H4245     1.0  0.46301  0.22366  0.94717  1.0000
  H   H4246     1.0  0.48283  0.20139  0.88807  1.0000
  H   H4247     1.0  0.48465  0.18327  0.90820  1.0000
  H   H4248     1.0  0.45041  0.18796  0.91684  1.0000
  H   H4249     1.0  0.44860  0.20624  0.89674  1.0000
  H   H4250     1.0  0.45912  0.18305  0.89403  1.0000
  H   H4251     1.0  0.52331  0.16417  0.92358  1.0000
  H   H4252     1.0  0.54215  0.16722  0.90428  1.0000
  H   H4253     1.0  0.54000  0.17729  0.92380  1.0000
  H   H4254     1.0  0.51928  0.25395  0.79615  1.0000
  H   H4255     1.0  0.51392  0.25026  0.86255  1.0000
  H   H4256     1.0  0.53416  0.25072  0.87032  1.0000
  H   H4257     1.0  0.42941  0.01099  0.63814  1.0000
  C   C2420     1.0  0.53209  0.43275  0.66357  1.0000
  C   C2421     1.0  0.53432  0.31904  0.82990  1.0000
  H   H4258     1.0  0.51554  0.17525  0.80235  1.0000
  S   S553      1.0  0.57296  0.35373  0.76624  1.0000
  H   H4259     1.0  0.42401  0.38608  0.85643  1.0000
  H   H4260     1.0  0.55241  0.00486  0.89179  1.0000
  H   H4261     1.0  0.52633  0.09882  0.87845  1.0000
  N   N135      1.0  0.41963  0.98171  0.62628  1.0000
  H   H4262     1.0  0.54832  0.16248  0.79271  1.0000
  C   C2422     1.0  0.52400  0.09987  0.86444  1.0000
  H   H4263     1.0  0.41115  0.01573  0.81657  1.0000
  H   H4264     1.0  0.53012  0.43879  0.91518  1.0000
  H   H4265     1.0  0.48375  0.98022  0.62090  1.0000
  C   C2423     1.0  0.56369  0.39632  0.63057  1.0000
  H   H4266     1.0  0.50350  0.42839  0.84989  1.0000
  H   H4267     1.0  0.43576  0.02728  0.80889  1.0000
  C   C2424     1.0  0.39697  0.22065  0.79101  1.0000
  C   C2425     1.0  0.55872  0.97770  0.71286  1.0000
  H   H4268     1.0  0.41414  0.45464  0.59373  1.0000
  H   H4269     1.0  0.40502  0.07227  0.79023  1.0000
  C   C2426     1.0  0.52222  0.44448  0.96718  1.0000
  C   C2427     1.0  0.38992  0.40854  0.54196  1.0000
  H   H4270     1.0  0.45803  0.02553  0.81352  1.0000
  S   S554      1.0  0.39158  0.40311  0.59867  1.0000
  C   C2428     1.0  0.54771  0.06918  0.80475  1.0000
  C   C2429     1.0  0.41555  0.46494  0.72706  1.0000
  H   H4271     1.0  0.50224  0.98560  0.90547  1.0000
  H   H4272     1.0  0.55322  0.98237  0.86077  1.0000
  H   H4273     1.0  0.51586  0.31395  0.79561  1.0000
  H   H4274     1.0  0.56621  0.38903  0.53921  1.0000
  N   N136      1.0  0.46686  0.42372  0.57876  1.0000
  C   C2430     1.0  0.45177  0.43556  0.59015  1.0000
  C   C2431     1.0  0.47548  0.40649  0.59094  1.0000
  C   C2432     1.0  0.49946  0.42472  0.55797  1.0000
  C   C2433     1.0  0.45992  0.41873  0.56421  1.0000
  C   C2434     1.0  0.44281  0.40959  0.57106  1.0000
  H   H4275     1.0  0.49725  0.45898  0.93400  1.0000
  H   H4276     1.0  0.51118  0.39618  0.92757  1.0000
  C   C2435     1.0  0.46317  0.39880  0.60936  1.0000
  C   C2436     1.0  0.47353  0.38095  0.61949  1.0000
  H   H4277     1.0  0.57847  0.98127  0.89813  1.0000
  C   C2437     1.0  0.44983  0.40307  0.47832  1.0000
  C   C2438     1.0  0.53922  0.45935  0.93816  1.0000
  H   H4278     1.0  0.39648  0.11331  0.79184  1.0000
  H   H4279     1.0  0.44056  0.42813  0.59778  1.0000
  H   H4280     1.0  0.48136  0.39515  0.58319  1.0000
  H   H4281     1.0  0.48751  0.40882  0.59507  1.0000
  C   C2439     1.0  0.51825  0.01197  0.66305  1.0000
  C   C2440     1.0  0.49558  0.45422  0.90703  1.0000
  H   H4282     1.0  0.52376  0.99693  0.66454  1.0000
  H   H4283     1.0  0.47094  0.40897  0.55694  1.0000
  H   H4284     1.0  0.43081  0.41841  0.57835  1.0000
  H   H4285     1.0  0.44614  0.39612  0.58028  1.0000
  H   H4286     1.0  0.49637  0.42069  0.54630  1.0000
  H   H4287     1.0  0.48197  0.08442  0.81630  1.0000
  C   C2441     1.0  0.41626  0.01394  0.63327  1.0000
  C   C2442     1.0  0.54021  0.38057  0.54816  1.0000
  H   H4288     1.0  0.45901  0.40874  0.61872  1.0000
  H   H4289     1.0  0.45057  0.39592  0.60709  1.0000
  H   H4290     1.0  0.48611  0.38331  0.62260  1.0000
  H   H4291     1.0  0.46446  0.37601  0.63271  1.0000
  H   H4292     1.0  0.47748  0.37016  0.61110  1.0000
  H   H4293     1.0  0.40989  0.16866  0.77543  1.0000
  H   H4294     1.0  0.41538  0.13464  0.78942  1.0000
  H   H4295     1.0  0.56953  0.40715  0.63310  1.0000
  H   H4296     1.0  0.43196  0.97607  0.90161  1.0000
  H   H4297     1.0  0.55475  0.09576  0.79330  1.0000
  H   H4298     1.0  0.53335  0.39133  0.53792  1.0000
  H   H4299     1.0  0.40517  0.37834  0.85211  1.0000
  H   H4300     1.0  0.56722  0.36580  0.55189  1.0000
  H   H4301     1.0  0.54156  0.42786  0.67334  1.0000
  H   H4302     1.0  0.39899  0.24889  0.78768  1.0000
  N   N137      1.0  0.43672  0.11285  0.77956  1.0000
  C   C2443     1.0  0.42430  0.13156  0.77615  1.0000
  C   C2444     1.0  0.42537  0.09832  0.78975  1.0000
  C   C2445     1.0  0.44923  0.11367  0.79169  1.0000
  C   C2446     1.0  0.44870  0.10778  0.76194  1.0000
  C   C2447     1.0  0.43850  0.10715  0.74709  1.0000
  C   C2448     1.0  0.43394  0.14810  0.76672  1.0000
  C   C2449     1.0  0.46239  0.09536  0.79804  1.0000
  H   H4303     1.0  0.39841  0.38018  0.54029  1.0000
  H   H4304     1.0  0.50154  0.04433  0.69534  1.0000
  C   C2450     1.0  0.45219  0.10316  0.72953  1.0000
  C   C2451     1.0  0.42915  0.40317  0.48226  1.0000
  H   H4305     1.0  0.48557  0.43244  0.93568  1.0000
  C   C2452     1.0  0.55905  0.41652  0.89782  1.0000
  H   H4306     1.0  0.41462  0.13175  0.76750  1.0000
  H   H4307     1.0  0.43292  0.08459  0.78683  1.0000
  H   H4308     1.0  0.49876  0.19029  0.82827  1.0000
  C   C2453     1.0  0.46554  0.45341  0.77471  1.0000
  H   H4309     1.0  0.45845  0.12356  0.78448  1.0000
  H   H4310     1.0  0.45869  0.11709  0.75566  1.0000
  H   H4311     1.0  0.45747  0.09387  0.76487  1.0000
  H   H4312     1.0  0.42894  0.12033  0.74330  1.0000
  H   H4313     1.0  0.43071  0.09585  0.75206  1.0000
  H   H4314     1.0  0.44196  0.15054  0.77579  1.0000
  H   H4315     1.0  0.44326  0.14587  0.75347  1.0000
  H   H4316     1.0  0.47341  0.09157  0.78626  1.0000
  H   H4317     1.0  0.50934  0.09933  0.86557  1.0000
  H   H4318     1.0  0.51642  0.44265  0.56080  1.0000
  C   C2454     1.0  0.50405  0.98587  0.73568  1.0000
  H   H4319     1.0  0.40964  0.34843  0.87629  1.0000
  C   C2455     1.0  0.40554  0.10138  0.78618  1.0000
  H   H4320     1.0  0.54063  0.12701  0.79498  1.0000
  H   H4321     1.0  0.46028  0.11421  0.72354  1.0000
  H   H4322     1.0  0.46176  0.08976  0.73251  1.0000
  H   H4323     1.0  0.44454  0.10245  0.71924  1.0000
  H   H4324     1.0  0.40546  0.38079  0.47251  1.0000
  H   H4325     1.0  0.51555  0.45450  0.67780  1.0000
  H   H4326     1.0  0.53671  0.46307  0.60974  1.0000
  H   H4327     1.0  0.42315  0.30027  0.87315  1.0000
  H   H4328     1.0  0.38944  0.11312  0.74059  1.0000
  H   H4329     1.0  0.45260  0.41647  0.46971  1.0000
  N   N138      1.0  0.43553  0.33056  0.88168  1.0000
  C   C2456     1.0  0.44289  0.31847  0.86754  1.0000
  C   C2457     1.0  0.45148  0.33278  0.88873  1.0000
  C   C2458     1.0  0.42445  0.34908  0.87430  1.0000
  H   H4330     1.0  0.44076  0.11886  0.80419  1.0000
  C   C2459     1.0  0.46609  0.34265  0.87459  1.0000
  C   C2460     1.0  0.48312  0.34073  0.88250  1.0000
  H   H4331     1.0  0.47939  0.10875  0.80746  1.0000
  H   H4332     1.0  0.45109  0.32541  0.85480  1.0000
  H   H4333     1.0  0.44651  0.34097  0.89974  1.0000
  H   H4334     1.0  0.45865  0.31909  0.89528  1.0000
  H   H4335     1.0  0.54092  0.37511  0.72216  1.0000
  H   H4336     1.0  0.54107  0.30738  0.76495  1.0000
  H   H4337     1.0  0.44541  0.35726  0.84932  1.0000
  H   H4338     1.0  0.42810  0.32632  0.92261  1.0000
  H   H4339     1.0  0.47085  0.33702  0.86193  1.0000
  H   H4340     1.0  0.46024  0.35756  0.87092  1.0000
  H   H4341     1.0  0.49318  0.34823  0.87214  1.0000
  H   H4342     1.0  0.47926  0.34661  0.89513  1.0000
  H   H4343     1.0  0.48991  0.32603  0.88588  1.0000
  C   C2461     1.0  0.40421  0.99831  0.59826  1.0000
  H   H4344     1.0  0.38657  0.99716  0.82905  1.0000
  H   H4345     1.0  0.53315  0.08796  0.85880  1.0000
  C   C2462     1.0  0.43882  0.01404  0.83769  1.0000
  H   H4346     1.0  0.52777  0.33121  0.79454  1.0000
  C   C2463     1.0  0.52978  0.31747  0.79115  1.0000
  H   H4347     1.0  0.39289  0.42218  0.53433  1.0000
  H   H4348     1.0  0.42483  0.01934  0.84540  1.0000
  S   S555      1.0  0.56210  0.99811  0.67751  1.0000
  N   N139      1.0  0.44053  0.99427  0.83634  1.0000
  H   H4349     1.0  0.42336  0.09691  0.80493  1.0000
  C   C2464     1.0  0.57066  0.06579  0.82966  1.0000
  H   H4350     1.0  0.42417  0.34828  0.49157  1.0000
  C   C2465     1.0  0.46889  0.01721  0.70656  1.0000
  H   H4351     1.0  0.55375  0.27411  0.80681  1.0000
  C   C2466     1.0  0.41499  0.00068  0.81727  1.0000
  H   H4352     1.0  0.39373  0.40561  0.55563  1.0000
  H   H4353     1.0  0.41049  0.31973  0.89353  1.0000
  H   H4354     1.0  0.48036  0.45513  0.90954  1.0000
  H   H4355     1.0  0.42529  0.99766  0.80484  1.0000
  C   C2467     1.0  0.42230  0.99086  0.83505  1.0000
  H   H4356     1.0  0.49810  0.13373  0.80654  1.0000
  C   C2468     1.0  0.55037  0.43009  0.84527  1.0000
  H   H4357     1.0  0.43123  0.27638  0.94072  1.0000
  H   H4358     1.0  0.42381  0.18404  0.81378  1.0000
  H   H4359     1.0  0.45301  0.99836  0.80714  1.0000
  C   C2469     1.0  0.43430  0.02991  0.71289  1.0000
  H   H4360     1.0  0.45729  0.43862  0.60100  1.0000
  H   H4361     1.0  0.52129  0.29927  0.82539  1.0000
  H   H4362     1.0  0.49916  0.14619  0.83392  1.0000
  C   C2470     1.0  0.52381  0.45299  0.66390  1.0000
  C   C2471     1.0  0.52745  0.13595  0.80037  1.0000
  C   C2472     1.0  0.54226  0.40859  0.48423  1.0000
  H   H4363     1.0  0.50605  0.99478  0.74415  1.0000
  H   H4364     1.0  0.46887  0.99235  0.82199  1.0000
  H   H4365     1.0  0.52390  0.33373  0.74552  1.0000
  H   H4366     1.0  0.57983  0.15121  0.79918  1.0000
  C   C2473     1.0  0.58235  0.46432  0.95532  1.0000
  H   H4367     1.0  0.58432  0.38514  0.87151  1.0000
  H   H4368     1.0  0.40789  0.99046  0.65228  1.0000
  C   C2474     1.0  0.42317  0.32058  0.89771  1.0000
  H   H4369     1.0  0.40045  0.02280  0.65863  1.0000
  H   H4370     1.0  0.41124  0.99530  0.84654  1.0000
  H   H4371     1.0  0.44870  0.01491  0.84584  1.0000
  H   H4372     1.0  0.51812  0.98278  0.92031  1.0000
  C   C2475     1.0  0.49634  0.98312  0.85079  1.0000
  H   H4373     1.0  0.51429  0.11241  0.80455  1.0000
  C   C2476     1.0  0.51908  0.33041  0.76067  1.0000
  H   H4374     1.0  0.43021  0.30609  0.90189  1.0000
  H   H4375     1.0  0.50402  0.97829  0.82312  1.0000
  H   H4376     1.0  0.51085  0.40837  0.86641  1.0000
  C   C2477     1.0  0.40866  0.00699  0.57781  1.0000
  H   H4377     1.0  0.54057  0.43201  0.64959  1.0000
  H   H4378     1.0  0.48116  0.02761  0.73388  1.0000
  H   H4379     1.0  0.50885  0.42716  0.93806  1.0000
  C   C2478     1.0  0.49469  0.05853  0.71757  1.0000
  H   H4380     1.0  0.38977  0.36323  0.51913  1.0000
  H   H4381     1.0  0.44106  0.05727  0.80923  1.0000
  H   H4382     1.0  0.54661  0.02421  0.70089  1.0000
  H   H4383     1.0  0.42235  0.05144  0.82782  1.0000
  H   H4384     1.0  0.49650  0.16491  0.80394  1.0000
  H   H4385     1.0  0.44077  0.46836  0.76549  1.0000
  C   C2479     1.0  0.44297  0.02811  0.81940  1.0000
  C   C2480     1.0  0.54562  0.14256  0.81932  1.0000
  H   H4386     1.0  0.46774  0.46009  0.73854  1.0000
  H   H4387     1.0  0.39231  0.00220  0.80428  1.0000
  C   C2481     1.0  0.52781  0.31530  0.85082  1.0000
  C   C2482     1.0  0.40086  0.39351  0.53129  1.0000
  H   H4388     1.0  0.48421  0.05993  0.73040  1.0000
  H   H4389     1.0  0.50862  0.05363  0.72105  1.0000
  H   H4390     1.0  0.49423  0.07228  0.70835  1.0000
  C   C2483     1.0  0.51019  0.12987  0.77877  1.0000
  H   H4391     1.0  0.48533  0.19548  0.81076  1.0000
  H   H4392     1.0  0.56418  0.03886  0.84059  1.0000
  C   C2484     1.0  0.51141  0.15241  0.82656  1.0000
  H   H4393     1.0  0.53807  0.30437  0.85746  1.0000
  C   C2485     1.0  0.54862  0.01067  0.70959  1.0000
  C   C2486     1.0  0.55073  0.45588  0.81229  1.0000
  C   C2487     1.0  0.50086  0.42168  0.86469  1.0000
  H   H4394     1.0  0.52343  0.12334  0.77079  1.0000
  H   H4395     1.0  0.41554  0.01874  0.57568  1.0000
  C   C2488     1.0  0.53554  0.30197  0.82194  1.0000
  H   H4396     1.0  0.48968  0.01080  0.67343  1.0000
  Fe  Fe280     1.0  0.57445  0.12054  0.86911  1.0000
  C   C2489     1.0  0.56581  0.36939  0.52257  1.0000
  N   N140      1.0  0.50542  0.43432  0.90958  1.0000
  C   C2490     1.0  0.49942  0.42543  0.89714  1.0000
  C   C2491     1.0  0.49965  0.42540  0.92965  1.0000
  C   C2492     1.0  0.40118  0.32012  0.92883  1.0000
  C   C2493     1.0  0.52595  0.43384  0.90469  1.0000
  C   C2494     1.0  0.50338  0.43411  0.87628  1.0000
  S   S556      1.0  0.55641  0.45755  0.91811  1.0000
  H   H4397     1.0  0.44159  0.45475  0.73540  1.0000
  H   H4398     1.0  0.41565  0.45170  0.72353  1.0000
  C   C2495     1.0  0.52849  0.11791  0.85219  1.0000
  H   H4399     1.0  0.48427  0.42583  0.90138  1.0000
  H   H4400     1.0  0.50593  0.41063  0.89864  1.0000
  H   H4401     1.0  0.56789  0.40289  0.89627  1.0000
  C   C2496     1.0  0.48164  0.43484  0.56923  1.0000
  H   H4402     1.0  0.54618  0.37875  0.66682  1.0000
  H   H4403     1.0  0.42684  0.17758  0.75654  1.0000
  H   H4404     1.0  0.52967  0.44368  0.89161  1.0000
  H   H4405     1.0  0.51374  0.46788  0.91461  1.0000
  H   H4406     1.0  0.39865  0.19146  0.79638  1.0000
  H   H4407     1.0  0.45683  0.43095  0.55323  1.0000
  H   H4408     1.0  0.50543  0.99139  0.69705  1.0000
  N   N141      1.0  0.48716  0.01141  0.71278  1.0000
  H   H4409     1.0  0.48668  0.40301  0.92919  1.0000
  H   H4410     1.0  0.55909  0.35740  0.52501  1.0000
  C   C2497     1.0  0.49853  0.40475  0.93412  1.0000
  Fe  Fe281     1.0  0.57592  0.44583  0.55212  1.0000
  H   H4411     1.0  0.57150  0.38675  0.85420  1.0000
  H   H4412     1.0  0.39570  0.98806  0.59974  1.0000
  C   C2498     1.0  0.52620  0.11966  0.83224  1.0000
  H   H4413     1.0  0.50484  0.02165  0.72423  1.0000
  H   H4414     1.0  0.52103  0.28656  0.78662  1.0000
  H   H4415     1.0  0.49060  0.23982  0.95842  1.0000
  H   H4416     1.0  0.55853  0.38049  0.51292  1.0000
  H   H4417     1.0  0.39697  0.32610  0.94141  1.0000
  H   H4418     1.0  0.48656  0.41908  0.86864  1.0000
  C   C2499     1.0  0.51359  0.43716  0.54991  1.0000
  C   C2500     1.0  0.55042  0.05315  0.81814  1.0000
  H   H4419     1.0  0.53097  0.22941  0.86690  1.0000
  C   C2501     1.0  0.47185  0.09725  0.81268  1.0000
  H   H4420     1.0  0.48950  0.98352  0.87973  1.0000
  C   C2502     1.0  0.55407  0.97581  0.73209  1.0000
  N   N142      1.0  0.52274  0.40059  0.67259  1.0000
  C   C2503     1.0  0.54177  0.39384  0.66200  1.0000
  C   C2504     1.0  0.52215  0.39375  0.69300  1.0000
  C   C2505     1.0  0.50940  0.39196  0.66749  1.0000
  C   C2506     1.0  0.51678  0.42125  0.66805  1.0000
  H   H4421     1.0  0.51491  0.45893  0.65356  1.0000
  C   C2507     1.0  0.54361  0.39737  0.64077  1.0000
  C   C2508     1.0  0.48908  0.39554  0.67813  1.0000
  C   C2509     1.0  0.53523  0.40015  0.70153  1.0000
  C   C2510     1.0  0.53503  0.38999  0.72149  1.0000
  H   H4422     1.0  0.43096  0.99960  0.60129  1.0000
  H   H4423     1.0  0.54301  0.11768  0.85234  1.0000
  C   C2511     1.0  0.47681  0.38770  0.67032  1.0000
  H   H4424     1.0  0.39002  0.16192  0.83221  1.0000
  H   H4425     1.0  0.55227  0.39994  0.66476  1.0000
  H   H4426     1.0  0.50814  0.39839  0.70106  1.0000
  H   H4427     1.0  0.52486  0.37842  0.69630  1.0000
  H   H4428     1.0  0.51431  0.37677  0.66933  1.0000
  H   H4429     1.0  0.50878  0.39704  0.65265  1.0000
  H   H4430     1.0  0.51011  0.42556  0.65585  1.0000
  H   H4431     1.0  0.50584  0.42596  0.67950  1.0000
  H   H4432     1.0  0.53177  0.99259  0.88674  1.0000
  C   C2512     1.0  0.45580  0.98949  0.82039  1.0000
  H   H4433     1.0  0.53816  0.38685  0.63717  1.0000
  H   H4434     1.0  0.53561  0.41103  0.63547  1.0000
  H   H4435     1.0  0.48350  0.41048  0.67720  1.0000
  H   H4436     1.0  0.48785  0.38872  0.69285  1.0000
  H   H4437     1.0  0.54973  0.39764  0.69397  1.0000
  H   H4438     1.0  0.53041  0.41501  0.70179  1.0000
  H   H4439     1.0  0.54343  0.39570  0.72777  1.0000
  H   H4440     1.0  0.53722  0.38581  0.56108  1.0000
  H   H4441     1.0  0.45779  0.39207  0.47067  1.0000
  N   N143      1.0  0.52740  0.13809  0.81946  1.0000
  H   H4442     1.0  0.51766  0.43655  0.87149  1.0000
  C   C2513     1.0  0.54375  0.00876  0.72881  1.0000
  H   H4443     1.0  0.53868  0.24892  0.80718  1.0000
  C   C2514     1.0  0.50037  0.01599  0.67711  1.0000
  S   S557      1.0  0.40043  0.45950  0.64251  1.0000
  H   H4444     1.0  0.47679  0.39442  0.65568  1.0000
  H   H4445     1.0  0.48167  0.37264  0.67138  1.0000
  H   H4446     1.0  0.46241  0.39025  0.67831  1.0000
  S   S558      1.0  0.48917  0.00695  0.84424  1.0000
  H   H4447     1.0  0.51607  0.00865  0.69883  1.0000
  H   H4448     1.0  0.46678  0.00614  0.70070  1.0000
  H   H4449     1.0  0.42459  0.38284  0.83379  1.0000
  C   C2515     1.0  0.49067  0.04517  0.70794  1.0000
  H   H4450     1.0  0.53808  0.02077  0.73488  1.0000
  C   C2516     1.0  0.55004  0.16090  0.80698  1.0000
  N   N144      1.0  0.40485  0.38317  0.50034  1.0000
  C   C2517     1.0  0.56151  0.30959  0.79603  1.0000
  H   H4451     1.0  0.41075  0.97546  0.54675  1.0000
  C   C2518     1.0  0.40408  0.36392  0.51135  1.0000
  C   C2519     1.0  0.42494  0.38450  0.49382  1.0000
  Fe  Fe282     1.0  0.57142  0.43420  0.51844  1.0000
  H   H4452     1.0  0.38932  0.03195  0.63905  1.0000
  C   C2520     1.0  0.41026  0.34821  0.50031  1.0000
  C   C2521     1.0  0.54649  0.99131  0.74011  1.0000
  S   S559      1.0  0.54074  0.98838  0.76424  1.0000
  C   C2522     1.0  0.43669  0.40594  0.55501  1.0000
  H   H4453     1.0  0.57842  0.42989  0.47623  1.0000
  C   C2523     1.0  0.41100  0.32940  0.51325  1.0000
  C   C2524     1.0  0.39282  0.41799  0.61238  1.0000
  H   H4454     1.0  0.53434  0.36802  0.55106  1.0000
  H   H4455     1.0  0.54368  0.04205  0.81901  1.0000
  C   C2525     1.0  0.39554  0.38634  0.48420  1.0000
  H   H4456     1.0  0.39482  0.41084  0.50581  1.0000
  H   H4457     1.0  0.41282  0.36023  0.52190  1.0000
  H   H4458     1.0  0.43208  0.38057  0.50564  1.0000
  C   C2526     1.0  0.43589  0.30340  0.84462  1.0000
  H   H4459     1.0  0.53599  0.40905  0.89250  1.0000
  C   C2527     1.0  0.41841  0.19821  0.80810  1.0000
  H   H4460     1.0  0.40198  0.23830  0.84010  1.0000
  H   H4461     1.0  0.41848  0.02032  0.61842  1.0000
  H   H4462     1.0  0.41933  0.98391  0.87346  1.0000
  H   H4463     1.0  0.39566  0.01212  0.57246  1.0000
  H   H4464     1.0  0.52073  0.39167  0.72978  1.0000
  H   H4465     1.0  0.50879  0.32148  0.76381  1.0000
  H   H4466     1.0  0.45411  0.34721  0.47152  1.0000
  H   H4467     1.0  0.54621  0.32903  0.76483  1.0000
  C   C2528     1.0  0.49120  0.18432  0.82134  1.0000
  H   H4468     1.0  0.57912  0.35929  0.79994  1.0000
  C   C2529     1.0  0.56784  0.08191  0.81637  1.0000
  H   H4469     1.0  0.55961  0.32417  0.79718  1.0000
  H   H4470     1.0  0.41781  0.99674  0.56983  1.0000
  H   H4471     1.0  0.58178  0.34295  0.50299  1.0000
  S   S560      1.0  0.45086  0.46838  0.62940  1.0000
  H   H4472     1.0  0.58404  0.40157  0.82098  1.0000
  H   H4473     1.0  0.43914  0.45291  0.56682  1.0000
  H   H4474     1.0  0.57031  0.47204  0.63355  1.0000
  S   S561      1.0  0.57574  0.97715  0.63407  1.0000
  C   C2530     1.0  0.43539  0.46666  0.72570  1.0000
  C   C2531     1.0  0.51529  0.97724  0.90943  1.0000
  H   H4475     1.0  0.56724  0.03106  0.87625  1.0000
  H   H4476     1.0  0.58281  0.38098  0.47690  1.0000
  H   H4477     1.0  0.45225  0.46410  0.57563  1.0000
  C   C2532     1.0  0.57001  0.16213  0.80587  1.0000
  C   C2533     1.0  0.56885  0.42304  0.47361  1.0000
  C   C2534     1.0  0.45495  0.98214  0.62053  1.0000
  C   C2535     1.0  0.43349  0.98602  0.87219  1.0000
  H   H4478     1.0  0.43258  0.00031  0.87351  1.0000
  C   C2536     1.0  0.44599  0.98194  0.85369  1.0000
  H   H4479     1.0  0.48258  0.40494  0.96214  1.0000
  H   H4480     1.0  0.57470  0.09294  0.81548  1.0000
  H   H4481     1.0  0.55918  0.00589  0.86719  1.0000
  H   H4482     1.0  0.46030  0.98256  0.85407  1.0000
  H   H4483     1.0  0.57262  0.17571  0.79764  1.0000
  H   H4484     1.0  0.42727  0.46395  0.60458  1.0000
  H   H4485     1.0  0.58445  0.40859  0.75969  1.0000
  C   C2537     1.0  0.46473  0.47339  0.74302  1.0000
  H   H4486     1.0  0.57271  0.16064  0.81981  1.0000
  C   C2538     1.0  0.57860  0.06751  0.95817  1.0000
  H   H4487     1.0  0.46968  0.97609  0.78802  1.0000
  H   H4488     1.0  0.58064  0.28360  0.80358  1.0000
  C   C2539     1.0  0.57669  0.29765  0.80658  1.0000
  H   H4489     1.0  0.42288  0.97587  0.83693  1.0000
  H   H4490     1.0  0.45892  0.97909  0.60644  1.0000
  C   C2540     1.0  0.38611  0.40642  0.47683  1.0000
  H   H4491     1.0  0.58510  0.39262  0.49963  1.0000
  C   C2541     1.0  0.49484  0.97501  0.86951  1.0000
  S   S562      1.0  0.58286  0.11731  0.83969  1.0000
  S   S563      1.0  0.58189  0.09042  0.88072  1.0000
  H   H4492     1.0  0.58124  0.01482  0.89124  1.0000
  H   H4493     1.0  0.58455  0.04095  0.64411  1.0000
  H   H4494     1.0  0.46891  0.97764  0.64338  1.0000
  H   H4495     1.0  0.45514  0.97519  0.88829  1.0000
  C   C2542     1.0  0.47177  0.97425  0.62953  1.0000
  H   H4496     1.0  0.50077  0.68315  0.44659  1.0000
  Fe  Fe283     1.0  0.51984  0.90740  0.31022  1.0000
  S   S564      1.0  0.51357  0.91556  0.33770  1.0000
  Fe  Fe284     1.0  0.50785  0.91186  0.27431  1.0000
  S   S565      1.0  0.53159  0.89037  0.26441  1.0000
  S   S566      1.0  0.48523  0.92659  0.25872  1.0000
  Fe  Fe285     1.0  0.52548  0.87405  0.29315  1.0000
  S   S567      1.0  0.52881  0.84314  0.29820  1.0000
  S   S568      1.0  0.50030  0.89454  0.30239  1.0000
  S   S569      1.0  0.52520  0.92660  0.28291  1.0000
  Fe  Fe286     1.0  0.45215  0.93494  0.14391  1.0000
  S   S570      1.0  0.44955  0.96156  0.12350  1.0000
  S   S571      1.0  0.43566  0.91309  0.14752  1.0000
  Fe  Fe287     1.0  0.48433  0.94226  0.15610  1.0000
  H   H4497     1.0  0.40155  0.80293  0.04117  1.0000
  S   S572      1.0  0.50670  0.93140  0.17275  1.0000
  H   H4498     1.0  0.50152  0.49296  0.41290  1.0000
  H   H4499     1.0  0.55212  0.51011  0.32627  1.0000
  Fe  Fe288     1.0  0.48052  0.95475  0.11613  1.0000
  H   H4500     1.0  0.39436  0.57511  0.28912  1.0000
  S   S573      1.0  0.45370  0.94755  0.16685  1.0000
  S   S574      1.0  0.48294  0.92723  0.13503  1.0000
  H   H4501     1.0  0.48643  0.56487  0.34061  1.0000
  H   H4502     1.0  0.43047  0.83741  0.34831  1.0000
  S   S575      1.0  0.54442  0.88540  0.30346  1.0000
  Fe  Fe289     1.0  0.45696  0.78177  0.33539  1.0000
  S   S576      1.0  0.48016  0.76511  0.34928  1.0000
  S   S577      1.0  0.45511  0.81174  0.32186  1.0000
  Fe  Fe290     1.0  0.43595  0.75041  0.34568  1.0000
  S   S578      1.0  0.45737  0.73136  0.36068  1.0000
  S   S579      1.0  0.41011  0.74080  0.34577  1.0000
  Fe  Fe291     1.0  0.45758  0.75551  0.37213  1.0000
  S   S580      1.0  0.45911  0.75078  0.40207  1.0000
  Fe  Fe292     1.0  0.47782  0.74259  0.33662  1.0000
  S   S581      1.0  0.50170  0.72426  0.32181  1.0000
  S   S582      1.0  0.43437  0.77379  0.35923  1.0000
  S   S583      1.0  0.45641  0.76006  0.32066  1.0000
  H   H4503     1.0  0.54106  0.48731  0.00011  1.0000
  H   H4504     1.0  0.46916  0.56453  0.31072  1.0000
  Fe  Fe293     1.0  0.54853  0.90355  0.27550  1.0000
  C   C2543     1.0  0.50582  0.66925  0.45444  1.0000
  H   H4505     1.0  0.51474  0.91673  0.45990  1.0000
  Fe  Fe294     1.0  0.55284  0.51888  0.28439  1.0000
  S   S584      1.0  0.52333  0.52434  0.29910  1.0000
  H   H4506     1.0  0.47364  0.47911  0.20924  1.0000
  Fe  Fe295     1.0  0.51670  0.51930  0.27409  1.0000
  S   S585      1.0  0.49341  0.53744  0.26078  1.0000
  S   S586      1.0  0.54609  0.51659  0.25818  1.0000
  H   H4507     1.0  0.48245  0.84365  0.46517  1.0000
  S   S587      1.0  0.42329  0.50157  0.27734  1.0000
  C   C2544     1.0  0.43477  0.90240  0.07325  1.0000
  C   C2545     1.0  0.47384  0.52758  0.26543  1.0000
  C   C2546     1.0  0.47086  0.51341  0.28067  1.0000
  C   C2547     1.0  0.45530  0.50551  0.28415  1.0000
  C   C2548     1.0  0.44261  0.51178  0.27245  1.0000
  C   C2549     1.0  0.44558  0.52592  0.25715  1.0000
  C   C2550     1.0  0.46110  0.53393  0.25372  1.0000
  H   H4508     1.0  0.48034  0.50871  0.29001  1.0000
  H   H4509     1.0  0.50810  0.55959  0.32497  1.0000
  H   H4510     1.0  0.43598  0.53058  0.24792  1.0000
  H   H4511     1.0  0.46337  0.54487  0.24188  1.0000
  H   H4512     1.0  0.45606  0.82541  0.41479  1.0000
  C   C2551     1.0  0.47890  0.47897  0.06670  1.0000
  H   H4513     1.0  0.51109  0.87946  0.45406  1.0000
  H   H4514     1.0  0.53367  0.53598  0.33665  1.0000
  C   C2552     1.0  0.40975  0.72974  0.32831  1.0000
  H   H4515     1.0  0.54358  0.49374  0.23195  1.0000
  S   S588      1.0  0.39344  0.49600  0.09316  1.0000
  C   C2553     1.0  0.40794  0.71224  0.30070  1.0000
  C   C2554     1.0  0.42126  0.72297  0.29764  1.0000
  C   C2555     1.0  0.42222  0.73166  0.31143  1.0000
  H   H4516     1.0  0.54718  0.60800  0.46420  1.0000
  H   H4517     1.0  0.57434  0.52420  0.13755  1.0000
  H   H4518     1.0  0.43079  0.72465  0.28451  1.0000
  H   H4519     1.0  0.43245  0.74001  0.30892  1.0000
  C   C2556     1.0  0.44920  0.76905  0.41376  1.0000
  C   C2557     1.0  0.44124  0.78624  0.40459  1.0000
  C   C2558     1.0  0.43342  0.80063  0.41418  1.0000
  C   C2559     1.0  0.43358  0.79796  0.43292  1.0000
  C   C2560     1.0  0.44154  0.78079  0.44214  1.0000
  C   C2561     1.0  0.44932  0.76635  0.43255  1.0000
  H   H4520     1.0  0.44110  0.78841  0.39013  1.0000
  H   H4521     1.0  0.42718  0.81390  0.40709  1.0000
  C   C2562     1.0  0.39541  0.71043  0.31754  1.0000
  H   H4522     1.0  0.45548  0.75306  0.43971  1.0000
  C   C2563     1.0  0.54236  0.57488  0.31140  1.0000
  C   C2564     1.0  0.54825  0.56067  0.30144  1.0000
  C   C2565     1.0  0.56635  0.55059  0.30005  1.0000
  H   H4523     1.0  0.47355  0.47704  0.25742  1.0000
  H   H4524     1.0  0.52838  0.58277  0.31227  1.0000
  H   H4525     1.0  0.53889  0.55779  0.29450  1.0000
  C   C2566     1.0  0.39178  0.80341  0.39500  1.0000
  C   C2567     1.0  0.53603  0.67978  0.35845  1.0000
  C   C2568     1.0  0.52205  0.69305  0.36616  1.0000
  C   C2569     1.0  0.51125  0.70666  0.35504  1.0000
  C   C2570     1.0  0.51461  0.70715  0.33614  1.0000
  C   C2571     1.0  0.52846  0.69380  0.32846  1.0000
  C   C2572     1.0  0.53907  0.68006  0.33962  1.0000
  H   H4526     1.0  0.51962  0.69288  0.38073  1.0000
  H   H4527     1.0  0.50055  0.71692  0.36105  1.0000
  H   H4528     1.0  0.53102  0.69412  0.31385  1.0000
  C   C2573     1.0  0.53949  0.52933  0.37317  1.0000
  H   H4529     1.0  0.46357  0.84532  0.43169  1.0000
  C   C2574     1.0  0.41678  0.59980  0.27399  1.0000
  S   S589      1.0  0.57644  0.90860  0.25913  1.0000
  H   H4530     1.0  0.39613  0.75595  0.26739  1.0000
  H   H4531     1.0  0.47796  0.49395  0.06517  1.0000
  C   C2575     1.0  0.43490  0.95734  0.08221  1.0000
  H   H4532     1.0  0.53837  0.49715  0.20046  1.0000
  C   C2576     1.0  0.51891  0.95038  0.08297  1.0000
  C   C2577     1.0  0.52942  0.94859  0.06541  1.0000
  C   C2578     1.0  0.54883  0.94422  0.06242  1.0000
  C   C2579     1.0  0.55780  0.94192  0.07693  1.0000
  C   C2580     1.0  0.54725  0.94348  0.09452  1.0000
  C   C2581     1.0  0.52787  0.94762  0.09757  1.0000
  N   N145      1.0  0.42198  0.57911  0.27595  1.0000
  H   H4533     1.0  0.55681  0.94273  0.04888  1.0000
  H   H4534     1.0  0.55408  0.94159  0.10584  1.0000
  H   H4535     1.0  0.51987  0.94892  0.11117  1.0000
  H   H4536     1.0  0.56543  0.65181  0.40722  1.0000
  H   H4537     1.0  0.48331  0.50212  0.24279  1.0000
  C   C2582     1.0  0.55279  0.54193  0.36111  1.0000
  H   H4538     1.0  0.38687  0.57419  0.16199  1.0000
  S   S590      1.0  0.55740  0.48846  0.29543  1.0000
  Fe  Fe296     1.0  0.55327  0.97345  0.40790  1.0000
  C   C2583     1.0  0.50831  0.83445  0.30483  1.0000
  C   C2584     1.0  0.49105  0.84628  0.30624  1.0000
  C   C2585     1.0  0.47484  0.83916  0.31131  1.0000
  C   C2586     1.0  0.47576  0.82013  0.31530  1.0000
  C   C2587     1.0  0.49301  0.80824  0.31397  1.0000
  C   C2588     1.0  0.50926  0.81540  0.30870  1.0000
  H   H4539     1.0  0.49016  0.86094  0.30334  1.0000
  H   H4540     1.0  0.46151  0.84840  0.31237  1.0000
  H   H4541     1.0  0.49385  0.79355  0.31685  1.0000
  H   H4542     1.0  0.52254  0.80614  0.30775  1.0000
  C   C2589     1.0  0.49144  0.92869  0.23476  1.0000
  C   C2590     1.0  0.47760  0.93455  0.22435  1.0000
  C   C2591     1.0  0.48218  0.93588  0.20521  1.0000
  C   C2592     1.0  0.50061  0.93116  0.19645  1.0000
  C   C2593     1.0  0.51447  0.92552  0.20685  1.0000
  C   C2594     1.0  0.50991  0.92436  0.22597  1.0000
  H   H4543     1.0  0.46328  0.93790  0.23113  1.0000
  H   H4544     1.0  0.47143  0.94014  0.19732  1.0000
  H   H4545     1.0  0.52877  0.92193  0.20010  1.0000
  H   H4546     1.0  0.52070  0.92010  0.23387  1.0000
  C   C2595     1.0  0.39038  0.77608  0.45354  1.0000
  H   H4547     1.0  0.42773  0.59922  0.23829  1.0000
  Fe  Fe297     1.0  0.56577  0.63809  0.36176  1.0000
  H   H4548     1.0  0.39705  0.85041  0.98765  1.0000
  C   C2596     1.0  0.39632  0.71914  0.33128  1.0000
  C   C2597     1.0  0.47076  0.82474  0.41457  1.0000
  H   H4549     1.0  0.51421  0.93328  0.36640  1.0000
  H   H4550     1.0  0.38603  0.80714  0.00656  1.0000
  S   S591      1.0  0.51930  0.48372  0.33909  1.0000
  C   C2598     1.0  0.52407  0.52897  0.34806  1.0000
  C   C2599     1.0  0.41802  0.91805  0.13486  1.0000
  C   C2600     1.0  0.41022  0.93618  0.12777  1.0000
  H   H4551     1.0  0.44652  0.57964  0.23997  1.0000
  H   H4552     1.0  0.57652  0.58643  0.27706  1.0000
  H   H4553     1.0  0.47303  0.47683  0.05569  1.0000
  C   C2601     1.0  0.41174  0.90358  0.13175  1.0000
  H   H4554     1.0  0.41476  0.94742  0.13031  1.0000
  C   C2602     1.0  0.41671  0.90087  0.06903  1.0000
  C   C2603     1.0  0.54575  0.48424  0.20709  1.0000
  H   H4555     1.0  0.40752  0.73990  0.46614  1.0000
  C   C2604     1.0  0.54991  0.50350  0.35624  1.0000
  C   C2605     1.0  0.55445  0.57901  0.32014  1.0000
  N   N146      1.0  0.46897  0.68382  0.31828  1.0000
  C   C2606     1.0  0.47001  0.67110  0.30572  1.0000
  C   C2607     1.0  0.48570  0.67748  0.32707  1.0000
  C   C2608     1.0  0.45127  0.68345  0.33252  1.0000
  C   C2609     1.0  0.46887  0.70329  0.30779  1.0000
  C   C2610     1.0  0.48490  0.70608  0.29095  1.0000
  C   C2611     1.0  0.45522  0.67704  0.29349  1.0000
  C   C2612     1.0  0.44837  0.69465  0.34761  1.0000
  C   C2613     1.0  0.48674  0.65879  0.34090  1.0000
  C   C2614     1.0  0.50432  0.65384  0.34870  1.0000
  C   C2615     1.0  0.48236  0.72615  0.28078  1.0000
  C   C2616     1.0  0.45784  0.66335  0.28116  1.0000
  C   C2617     1.0  0.43138  0.69125  0.36257  1.0000
  H   H4556     1.0  0.46844  0.65720  0.31393  1.0000
  H   H4557     1.0  0.48393  0.66894  0.29661  1.0000
  H   H4558     1.0  0.49857  0.67620  0.31632  1.0000
  H   H4559     1.0  0.48689  0.68801  0.33420  1.0000
  H   H4560     1.0  0.44993  0.66906  0.33925  1.0000
  H   H4561     1.0  0.43909  0.68921  0.32587  1.0000
  H   H4562     1.0  0.45571  0.70921  0.30303  1.0000
  H   H4563     1.0  0.46936  0.71224  0.31701  1.0000
  H   H4564     1.0  0.48560  0.69762  0.28091  1.0000
  H   H4565     1.0  0.49835  0.70244  0.29538  1.0000
  H   H4566     1.0  0.44108  0.67769  0.30205  1.0000
  H   H4567     1.0  0.45594  0.69070  0.28438  1.0000
  H   H4568     1.0  0.44607  0.70953  0.34140  1.0000
  H   H4569     1.0  0.46035  0.69112  0.35442  1.0000
  H   H4570     1.0  0.47486  0.65925  0.35272  1.0000
  H   H4571     1.0  0.48688  0.64756  0.33412  1.0000
  H   H4572     1.0  0.51681  0.65294  0.33750  1.0000
  H   H4573     1.0  0.50442  0.66430  0.35642  1.0000
  H   H4574     1.0  0.50495  0.64029  0.35832  1.0000
  H   H4575     1.0  0.49416  0.72795  0.26902  1.0000
  H   H4576     1.0  0.46938  0.73026  0.27540  1.0000
  H   H4577     1.0  0.48188  0.73534  0.29010  1.0000
  H   H4578     1.0  0.45659  0.64947  0.28959  1.0000
  H   H4579     1.0  0.44697  0.66791  0.27275  1.0000
  H   H4580     1.0  0.47156  0.66261  0.27170  1.0000
  H   H4581     1.0  0.44171  0.77862  0.45662  1.0000
  C   C2618     1.0  0.40496  0.47588  0.08492  1.0000
  C   C2619     1.0  0.57624  0.90166  0.34824  1.0000
  H   H4582     1.0  0.39927  0.63543  0.27741  1.0000
  H   H4583     1.0  0.56711  0.85406  0.25269  1.0000
  S   S592      1.0  0.42351  0.81643  0.44428  1.0000
  S   S593      1.0  0.49470  0.95711  0.08623  1.0000
  C   C2620     1.0  0.38985  0.92536  0.11467  1.0000
  C   C2621     1.0  0.40869  0.56990  0.29158  1.0000
  H   H4584     1.0  0.40591  0.60567  0.26553  1.0000
  H   H4585     1.0  0.50969  0.95746  0.23724  1.0000
  C   C2622     1.0  0.48756  0.92610  0.05548  1.0000
  H   H4586     1.0  0.40860  0.79466  0.01031  1.0000
  C   C2623     1.0  0.39719  0.80620  0.01389  1.0000
  H   H4587     1.0  0.41575  0.90757  0.05457  1.0000
  H   H4588     1.0  0.58457  0.66711  0.30329  1.0000
  S   S594      1.0  0.57183  0.63411  0.33277  1.0000
  H   H4589     1.0  0.56592  0.79487  0.26489  1.0000
  H   H4590     1.0  0.52777  0.67809  0.46026  1.0000
  C   C2624     1.0  0.46934  0.89812  0.09453  1.0000
  C   C2625     1.0  0.53498  0.94993  0.35514  1.0000
  C   C2626     1.0  0.51231  0.48285  0.40591  1.0000
  C   C2627     1.0  0.39332  0.82773  0.09264  1.0000
  H   H4591     1.0  0.58295  0.72934  0.33367  1.0000
  H   H4592     1.0  0.55632  0.54431  0.44843  1.0000
  H   H4593     1.0  0.52256  0.95062  0.05408  1.0000
  C   C2628     1.0  0.45272  0.48185  0.23428  1.0000
  H   H4594     1.0  0.54759  0.55014  0.34872  1.0000
  H   H4595     1.0  0.45730  0.97059  0.21030  1.0000
  H   H4596     1.0  0.46545  0.92645  0.09602  1.0000
  H   H4597     1.0  0.39926  0.81310  0.09774  1.0000
  C   C2629     1.0  0.40762  0.62828  0.28806  1.0000
  H   H4598     1.0  0.47180  0.90500  0.05925  1.0000
  Fe  Fe298     1.0  0.54801  0.48653  0.27058  1.0000
  C   C2630     1.0  0.47137  0.83099  0.43181  1.0000
  S   S595      1.0  0.40099  0.53259  0.23471  1.0000
  C   C2631     1.0  0.43758  0.48729  0.22301  1.0000
  C   C2632     1.0  0.39776  0.90721  0.12159  1.0000
  H   H4599     1.0  0.56567  0.55535  0.46120  1.0000
  C   C2633     1.0  0.45778  0.91807  0.09182  1.0000
  H   H4600     1.0  0.51306  0.50053  0.37030  1.0000
  C   C2634     1.0  0.57764  0.86144  0.25326  1.0000
  H   H4601     1.0  0.40844  0.86205  0.00938  1.0000
  C   C2635     1.0  0.52635  0.66685  0.45430  1.0000
  C   C2636     1.0  0.45154  0.94723  0.06970  1.0000
  H   H4602     1.0  0.50853  0.51687  0.38453  1.0000
  H   H4603     1.0  0.45278  0.85215  0.35418  1.0000
  H   H4604     1.0  0.56522  0.64750  0.29353  1.0000
  H   H4605     1.0  0.44465  0.91830  0.10227  1.0000
  C   C2637     1.0  0.43572  0.92276  0.07121  1.0000
  C   C2638     1.0  0.38732  0.85678  0.99831  1.0000
  H   H4606     1.0  0.45653  0.81843  0.38581  1.0000
  H   H4607     1.0  0.57244  0.71454  0.32639  1.0000
  H   H4608     1.0  0.40461  0.90737  0.07843  1.0000
  C   C2639     1.0  0.51962  0.96659  0.45157  1.0000
  H   H4609     1.0  0.48570  0.84536  0.34977  1.0000
  H   H4610     1.0  0.47805  0.81017  0.41576  1.0000
  H   H4611     1.0  0.58135  0.79932  0.29664  1.0000
  N   N147      1.0  0.55440  0.64284  0.46474  1.0000
  Fe  Fe299     1.0  0.39937  0.51617  0.26345  1.0000
  C   C2640     1.0  0.46896  0.92014  0.05762  1.0000
  C   C2641     1.0  0.46840  0.88936  0.11488  1.0000
  H   H4612     1.0  0.55647  0.73293  0.35994  1.0000
  H   H4613     1.0  0.45429  0.49444  0.23776  1.0000
  H   H4614     1.0  0.43342  0.67671  0.37003  1.0000
  H   H4615     1.0  0.40056  0.54422  0.32458  1.0000
  H   H4616     1.0  0.46407  0.95076  0.07179  1.0000
  H   H4617     1.0  0.49333  0.48982  0.02801  1.0000
  C   C2642     1.0  0.50408  0.89274  0.45840  1.0000
  H   H4618     1.0  0.39391  0.54143  0.17843  1.0000
  H   H4619     1.0  0.40539  0.57819  0.25714  1.0000
  H   H4620     1.0  0.58155  0.91464  0.31983  1.0000
  H   H4621     1.0  0.49312  0.53051  0.22272  1.0000
  H   H4622     1.0  0.53364  0.49803  0.40127  1.0000
  C   C2643     1.0  0.56043  0.63264  0.43345  1.0000
  N   N148      1.0  0.45367  0.92660  0.07283  1.0000
  H   H4623     1.0  0.38916  0.83495  0.10438  1.0000
  H   H4624     1.0  0.56667  0.53356  0.35694  1.0000
  C   C2644     1.0  0.50355  0.91475  0.04399  1.0000
  H   H4625     1.0  0.42450  0.55970  0.25876  1.0000
  H   H4626     1.0  0.55008  0.48689  0.02658  1.0000
  S   S596      1.0  0.51819  0.48899  0.28482  1.0000
  C   C2645     1.0  0.57834  0.50929  0.14322  1.0000
  H   H4627     1.0  0.56067  0.95337  0.31162  1.0000
  S   S597      1.0  0.54628  0.59657  0.33291  1.0000
  H   H4628     1.0  0.50747  0.85416  0.37425  1.0000
  H   H4629     1.0  0.57180  0.47614  0.98763  1.0000
  H   H4630     1.0  0.41071  0.54373  0.28330  1.0000
  C   C2646     1.0  0.42805  0.57877  0.22356  1.0000
  H   H4631     1.0  0.45039  0.95367  0.05515  1.0000
  H   H4632     1.0  0.49411  0.83604  0.39814  1.0000
  C   C2647     1.0  0.54806  0.95564  0.33968  1.0000
  C   C2648     1.0  0.48631  0.84739  0.36343  1.0000
  C   C2649     1.0  0.57252  0.56882  0.31892  1.0000
  H   H4633     1.0  0.40289  0.48562  0.03976  1.0000
  C   C2650     1.0  0.39005  0.80297  0.03473  1.0000
  C   C2651     1.0  0.47970  0.83704  0.39680  1.0000
  C   C2652     1.0  0.51956  0.90393  0.45449  1.0000
  S   S598      1.0  0.57821  0.96948  0.38515  1.0000
  H   H4634     1.0  0.41663  0.54515  0.19391  1.0000
  H   H4635     1.0  0.43673  0.56789  0.30854  1.0000
  H   H4636     1.0  0.57754  0.68210  0.32989  1.0000
  H   H4637     1.0  0.56497  0.52234  0.33391  1.0000
  C   C2653     1.0  0.44176  0.57202  0.27815  1.0000
  H   H4638     1.0  0.56509  0.61774  0.43848  1.0000
  H   H4639     1.0  0.40398  0.83424  0.08207  1.0000
  H   H4640     1.0  0.55275  0.62899  0.30417  1.0000
  H   H4641     1.0  0.58033  0.63864  0.44518  1.0000
  H   H4642     1.0  0.57455  0.48106  0.33340  1.0000
  C   C2654     1.0  0.58245  0.87349  0.23425  1.0000
  C   C2655     1.0  0.52759  0.49214  0.39288  1.0000
  H   H4643     1.0  0.53128  0.89570  0.46099  1.0000
  H   H4644     1.0  0.54891  0.73918  0.33829  1.0000
  C   C2656     1.0  0.45964  0.83218  0.37878  1.0000
  H   H4645     1.0  0.58182  0.57175  0.32586  1.0000
  H   H4646     1.0  0.47279  0.89802  0.12196  1.0000
  H   H4647     1.0  0.39446  0.80867  0.42971  1.0000
  H   H4648     1.0  0.39008  0.95388  0.11244  1.0000
  N   N149      1.0  0.48142  0.87096  0.24124  1.0000
  C   C2657     1.0  0.47618  0.87320  0.22294  1.0000
  C   C2658     1.0  0.48200  0.85122  0.25123  1.0000
  C   C2659     1.0  0.46734  0.88403  0.25204  1.0000
  C   C2660     1.0  0.50022  0.87531  0.23874  1.0000
  C   C2661     1.0  0.51603  0.86544  0.22523  1.0000
  C   C2662     1.0  0.47672  0.89223  0.20988  1.0000
  C   C2663     1.0  0.46953  0.88236  0.27200  1.0000
  C   C2664     1.0  0.46310  0.84508  0.25819  1.0000
  C   C2665     1.0  0.46568  0.82466  0.26716  1.0000
  C   C2666     1.0  0.53452  0.87014  0.22462  1.0000
  C   C2667     1.0  0.47287  0.89242  0.19118  1.0000
  C   C2668     1.0  0.45350  0.89479  0.28227  1.0000
  H   H4649     1.0  0.46185  0.87105  0.22504  1.0000
  H   H4650     1.0  0.48503  0.86241  0.21540  1.0000
  H   H4651     1.0  0.49081  0.84175  0.24216  1.0000
  H   H4652     1.0  0.48880  0.84815  0.26325  1.0000
  H   H4653     1.0  0.45307  0.88264  0.25241  1.0000
  H   H4654     1.0  0.46800  0.89852  0.24508  1.0000
  H   H4655     1.0  0.49967  0.89035  0.23415  1.0000
  H   H4656     1.0  0.50466  0.87172  0.25221  1.0000
  H   H4657     1.0  0.51343  0.86964  0.21101  1.0000
  H   H4658     1.0  0.51756  0.85031  0.22947  1.0000
  H   H4659     1.0  0.46605  0.90308  0.21584  1.0000
  H   H4660     1.0  0.49039  0.89596  0.20729  1.0000
  H   H4661     1.0  0.48252  0.88643  0.27197  1.0000
  H   H4662     1.0  0.46981  0.86818  0.27998  1.0000
  H   H4663     1.0  0.45395  0.85279  0.26865  1.0000
  H   H4664     1.0  0.45589  0.84721  0.24672  1.0000
  H   H4665     1.0  0.47316  0.82167  0.27860  1.0000
  H   H4666     1.0  0.45199  0.82076  0.27292  1.0000
  H   H4667     1.0  0.47356  0.81611  0.25690  1.0000
  H   H4668     1.0  0.53369  0.88525  0.22070  1.0000
  H   H4669     1.0  0.53851  0.86490  0.23824  1.0000
  H   H4670     1.0  0.54543  0.86362  0.21425  1.0000
  H   H4671     1.0  0.47344  0.90619  0.18219  1.0000
  H   H4672     1.0  0.48343  0.88209  0.18429  1.0000
  H   H4673     1.0  0.45891  0.88958  0.19274  1.0000
  H   H4674     1.0  0.44029  0.89038  0.28382  1.0000
  H   H4675     1.0  0.45591  0.89395  0.29620  1.0000
  H   H4676     1.0  0.45236  0.90933  0.27482  1.0000
  H   H4677     1.0  0.56424  0.65830  0.43768  1.0000
  H   H4678     1.0  0.49156  0.96912  0.25309  1.0000
  H   H4679     1.0  0.56739  0.62840  0.40535  1.0000
  H   H4680     1.0  0.57006  0.89131  0.34529  1.0000
  H   H4681     1.0  0.40331  0.78085  0.45253  1.0000
  C   C2669     1.0  0.57933  0.82234  0.27243  1.0000
  H   H4682     1.0  0.49656  0.53872  0.36448  1.0000
  H   H4683     1.0  0.45410  0.88756  0.12165  1.0000
  H   H4684     1.0  0.52622  0.86582  0.34474  1.0000
  Fe  Fe300     1.0  0.56567  0.60597  0.34492  1.0000
  H   H4685     1.0  0.46457  0.92541  0.04411  1.0000
  C   C2670     1.0  0.40873  0.60753  0.29188  1.0000
  H   H4686     1.0  0.44623  0.89536  0.06377  1.0000
  H   H4687     1.0  0.56855  0.85062  0.29015  1.0000
  H   H4688     1.0  0.47253  0.85157  0.39719  1.0000
  H   H4689     1.0  0.41770  0.88951  0.13723  1.0000
  S   S599      1.0  0.38964  0.87658  0.04180  1.0000
  H   H4690     1.0  0.50353  0.65888  0.44783  1.0000
  H   H4691     1.0  0.42165  0.63155  0.28334  1.0000
  S   S600      1.0  0.57433  0.53327  0.28695  1.0000
  H   H4692     1.0  0.58035  0.94686  0.97965  1.0000
  H   H4693     1.0  0.42668  0.97406  0.20245  1.0000
  H   H4694     1.0  0.41613  0.88616  0.07096  1.0000
  H   H4695     1.0  0.40172  0.81231  0.39360  1.0000
  C   C2671     1.0  0.53491  0.95206  0.45196  1.0000
  C   C2672     1.0  0.54872  0.48235  0.22490  1.0000
  H   H4696     1.0  0.43688  0.58499  0.21080  1.0000
  H   H4697     1.0  0.54638  0.64554  0.28443  1.0000
  H   H4698     1.0  0.58264  0.70643  0.36460  1.0000
  N   N150      1.0  0.53362  0.51755  0.36347  1.0000
  H   H4699     1.0  0.57128  0.87064  0.26323  1.0000
  C   C2673     1.0  0.50104  0.51665  0.22076  1.0000
  H   H4700     1.0  0.56861  0.82137  0.31175  1.0000
  C   C2674     1.0  0.55534  0.72758  0.34816  1.0000
  H   H4701     1.0  0.47591  0.87766  0.45572  1.0000
  H   H4702     1.0  0.47655  0.50804  0.22063  1.0000
  S   S601      1.0  0.55271  0.94992  0.43243  1.0000
  H   H4703     1.0  0.38918  0.75675  0.29996  1.0000
  H   H4704     1.0  0.39295  0.89599  0.11932  1.0000
  H   H4705     1.0  0.51592  0.96770  0.16110  1.0000
  C   C2675     1.0  0.55512  0.55543  0.37164  1.0000
  H   H4706     1.0  0.51176  0.55496  0.35759  1.0000
  H   H4707     1.0  0.54177  0.56490  0.37535  1.0000
  H   H4708     1.0  0.42419  0.84007  0.37198  1.0000
  H   H4709     1.0  0.42417  0.92771  0.08209  1.0000
  H   H4710     1.0  0.51936  0.51982  0.34174  1.0000
  C   C2676     1.0  0.53379  0.64774  0.46558  1.0000
  C   C2677     1.0  0.56707  0.54237  0.45656  1.0000
  H   H4711     1.0  0.41589  0.56262  0.17331  1.0000
  H   H4712     1.0  0.53837  0.48121  0.38716  1.0000
  H   H4713     1.0  0.45358  0.47909  0.08637  1.0000
  H   H4714     1.0  0.43141  0.56360  0.22481  1.0000
  C   C2678     1.0  0.50595  0.49094  0.01719  1.0000
  C   C2679     1.0  0.50633  0.84956  0.36203  1.0000
  C   C2680     1.0  0.55055  0.94901  0.32360  1.0000
  H   H4715     1.0  0.42885  0.60615  0.26627  1.0000
  C   C2681     1.0  0.45368  0.83720  0.35994  1.0000
  H   H4716     1.0  0.42167  0.95730  0.07867  1.0000
  C   C2682     1.0  0.46585  0.56276  0.29804  1.0000
  H   H4717     1.0  0.43206  0.93050  0.05777  1.0000
  H   H4718     1.0  0.41696  0.60109  0.30264  1.0000
  H   H4719     1.0  0.43455  0.95068  0.09685  1.0000
  H   H4720     1.0  0.50572  0.90004  0.05095  1.0000
  C   C2683     1.0  0.52690  0.93097  0.33836  1.0000
  C   C2684     1.0  0.39003  0.55300  0.18581  1.0000
  C   C2685     1.0  0.57030  0.63719  0.41339  1.0000
  H   H4721     1.0  0.39068  0.82807  0.05720  1.0000
  H   H4722     1.0  0.49105  0.92480  0.06902  1.0000
  C   C2686     1.0  0.57822  0.49455  0.33200  1.0000
  H   H4723     1.0  0.48661  0.94074  0.04835  1.0000
  H   H4724     1.0  0.47628  0.56779  0.28602  1.0000
  H   H4725     1.0  0.56557  0.50397  0.15039  1.0000
  H   H4726     1.0  0.44622  0.55745  0.27671  1.0000
  S   S602      1.0  0.40703  0.70136  0.28332  1.0000
  C   C2687     1.0  0.44639  0.57348  0.29620  1.0000
  C   C2688     1.0  0.39874  0.54090  0.31192  1.0000
  H   H4727     1.0  0.58161  0.82249  0.25743  1.0000
  H   H4728     1.0  0.49260  0.54357  0.33249  1.0000
  C   C2689     1.0  0.49854  0.48368  0.22390  1.0000
  H   H4729     1.0  0.42906  0.70026  0.37259  1.0000
  C   C2690     1.0  0.57848  0.93670  0.97307  1.0000
  C   C2691     1.0  0.48830  0.50275  0.22785  1.0000
  H   H4730     1.0  0.50582  0.47650  0.39826  1.0000
  H   H4731     1.0  0.50697  0.51742  0.20584  1.0000
  C   C2692     1.0  0.50728  0.54426  0.35326  1.0000
  C   C2693     1.0  0.56080  0.50901  0.33633  1.0000
  H   H4732     1.0  0.54546  0.63563  0.43350  1.0000
  H   H4733     1.0  0.41340  0.58397  0.22228  1.0000
  H   H4734     1.0  0.47699  0.86092  0.36486  1.0000
  H   H4735     1.0  0.50250  0.48562  0.20867  1.0000
  H   H4736     1.0  0.43530  0.81780  0.36627  1.0000
  H   H4737     1.0  0.50076  0.91605  0.03012  1.0000
  S   S603      1.0  0.55704  0.61107  0.37375  1.0000
  H   H4738     1.0  0.55625  0.67081  0.46409  1.0000
  C   C2694     1.0  0.57436  0.71869  0.33855  1.0000
  H   H4739     1.0  0.51227  0.78518  0.34604  1.0000
  C   C2695     1.0  0.49809  0.55362  0.33679  1.0000
  H   H4740     1.0  0.44979  0.84210  0.38687  1.0000
  H   H4741     1.0  0.40482  0.56834  0.19563  1.0000
  H   H4742     1.0  0.45122  0.57942  0.26687  1.0000
  H   H4743     1.0  0.40279  0.78188  0.41551  1.0000
  C   C2696     1.0  0.52435  0.93766  0.35444  1.0000
  H   H4744     1.0  0.44609  0.58805  0.29605  1.0000
  C   C2697     1.0  0.52715  0.90920  0.43385  1.0000
  C   C2698     1.0  0.43149  0.58402  0.24021  1.0000
  H   H4745     1.0  0.51238  0.51284  0.22853  1.0000
  C   C2699     1.0  0.43472  0.83285  0.36185  1.0000
  C   C2700     1.0  0.58238  0.84233  0.29211  1.0000
  C   C2701     1.0  0.39619  0.93981  0.11772  1.0000
  H   H4746     1.0  0.54974  0.66989  0.33357  1.0000
  C   C2702     1.0  0.51984  0.50726  0.37739  1.0000
  H   H4747     1.0  0.48408  0.89818  0.08808  1.0000
  C   C2703     1.0  0.41237  0.54857  0.29514  1.0000
  C   C2704     1.0  0.54012  0.93658  0.32298  1.0000
  C   C2705     1.0  0.56531  0.64376  0.44525  1.0000
  H   H4748     1.0  0.44131  0.49743  0.21022  1.0000
  H   H4749     1.0  0.53863  0.91654  0.43158  1.0000
  H   H4750     1.0  0.53257  0.89677  0.42768  1.0000
  H   H4751     1.0  0.57340  0.48256  0.01368  1.0000
  Fe  Fe301     1.0  0.52740  0.49374  0.30855  1.0000
  H   H4752     1.0  0.53374  0.66863  0.43972  1.0000
  H   H4753     1.0  0.54615  0.71745  0.35324  1.0000
  H   H4754     1.0  0.57235  0.48787  0.04439  1.0000
  H   H4755     1.0  0.39381  0.76676  0.44363  1.0000
  C   C2706     1.0  0.56331  0.47673  0.02548  1.0000
  H   H4756     1.0  0.49467  0.89968  0.44861  1.0000
  C   C2707     1.0  0.42015  0.57463  0.25842  1.0000
  H   H4757     1.0  0.40834  0.57353  0.30479  1.0000
  H   H4758     1.0  0.55230  0.80074  0.28640  1.0000
  H   H4759     1.0  0.48586  0.83010  0.43277  1.0000
  H   H4760     1.0  0.56519  0.56388  0.36281  1.0000
  H   H4761     1.0  0.50252  0.87750  0.34570  1.0000
  H   H4762     1.0  0.42648  0.54241  0.29777  1.0000
  H   H4763     1.0  0.51623  0.91855  0.42680  1.0000
  H   H4764     1.0  0.54528  0.49088  0.35607  1.0000
  H   H4765     1.0  0.41888  0.69454  0.35652  1.0000
  H   H4766     1.0  0.47769  0.87563  0.11632  1.0000
  C   C2708     1.0  0.58146  0.80167  0.28177  1.0000
  H   H4767     1.0  0.43499  0.89505  0.08769  1.0000
  N   N151      1.0  0.47943  0.83246  0.37879  1.0000
  H   H4768     1.0  0.48637  0.96944  0.21687  1.0000
  H   H4769     1.0  0.52716  0.53801  0.38033  1.0000
  C   C2709     1.0  0.57130  0.84039  0.32652  1.0000
  H   H4770     1.0  0.51179  0.48023  0.22867  1.0000
  H   H4771     1.0  0.46482  0.82198  0.44423  1.0000
  H   H4772     1.0  0.52910  0.63750  0.46083  1.0000
  H   H4773     1.0  0.53310  0.95485  0.36765  1.0000
  H   H4774     1.0  0.51226  0.85967  0.33234  1.0000
  H   H4775     1.0  0.45299  0.49462  0.29606  1.0000
  H   H4776     1.0  0.51645  0.91978  0.04231  1.0000
  C   C2710     1.0  0.57903  0.82942  0.31117  1.0000
  H   H4777     1.0  0.46472  0.88899  0.08828  1.0000
  C   C2711     1.0  0.51212  0.86402  0.34516  1.0000
  H   H4778     1.0  0.56779  0.77876  0.28632  1.0000
  S   S604      1.0  0.54998  0.66351  0.37249  1.0000
  H   H4779     1.0  0.39449  0.60497  0.29763  1.0000
  C   C2712     1.0  0.55823  0.63762  0.29091  1.0000
  H   H4780     1.0  0.46684  0.54786  0.29898  1.0000
  H   H4781     1.0  0.54238  0.93129  0.31063  1.0000
  C   C2713     1.0  0.49164  0.81378  0.37777  1.0000
  C   C2714     1.0  0.49527  0.80727  0.35941  1.0000
  C   C2715     1.0  0.51002  0.78963  0.35929  1.0000
  H   H4782     1.0  0.50522  0.81311  0.38106  1.0000
  H   H4783     1.0  0.48557  0.80295  0.38851  1.0000
  H   H4784     1.0  0.50022  0.81763  0.34745  1.0000
  H   H4785     1.0  0.48249  0.80409  0.35762  1.0000
  H   H4786     1.0  0.51633  0.83647  0.36073  1.0000
  H   H4787     1.0  0.46358  0.82964  0.34989  1.0000
  H   H4788     1.0  0.52333  0.79199  0.36070  1.0000
  H   H4789     1.0  0.50552  0.77844  0.37067  1.0000
  H   H4790     1.0  0.39053  0.80602  0.07175  1.0000
  C   C2716     1.0  0.56590  0.79356  0.27968  1.0000
  H   H4791     1.0  0.56455  0.82897  0.27637  1.0000
  H   H4792     1.0  0.57944  0.89253  0.29701  1.0000
  H   H4793     1.0  0.42533  0.48896  0.06445  1.0000
  H   H4794     1.0  0.56037  0.54800  0.38433  1.0000
  C   C2717     1.0  0.40792  0.55766  0.18719  1.0000
  H   H4795     1.0  0.40087  0.63358  0.30086  1.0000
  H   H4796     1.0  0.40265  0.81909  0.00905  1.0000
  H   H4797     1.0  0.56767  0.59745  0.24636  1.0000
  H   H4798     1.0  0.51472  0.97327  0.24821  1.0000
  C   C2718     1.0  0.39375  0.86337  0.01061  1.0000
  H   H4799     1.0  0.56995  0.88372  0.23104  1.0000
  H   H4800     1.0  0.55745  0.84884  0.32500  1.0000
  H   H4801     1.0  0.56979  0.57294  0.25398  1.0000
  H   H4802     1.0  0.39732  0.79474  0.38443  1.0000
  H   H4803     1.0  0.54666  0.52063  0.38426  1.0000
  H   H4804     1.0  0.56978  0.83081  0.34009  1.0000
  C   C2719     1.0  0.57847  0.55469  0.30881  1.0000
  S   S605      1.0  0.58210  0.93788  0.07350  1.0000
  H   H4805     1.0  0.56362  0.61672  0.27524  1.0000
  H   H4806     1.0  0.55989  0.49891  0.36568  1.0000
  H   H4807     1.0  0.42444  0.49367  0.23124  1.0000
  H   H4808     1.0  0.50205  0.49331  0.00363  1.0000
  H   H4809     1.0  0.56485  0.91295  0.35251  1.0000
  H   H4810     1.0  0.40126  0.52571  0.31366  1.0000
  C   C2720     1.0  0.50411  0.97058  0.24215  1.0000
  H   H4811     1.0  0.57415  0.69163  0.35601  1.0000
  H   H4812     1.0  0.38651  0.78913  0.03907  1.0000
  H   H4813     1.0  0.51124  0.50296  0.01784  1.0000
  C   C2721     1.0  0.50547  0.96767  0.46732  1.0000
  H   H4814     1.0  0.58363  0.89504  0.35973  1.0000
  H   H4815     1.0  0.45822  0.85228  0.46494  1.0000
  C   C2722     1.0  0.38923  0.79111  0.41417  1.0000
  H   H4816     1.0  0.48516  0.92926  0.46238  1.0000
  C   C2723     1.0  0.42056  0.47621  0.07056  1.0000
  C   C2724     1.0  0.57159  0.62560  0.27811  1.0000
  S   S606      1.0  0.48453  0.96939  0.13638  1.0000
  H   H4817     1.0  0.58151  0.49482  0.23049  1.0000
  H   H4818     1.0  0.58069  0.84947  0.32628  1.0000
  S   S607      1.0  0.56186  0.97070  0.34002  1.0000
  H   H4819     1.0  0.57606  0.63481  0.26497  1.0000
  C   C2725     1.0  0.57759  0.58430  0.24935  1.0000
  C   C2726     1.0  0.38792  0.49122  0.04028  1.0000
  H   H4820     1.0  0.38724  0.49335  0.17430  1.0000
  S   S608      1.0  0.38667  0.50523  0.20698  1.0000
  H   H4821     1.0  0.38766  0.55626  0.14350  1.0000
  H   H4822     1.0  0.38667  0.71751  0.34433  1.0000
  H   H4823     1.0  0.38677  0.52382  0.14614  1.0000
  H   H4824     1.0  0.58366  0.48457  0.19917  1.0000
  C   C2727     1.0  0.58335  0.70183  0.35172  1.0000
  H   H4825     1.0  0.58211  0.60313  0.29827  1.0000
  H   H4826     1.0  0.43521  0.47503  0.21937  1.0000
  H   H4827     1.0  0.58360  0.51400  0.16762  1.0000
  H   H4828     1.0  0.58481  0.47947  0.16964  1.0000
  H   H4829     1.0  0.38558  0.80767  0.46297  1.0000
  C   C2728     1.0  0.53599  0.93869  0.46814  1.0000
  Fe  Fe302     1.0  0.45368  0.97375  0.14557  1.0000
  H   H4830     1.0  0.47369  0.47429  0.09636  1.0000
  H   H4831     1.0  0.51661  0.97333  0.19165  1.0000
  H   H4832     1.0  0.38553  0.49670  0.02603  1.0000
  H   H4833     1.0  0.38559  0.53649  0.12311  1.0000
  C   C2729     1.0  0.57057  0.47438  0.04297  1.0000
  C   C2730     1.0  0.57198  0.77106  0.78805  1.0000
  H   H4834     1.0  0.41483  0.75524  0.47613  1.0000
  C   C2731     1.0  0.47451  0.96680  0.80029  1.0000
  Fe  Fe303     1.0  0.52342  0.91036  0.89555  1.0000
  S   S609      1.0  0.51001  0.91939  0.92221  1.0000
  S   S610      1.0  0.51484  0.92119  0.86807  1.0000
  Fe  Fe304     1.0  0.54913  0.87764  0.91360  1.0000
  S   S611      1.0  0.53769  0.88362  0.94211  1.0000
  S   S612      1.0  0.57174  0.85412  0.90533  1.0000
  Fe  Fe305     1.0  0.51001  0.88952  0.93411  1.0000
  S   S613      1.0  0.48344  0.88267  0.95247  1.0000
  Fe  Fe306     1.0  0.53865  0.91299  0.92808  1.0000
  H   H4835     1.0  0.46766  0.90147  0.49450  1.0000
  S   S614      1.0  0.52138  0.88099  0.90701  1.0000
  S   S615      1.0  0.55220  0.90663  0.90004  1.0000
  S   S616      1.0  0.44459  0.83500  0.92322  1.0000
  H   H4836     1.0  0.40316  0.88634  0.88643  1.0000
  H   H4837     1.0  0.58323  0.73280  0.79577  1.0000
  C   C2732     1.0  0.43391  0.51479  0.67833  1.0000
  Fe  Fe307     1.0  0.52801  0.51478  0.87769  1.0000
  S   S617      1.0  0.54884  0.52154  0.85200  1.0000
  S   S618      1.0  0.49803  0.52793  0.88434  1.0000
  Fe  Fe308     1.0  0.55549  0.49117  0.85261  1.0000
  C   C2733     1.0  0.44117  0.97313  0.88850  1.0000
  Fe  Fe309     1.0  0.56891  0.51475  0.87092  1.0000
  H   H4838     1.0  0.55092  0.96990  0.91061  1.0000
  H   H4839     1.0  0.43029  0.78485  0.88357  1.0000
  S   S619      1.0  0.54730  0.51092  0.89678  1.0000
  C   C2734     1.0  0.52822  0.80636  0.55601  1.0000
  H   H4840     1.0  0.55026  0.65756  0.48665  1.0000
  S   S620      1.0  0.53622  0.95483  0.62900  1.0000
  H   H4841     1.0  0.49063  0.96802  0.75946  1.0000
  H   H4842     1.0  0.41650  0.76890  0.86762  1.0000
  Fe  Fe310     1.0  0.46940  0.92470  0.56830  1.0000
  S   S621      1.0  0.48967  0.89836  0.57463  1.0000
  S   S622      1.0  0.44495  0.93103  0.59096  1.0000
  Fe  Fe311     1.0  0.49011  0.93418  0.52892  1.0000
  S   S623      1.0  0.51187  0.90847  0.53205  1.0000
  S   S624      1.0  0.48837  0.95582  0.50290  1.0000
  Fe  Fe312     1.0  0.48834  0.89426  0.54704  1.0000
  S   S625      1.0  0.48820  0.86560  0.54397  1.0000
  Fe  Fe313     1.0  0.51128  0.91488  0.55929  1.0000
  S   S626      1.0  0.53826  0.91075  0.56842  1.0000
  S   S627      1.0  0.46643  0.91952  0.54178  1.0000
  S   S628      1.0  0.49110  0.94171  0.55517  1.0000
  Fe  Fe314     1.0  0.55473  0.77732  0.86638  1.0000
  S   S629      1.0  0.55046  0.74898  0.88043  1.0000
  S   S630      1.0  0.53705  0.79894  0.88190  1.0000
  H   H4843     1.0  0.40008  0.71760  0.82984  1.0000
  H   H4844     1.0  0.51548  0.96177  0.75421  1.0000
  H   H4845     1.0  0.50973  0.55555  0.93388  1.0000
  Fe  Fe315     1.0  0.54782  0.74588  0.85300  1.0000
  S   S631      1.0  0.52227  0.73706  0.85149  1.0000
  H   H4846     1.0  0.51295  0.62965  0.52836  1.0000
  H   H4847     1.0  0.41835  0.93543  0.53891  1.0000
  S   S632      1.0  0.54984  0.77504  0.83949  1.0000
  C   C2735     1.0  0.40315  0.74883  0.47649  1.0000
  Fe  Fe316     1.0  0.50107  0.65892  0.82135  1.0000
  S   S633      1.0  0.47666  0.66159  0.84466  1.0000
  S   S634      1.0  0.52822  0.66599  0.82080  1.0000
  Fe  Fe317     1.0  0.48217  0.64164  0.80126  1.0000
  S   S635      1.0  0.48696  0.62966  0.77595  1.0000
  Fe  Fe318     1.0  0.47546  0.63316  0.84294  1.0000
  S   S636      1.0  0.46814  0.61363  0.86949  1.0000
  S   S637      1.0  0.48437  0.67075  0.79928  1.0000
  S   S638      1.0  0.50117  0.62961  0.82132  1.0000
  S   S639      1.0  0.46198  0.50578  0.64960  1.0000
  C   C2736     1.0  0.48957  0.65228  0.58909  1.0000
  H   H4848     1.0  0.47705  0.95239  0.79851  1.0000
  C   C2737     1.0  0.40991  0.96671  0.56030  1.0000
  S   S640      1.0  0.47557  0.61592  0.66950  1.0000
  C   C2738     1.0  0.40887  0.96654  0.63068  1.0000
  Fe  Fe319     1.0  0.42070  0.83048  0.50569  1.0000
  S   S641      1.0  0.40887  0.80894  0.52816  1.0000
  S   S642      1.0  0.42374  0.85769  0.50985  1.0000
  S   S643      1.0  0.40874  0.78822  0.49503  1.0000
  H   H4849     1.0  0.55541  0.73256  0.70709  1.0000
  Fe  Fe320     1.0  0.42885  0.78914  0.51170  1.0000
  S   S644      1.0  0.44296  0.76200  0.52629  1.0000
  S   S645      1.0  0.44233  0.81064  0.49048  1.0000
  Fe  Fe321     1.0  0.51884  0.73591  0.58003  1.0000
  S   S646      1.0  0.51866  0.70663  0.58055  1.0000
  S   S647      1.0  0.51378  0.75954  0.55632  1.0000
  Fe  Fe322     1.0  0.52704  0.72713  0.61854  1.0000
  S   S648      1.0  0.52789  0.69696  0.62230  1.0000
  S   S649      1.0  0.52687  0.74061  0.64158  1.0000
  Fe  Fe323     1.0  0.54380  0.69994  0.59300  1.0000
  H   H4850     1.0  0.45732  0.93464  0.49809  1.0000
  Fe  Fe324     1.0  0.50281  0.70599  0.60964  1.0000
  S   S650      1.0  0.47617  0.69561  0.62067  1.0000
  S   S651      1.0  0.54525  0.72949  0.59040  1.0000
  S   S652      1.0  0.50074  0.73598  0.60792  1.0000
  C   C2739     1.0  0.46275  0.76160  0.53428  1.0000
  C   C2740     1.0  0.47236  0.77606  0.52786  1.0000
  C   C2741     1.0  0.48819  0.77524  0.53449  1.0000
  C   C2742     1.0  0.49428  0.76011  0.54773  1.0000
  C   C2743     1.0  0.48450  0.74584  0.55433  1.0000
  C   C2744     1.0  0.46891  0.74648  0.54746  1.0000
  H   H4851     1.0  0.46766  0.78776  0.51772  1.0000
  H   H4852     1.0  0.49568  0.78636  0.52941  1.0000
  H   H4853     1.0  0.48892  0.73428  0.56473  1.0000
  H   H4854     1.0  0.46145  0.73533  0.55254  1.0000
  C   C2745     1.0  0.47549  0.63845  0.65683  1.0000
  C   C2746     1.0  0.45929  0.64960  0.65186  1.0000
  C   C2747     1.0  0.45962  0.66725  0.64098  1.0000
  C   C2748     1.0  0.47609  0.67390  0.63518  1.0000
  C   C2749     1.0  0.49218  0.66299  0.64063  1.0000
  C   C2750     1.0  0.49192  0.64520  0.65131  1.0000
  H   H4855     1.0  0.44658  0.64446  0.65597  1.0000
  H   H4856     1.0  0.44712  0.67569  0.63684  1.0000
  H   H4857     1.0  0.50483  0.66816  0.63637  1.0000
  H   H4858     1.0  0.50449  0.63664  0.65518  1.0000
  C   C2751     1.0  0.55556  0.67072  0.55879  1.0000
  H   H4859     1.0  0.48972  0.92476  0.48534  1.0000
  H   H4860     1.0  0.41241  0.66475  0.80117  1.0000
  C   C2752     1.0  0.55685  0.59038  0.48782  1.0000
  H   H4861     1.0  0.54415  0.68195  0.56117  1.0000
  H   H4862     1.0  0.45807  0.87922  0.47620  1.0000
  H   H4863     1.0  0.44259  0.95867  0.63010  1.0000
  C   C2753     1.0  0.38590  0.68849  0.86972  1.0000
  C   C2754     1.0  0.53736  0.72106  0.77727  1.0000
  C   C2755     1.0  0.54820  0.74335  0.64420  1.0000
  H   H4864     1.0  0.42660  0.48576  0.74388  1.0000
  C   C2756     1.0  0.56990  0.66658  0.56839  1.0000
  S   S653      1.0  0.39992  0.83295  0.48864  1.0000
  H   H4865     1.0  0.42735  0.79219  0.92470  1.0000
  H   H4866     1.0  0.53837  0.83737  0.59680  1.0000
  C   C2757     1.0  0.44958  0.51946  0.66573  1.0000
  C   C2758     1.0  0.45565  0.53515  0.66616  1.0000
  H   H4867     1.0  0.50215  0.82497  0.56006  1.0000
  H   H4868     1.0  0.57102  0.87522  0.65042  1.0000
  H   H4869     1.0  0.46775  0.53887  0.65640  1.0000
  H   H4870     1.0  0.45100  0.55799  0.67966  1.0000
  H   H4871     1.0  0.55787  0.59091  0.50189  1.0000
  C   C2759     1.0  0.46741  0.62798  0.76873  1.0000
  H   H4872     1.0  0.42111  0.55284  0.65325  1.0000
  C   C2760     1.0  0.46985  0.61940  0.75391  1.0000
  C   C2761     1.0  0.55379  0.68245  0.77773  1.0000
  H   H4873     1.0  0.48365  0.61389  0.74713  1.0000
  H   H4874     1.0  0.48478  0.71974  0.65996  1.0000
  H   H4875     1.0  0.50867  0.49645  0.68392  1.0000
  H   H4876     1.0  0.50360  0.60554  0.59750  1.0000
  H   H4877     1.0  0.51314  0.94450  0.83284  1.0000
  H   H4878     1.0  0.48619  0.69910  0.56956  1.0000
  H   H4879     1.0  0.47673  0.79698  0.85869  1.0000
  H   H4880     1.0  0.50656  0.49073  0.95949  1.0000
  H   H4881     1.0  0.49086  0.71843  0.78339  1.0000
  C   C2762     1.0  0.57829  0.87338  0.61005  1.0000
  S   S654      1.0  0.42594  0.63408  0.69554  1.0000
  C   C2763     1.0  0.52652  0.68557  0.82962  1.0000
  C   C2764     1.0  0.54262  0.69040  0.83095  1.0000
  C   C2765     1.0  0.54155  0.70620  0.83764  1.0000
  C   C2766     1.0  0.52432  0.71719  0.84301  1.0000
  C   C2767     1.0  0.50824  0.71234  0.84166  1.0000
  C   C2768     1.0  0.50933  0.69656  0.83501  1.0000
  H   H4882     1.0  0.55595  0.68190  0.82683  1.0000
  H   H4883     1.0  0.55399  0.70986  0.83866  1.0000
  H   H4884     1.0  0.49490  0.72082  0.84572  1.0000
  H   H4885     1.0  0.49685  0.69301  0.83389  1.0000
  C   C2769     1.0  0.47000  0.86314  0.53505  1.0000
  C   C2770     1.0  0.45716  0.87850  0.52892  1.0000
  C   C2771     1.0  0.44303  0.87653  0.52134  1.0000
  C   C2772     1.0  0.44154  0.85915  0.51987  1.0000
  C   C2773     1.0  0.45437  0.84366  0.52598  1.0000
  C   C2774     1.0  0.46865  0.84569  0.53345  1.0000
  H   H4886     1.0  0.45830  0.89197  0.52969  1.0000
  H   H4887     1.0  0.43330  0.88856  0.51640  1.0000
  H   H4888     1.0  0.45340  0.83019  0.52473  1.0000
  H   H4889     1.0  0.47879  0.83378  0.53776  1.0000
  H   H4890     1.0  0.42486  0.88540  0.58782  1.0000
  H   H4891     1.0  0.40596  0.78607  0.89284  1.0000
  C   C2775     1.0  0.53734  0.94246  0.61207  1.0000
  C   C2776     1.0  0.55402  0.93243  0.60387  1.0000
  C   C2777     1.0  0.55427  0.92301  0.59019  1.0000
  C   C2778     1.0  0.53785  0.92344  0.58481  1.0000
  C   C2779     1.0  0.52119  0.93328  0.59319  1.0000
  C   C2780     1.0  0.52097  0.94281  0.60669  1.0000
  H   H4892     1.0  0.49482  0.48117  0.71414  1.0000
  H   H4893     1.0  0.56720  0.91541  0.58375  1.0000
  H   H4894     1.0  0.50844  0.93355  0.58928  1.0000
  H   H4895     1.0  0.50806  0.95052  0.61299  1.0000
  C   C2781     1.0  0.58167  0.73848  0.63584  1.0000
  H   H4896     1.0  0.47544  0.68339  0.56397  1.0000
  H   H4897     1.0  0.52643  0.78027  0.92158  1.0000
  C   C2782     1.0  0.57050  0.72172  0.76938  1.0000
  H   H4898     1.0  0.39832  0.72012  0.92162  1.0000
  C   C2783     1.0  0.40066  0.70565  0.84092  1.0000
  C   C2784     1.0  0.53315  0.64213  0.59724  1.0000
  H   H4899     1.0  0.56731  0.73662  0.76972  1.0000
  C   C2785     1.0  0.49043  0.55181  0.87905  1.0000
  C   C2786     1.0  0.47383  0.55940  0.88957  1.0000
  C   C2787     1.0  0.46723  0.57836  0.88627  1.0000
  C   C2788     1.0  0.47687  0.58991  0.87207  1.0000
  C   C2789     1.0  0.49330  0.58239  0.86106  1.0000
  C   C2790     1.0  0.50025  0.56327  0.86475  1.0000
  H   H4900     1.0  0.46619  0.55060  0.90060  1.0000
  H   H4901     1.0  0.45456  0.58412  0.89482  1.0000
  H   H4902     1.0  0.50085  0.59133  0.85014  1.0000
  H   H4903     1.0  0.51295  0.55734  0.85640  1.0000
  H   H4904     1.0  0.41957  0.47701  0.58387  1.0000
  C   C2791     1.0  0.55971  0.62402  0.47654  1.0000
  H   H4905     1.0  0.51310  0.64411  0.86522  1.0000
  C   C2792     1.0  0.45545  0.77588  0.92242  1.0000
  H   H4906     1.0  0.48641  0.50768  0.67852  1.0000
  C   C2793     1.0  0.56505  0.94120  0.96212  1.0000
  H   H4907     1.0  0.41429  0.57380  0.66168  1.0000
  C   C2794     1.0  0.43663  0.62470  0.75670  1.0000
  H   H4908     1.0  0.53372  0.62217  0.88429  1.0000
  C   C2795     1.0  0.45450  0.61772  0.74793  1.0000
  H   H4909     1.0  0.45649  0.61098  0.73656  1.0000
  H   H4910     1.0  0.57097  0.82532  0.77987  1.0000
  S   S655      1.0  0.57730  0.48484  0.86952  1.0000
  C   C2796     1.0  0.43752  0.78506  0.93360  1.0000
  C   C2797     1.0  0.52193  0.93986  0.48391  1.0000
  C   C2798     1.0  0.50661  0.95434  0.48356  1.0000
  H   H4911     1.0  0.52302  0.92959  0.49631  1.0000
  C   C2799     1.0  0.56259  0.83831  0.89897  1.0000
  C   C2800     1.0  0.57281  0.82887  0.88497  1.0000
  C   C2801     1.0  0.56523  0.81650  0.87969  1.0000
  C   C2802     1.0  0.54755  0.81343  0.88860  1.0000
  C   C2803     1.0  0.53761  0.82252  0.90286  1.0000
  C   C2804     1.0  0.54504  0.83501  0.90795  1.0000
  C   C2805     1.0  0.46001  0.96936  0.81777  1.0000
  H   H4912     1.0  0.54830  0.94670  0.83898  1.0000
  H   H4913     1.0  0.52397  0.82018  0.90986  1.0000
  H   H4914     1.0  0.53725  0.84194  0.91902  1.0000
  H   H4915     1.0  0.45826  0.49823  0.70058  1.0000
  H   H4916     1.0  0.44461  0.57214  0.64103  1.0000
  H   H4917     1.0  0.38574  0.92908  0.52575  1.0000
  Fe  Fe325     1.0  0.38664  0.81193  0.93679  1.0000
  C   C2806     1.0  0.47285  0.86851  0.94528  1.0000
  C   C2807     1.0  0.48328  0.85599  0.93428  1.0000
  C   C2808     1.0  0.47447  0.84542  0.92799  1.0000
  C   C2809     1.0  0.45521  0.84731  0.93268  1.0000
  C   C2810     1.0  0.44479  0.85948  0.94407  1.0000
  C   C2811     1.0  0.45362  0.86998  0.95045  1.0000
  H   H4918     1.0  0.49814  0.85445  0.93061  1.0000
  H   H4919     1.0  0.48263  0.83586  0.91937  1.0000
  H   H4920     1.0  0.42993  0.86092  0.94786  1.0000
  H   H4921     1.0  0.52204  0.55063  0.89377  1.0000
  C   C2812     1.0  0.47182  0.87144  0.47049  1.0000
  Fe  Fe326     1.0  0.56130  0.95335  0.64033  1.0000
  H   H4922     1.0  0.50242  0.67410  0.59038  1.0000
  N   N152      1.0  0.50386  0.63467  0.59082  1.0000
  H   H4923     1.0  0.54027  0.59555  0.84666  1.0000
  H   H4924     1.0  0.54469  0.66346  0.53878  1.0000
  H   H4925     1.0  0.58230  0.67124  0.88264  1.0000
  H   H4926     1.0  0.40276  0.70100  0.91043  1.0000
  H   H4927     1.0  0.42265  0.77036  0.90534  1.0000
  H   H4928     1.0  0.54806  0.58041  0.48904  1.0000
  C   C2813     1.0  0.50732  0.94497  0.86176  1.0000
  H   H4929     1.0  0.42486  0.93273  0.50570  1.0000
  H   H4930     1.0  0.50707  0.70373  0.79687  1.0000
  H   H4931     1.0  0.42898  0.50291  0.67799  1.0000
  C   C2814     1.0  0.57065  0.82974  0.73465  1.0000
  H   H4932     1.0  0.58367  0.71944  0.75922  1.0000
  Fe  Fe327     1.0  0.58316  0.93134  0.66955  1.0000
  C   C2815     1.0  0.42499  0.94427  0.58327  1.0000
  C   C2816     1.0  0.40786  0.94435  0.59536  1.0000
  C   C2817     1.0  0.46204  0.93777  0.48290  1.0000
  C   C2818     1.0  0.55210  0.58458  0.85033  1.0000
  S   S656      1.0  0.45630  0.64256  0.82305  1.0000
  H   H4933     1.0  0.45482  0.48237  0.76935  1.0000
  H   H4934     1.0  0.46471  0.95197  0.47886  1.0000
  C   C2819     1.0  0.41957  0.72089  0.87945  1.0000
  H   H4935     1.0  0.54436  0.85953  0.50557  1.0000
  C   C2820     1.0  0.41989  0.76177  0.88119  1.0000
  C   C2821     1.0  0.43346  0.72449  0.86086  1.0000
  C   C2822     1.0  0.45101  0.70955  0.86037  1.0000
  C   C2823     1.0  0.41968  0.77663  0.89139  1.0000
  H   H4936     1.0  0.39366  0.73479  0.85894  1.0000
  H   H4937     1.0  0.42728  0.71733  0.89084  1.0000
  C   C2824     1.0  0.39802  0.53022  0.65304  1.0000
  H   H4938     1.0  0.56316  0.96322  0.83013  1.0000
  H   H4939     1.0  0.41169  0.74204  0.90507  1.0000
  H   H4940     1.0  0.56379  0.59082  0.85013  1.0000
  H   H4941     1.0  0.43413  0.75350  0.87925  1.0000
  H   H4942     1.0  0.54730  0.94840  0.87094  1.0000
  C   C2825     1.0  0.38742  0.72665  0.89596  1.0000
  H   H4943     1.0  0.55775  0.68347  0.79031  1.0000
  H   H4944     1.0  0.43753  0.73792  0.85808  1.0000
  H   H4945     1.0  0.45850  0.70962  0.87104  1.0000
  H   H4946     1.0  0.44757  0.69579  0.86262  1.0000
  H   H4947     1.0  0.46029  0.71203  0.84666  1.0000
  C   C2826     1.0  0.48667  0.48469  0.91759  1.0000
  H   H4948     1.0  0.41571  0.64154  0.81421  1.0000
  H   H4949     1.0  0.39147  0.89385  0.96011  1.0000
  C   C2827     1.0  0.58196  0.74797  0.64920  1.0000
  H   H4950     1.0  0.44752  0.64189  0.78872  1.0000
  H   H4951     1.0  0.42716  0.72428  0.84933  1.0000
  H   H4952     1.0  0.56670  0.93213  0.60790  1.0000
  C   C2828     1.0  0.44954  0.63500  0.77748  1.0000
  H   H4953     1.0  0.40274  0.66300  0.88072  1.0000
  C   C2829     1.0  0.43418  0.63329  0.77152  1.0000
  C   C2830     1.0  0.43066  0.54108  0.69202  1.0000
  H   H4954     1.0  0.41536  0.70797  0.87932  1.0000
  H   H4955     1.0  0.46568  0.95983  0.82943  1.0000
  H   H4956     1.0  0.57550  0.82164  0.93933  1.0000
  H   H4957     1.0  0.42997  0.66618  0.85519  1.0000
  C   C2831     1.0  0.43195  0.89196  0.57413  1.0000
  H   H4958     1.0  0.49984  0.94978  0.88944  1.0000
  S   S657      1.0  0.55856  0.48228  0.82587  1.0000
  H   H4959     1.0  0.53791  0.71170  0.79084  1.0000
  C   C2832     1.0  0.52019  0.63028  0.53901  1.0000
  H   H4960     1.0  0.56245  0.81193  0.71131  1.0000
  C   C2833     1.0  0.51908  0.55942  0.90407  1.0000
  H   H4961     1.0  0.52591  0.87299  0.51933  1.0000
  H   H4962     1.0  0.53423  0.57305  0.91534  1.0000
  H   H4963     1.0  0.50683  0.57038  0.90171  1.0000
  H   H4964     1.0  0.54469  0.85710  0.75192  1.0000
  H   H4965     1.0  0.42037  0.63877  0.77830  1.0000
  C   C2834     1.0  0.54604  0.57253  0.86932  1.0000
  N   N153      1.0  0.46337  0.89461  0.88503  1.0000
  C   C2835     1.0  0.44986  0.88269  0.88628  1.0000
  C   C2836     1.0  0.48229  0.88283  0.88659  1.0000
  C   C2837     1.0  0.45647  0.90419  0.90120  1.0000
  C   C2838     1.0  0.46453  0.90916  0.86763  1.0000
  C   C2839     1.0  0.42953  0.89261  0.88601  1.0000
  C   C2840     1.0  0.46942  0.91554  0.90406  1.0000
  C   C2841     1.0  0.48784  0.86480  0.87895  1.0000
  C   C2842     1.0  0.50798  0.85574  0.87934  1.0000
  C   C2843     1.0  0.41775  0.87908  0.88616  1.0000
  C   C2844     1.0  0.46057  0.92459  0.92070  1.0000
  H   H4966     1.0  0.44972  0.87205  0.89923  1.0000
  H   H4967     1.0  0.45424  0.87489  0.87502  1.0000
  H   H4968     1.0  0.49326  0.89106  0.88011  1.0000
  H   H4969     1.0  0.48351  0.87823  0.90127  1.0000
  H   H4970     1.0  0.45361  0.89393  0.91424  1.0000
  H   H4971     1.0  0.44318  0.91397  0.89994  1.0000
  H   H4972     1.0  0.45127  0.91931  0.86767  1.0000
  H   H4973     1.0  0.47502  0.91725  0.86692  1.0000
  H   H4974     1.0  0.42326  0.89869  0.89841  1.0000
  H   H4975     1.0  0.42857  0.90357  0.87351  1.0000
  H   H4976     1.0  0.47218  0.92671  0.89199  1.0000
  H   H4977     1.0  0.48283  0.90670  0.90653  1.0000
  H   H4978     1.0  0.47930  0.85476  0.88761  1.0000
  H   H4979     1.0  0.51153  0.84267  0.87427  1.0000
  H   H4980     1.0  0.51735  0.86493  0.87051  1.0000
  H   H4981     1.0  0.51020  0.85256  0.89365  1.0000
  H   H4982     1.0  0.44840  0.52897  0.76036  1.0000
  S   S658      1.0  0.40144  0.81627  0.95679  1.0000
  H   H4983     1.0  0.41812  0.86789  0.89859  1.0000
  H   H4984     1.0  0.45832  0.91397  0.93347  1.0000
  H   H4985     1.0  0.46981  0.93291  0.92238  1.0000
  H   H4986     1.0  0.44714  0.93382  0.91886  1.0000
  C   C2845     1.0  0.49749  0.79015  0.91986  1.0000
  H   H4987     1.0  0.53387  0.79151  0.55606  1.0000
  H   H4988     1.0  0.47735  0.82840  0.84081  1.0000
  H   H4989     1.0  0.42724  0.90343  0.54685  1.0000
  H   H4990     1.0  0.55268  0.84956  0.63985  1.0000
  C   C2846     1.0  0.40616  0.74930  0.89250  1.0000
  H   H4991     1.0  0.44031  0.79518  0.94018  1.0000
  H   H4992     1.0  0.50749  0.66921  0.56756  1.0000
  N   N154      1.0  0.54650  0.86515  0.61344  1.0000
  H   H4993     1.0  0.55343  0.59444  0.90045  1.0000
  C   C2847     1.0  0.53296  0.86522  0.60200  1.0000
  C   C2848     1.0  0.53837  0.88076  0.62368  1.0000
  C   C2849     1.0  0.54924  0.84731  0.62736  1.0000
  Fe  Fe328     1.0  0.58032  0.76377  0.83308  1.0000
  C   C2850     1.0  0.51861  0.88096  0.63551  1.0000
  C   C2851     1.0  0.53891  0.85152  0.58877  1.0000
  C   C2852     1.0  0.52580  0.85598  0.57536  1.0000
  H   H4994     1.0  0.55839  0.62512  0.49110  1.0000
  C   C2853     1.0  0.51334  0.89558  0.64733  1.0000
  N   N155      1.0  0.56702  0.96755  0.88335  1.0000
  H   H4995     1.0  0.51977  0.86204  0.61096  1.0000
  H   H4996     1.0  0.52927  0.87928  0.59371  1.0000
  H   H4997     1.0  0.53799  0.89421  0.61386  1.0000
  H   H4998     1.0  0.54726  0.88075  0.63316  1.0000
  H   H4999     1.0  0.57511  0.69318  0.75599  1.0000
  H   H5000     1.0  0.53607  0.84221  0.63247  1.0000
  C   C2854     1.0  0.57514  0.71084  0.78815  1.0000
  H   H5001     1.0  0.51754  0.86743  0.64477  1.0000
  H   H5002     1.0  0.50832  0.88447  0.62654  1.0000
  H   H5003     1.0  0.42814  0.59073  0.63104  1.0000
  H   H5004     1.0  0.48809  0.49196  0.90297  1.0000
  C   C2855     1.0  0.39293  0.96753  0.57281  1.0000
  C   C2856     1.0  0.56395  0.97001  0.86409  1.0000
  H   H5005     1.0  0.52959  0.84542  0.56673  1.0000
  H   H5006     1.0  0.49764  0.66791  0.46876  1.0000
  H   H5007     1.0  0.52273  0.89252  0.65716  1.0000
  H   H5008     1.0  0.51410  0.90941  0.63849  1.0000
  H   H5009     1.0  0.49898  0.89586  0.65530  1.0000
  H   H5010     1.0  0.48393  0.72122  0.89413  1.0000
  Fe  Fe329     1.0  0.45976  0.67081  0.82276  1.0000
  H   H5011     1.0  0.52762  0.86785  0.48027  1.0000
  C   C2857     1.0  0.51543  0.63391  0.60452  1.0000
  C   C2858     1.0  0.39525  0.51267  0.64896  1.0000
  C   C2859     1.0  0.48216  0.61762  0.61808  1.0000
  H   H5012     1.0  0.56368  0.86663  0.72017  1.0000
  C   C2860     1.0  0.54212  0.64190  0.61306  1.0000
  C   C2861     1.0  0.47259  0.60118  0.62388  1.0000
  H   H5013     1.0  0.50683  0.64068  0.61590  1.0000
  H   H5014     1.0  0.52038  0.61936  0.61110  1.0000
  H   H5015     1.0  0.40694  0.93551  0.60885  1.0000
  H   H5016     1.0  0.48134  0.65440  0.60288  1.0000
  H   H5017     1.0  0.47122  0.63008  0.61942  1.0000
  H   H5018     1.0  0.49104  0.61591  0.62809  1.0000
  C   C2862     1.0  0.47164  0.82245  0.58828  1.0000
  S   S659      1.0  0.40062  0.83018  0.91247  1.0000
  H   H5019     1.0  0.55557  0.64631  0.60745  1.0000
  H   H5020     1.0  0.53318  0.65153  0.62184  1.0000
  H   H5021     1.0  0.48293  0.58813  0.62348  1.0000
  H   H5022     1.0  0.46456  0.60067  0.63823  1.0000
  Fe  Fe330     1.0  0.40598  0.62163  0.68785  1.0000
  N   N156      1.0  0.47957  0.80248  0.58759  1.0000
  C   C2863     1.0  0.50020  0.79904  0.58039  1.0000
  C   C2864     1.0  0.47493  0.79024  0.60635  1.0000
  C   C2865     1.0  0.47078  0.79725  0.57452  1.0000
  C   C2866     1.0  0.50712  0.80997  0.56090  1.0000
  C   C2867     1.0  0.44947  0.79890  0.57995  1.0000
  C   C2868     1.0  0.44252  0.79116  0.56701  1.0000
  H   H5023     1.0  0.50545  0.78416  0.58023  1.0000
  C   C2869     1.0  0.38615  0.76356  0.47268  1.0000
  H   H5024     1.0  0.46140  0.79641  0.61423  1.0000
  H   H5025     1.0  0.47310  0.77672  0.60485  1.0000
  H   H5026     1.0  0.47712  0.78284  0.57289  1.0000
  H   H5027     1.0  0.47341  0.80595  0.56054  1.0000
  H   H5028     1.0  0.47257  0.83100  0.57411  1.0000
  H   H5029     1.0  0.50253  0.80573  0.55024  1.0000
  H   H5030     1.0  0.44240  0.81354  0.57894  1.0000
  H   H5031     1.0  0.44510  0.79133  0.59415  1.0000
  H   H5032     1.0  0.48593  0.86711  0.86467  1.0000
  H   H5033     1.0  0.47782  0.76209  0.63748  1.0000
  H   H5034     1.0  0.44854  0.77626  0.56800  1.0000
  H   H5035     1.0  0.42724  0.79286  0.57086  1.0000
  H   H5036     1.0  0.44621  0.79851  0.55254  1.0000
  C   C2870     1.0  0.50409  0.88772  0.49223  1.0000
  H   H5037     1.0  0.44623  0.96733  0.85391  1.0000
  C   C2871     1.0  0.42597  0.95516  0.56556  1.0000
  C   C2872     1.0  0.53317  0.87197  0.50500  1.0000
  H   H5038     1.0  0.49487  0.88745  0.50608  1.0000
  H   H5039     1.0  0.40603  0.91233  0.52825  1.0000
  H   H5040     1.0  0.43712  0.97293  0.64654  1.0000
  H   H5041     1.0  0.47998  0.86771  0.49637  1.0000
  C   C2873     1.0  0.39192  0.95607  0.59022  1.0000
  C   C2874     1.0  0.46951  0.85187  0.47187  1.0000
  H   H5042     1.0  0.41422  0.66032  0.82505  1.0000
  C   C2875     1.0  0.48624  0.87165  0.48154  1.0000
  C   C2876     1.0  0.56954  0.76325  0.91885  1.0000
  H   H5043     1.0  0.48778  0.96971  0.80120  1.0000
  H   H5044     1.0  0.46969  0.68788  0.58705  1.0000
  S   S660      1.0  0.54574  0.93437  0.93959  1.0000
  H   H5045     1.0  0.51627  0.59853  0.89851  1.0000
  H   H5046     1.0  0.57146  0.90018  0.94958  1.0000
  S   S661      1.0  0.57808  0.73419  0.84461  1.0000
  C   C2877     1.0  0.49408  0.49508  0.68627  1.0000
  H   H5047     1.0  0.47360  0.91310  0.81990  1.0000
  H   H5048     1.0  0.50756  0.80203  0.58973  1.0000
  C   C2878     1.0  0.48265  0.76856  0.88584  1.0000
  N   N157      1.0  0.47585  0.57057  0.81324  1.0000
  C   C2879     1.0  0.48139  0.55430  0.82795  1.0000
  C   C2880     1.0  0.46451  0.58624  0.82238  1.0000
  C   C2881     1.0  0.46499  0.56484  0.80244  1.0000
  C   C2882     1.0  0.49253  0.57691  0.80023  1.0000
  C   C2883     1.0  0.50685  0.58062  0.80941  1.0000
  C   C2884     1.0  0.49509  0.53756  0.82103  1.0000
  C   C2885     1.0  0.45647  0.58027  0.78776  1.0000
  C   C2886     1.0  0.44540  0.58331  0.83436  1.0000
  C   C2887     1.0  0.43510  0.60023  0.84244  1.0000
  C   C2888     1.0  0.52332  0.58650  0.79502  1.0000
  C   C2889     1.0  0.50142  0.52296  0.83707  1.0000
  C   C2890     1.0  0.44475  0.57308  0.77869  1.0000
  H   H5049     1.0  0.46904  0.54899  0.83663  1.0000
  H   H5050     1.0  0.48729  0.55853  0.83768  1.0000
  H   H5051     1.0  0.47213  0.58911  0.83163  1.0000
  H   H5052     1.0  0.46240  0.59928  0.81199  1.0000
  H   H5053     1.0  0.45378  0.55813  0.81185  1.0000
  H   H5054     1.0  0.47397  0.55412  0.79488  1.0000
  H   H5055     1.0  0.49980  0.56697  0.79110  1.0000
  H   H5056     1.0  0.48816  0.58996  0.79065  1.0000
  H   H5057     1.0  0.51236  0.56822  0.81903  1.0000
  H   H5058     1.0  0.50051  0.59182  0.81713  1.0000
  H   H5059     1.0  0.48840  0.53103  0.81376  1.0000
  H   H5060     1.0  0.50769  0.54151  0.81154  1.0000
  H   H5061     1.0  0.46759  0.58544  0.77676  1.0000
  H   H5062     1.0  0.44749  0.59198  0.79377  1.0000
  H   H5063     1.0  0.43650  0.58080  0.82620  1.0000
  H   H5064     1.0  0.44701  0.57151  0.84606  1.0000
  H   H5065     1.0  0.44316  0.60318  0.85120  1.0000
  H   H5066     1.0  0.43258  0.61240  0.83127  1.0000
  H   H5067     1.0  0.42157  0.59777  0.85111  1.0000
  H   H5068     1.0  0.53315  0.58934  0.80197  1.0000
  H   H5069     1.0  0.53063  0.57545  0.78726  1.0000
  H   H5070     1.0  0.51870  0.59925  0.78525  1.0000
  H   H5071     1.0  0.51069  0.51086  0.83189  1.0000
  H   H5072     1.0  0.50925  0.52854  0.84408  1.0000
  H   H5073     1.0  0.48942  0.51835  0.84722  1.0000
  H   H5074     1.0  0.43896  0.58431  0.76811  1.0000
  H   H5075     1.0  0.45325  0.56172  0.77181  1.0000
  H   H5076     1.0  0.43304  0.56815  0.78906  1.0000
  C   C2891     1.0  0.51477  0.47749  0.95722  1.0000
  H   H5077     1.0  0.50006  0.81685  0.84489  1.0000
  S   S662      1.0  0.44514  0.59150  0.71280  1.0000
  Fe  Fe331     1.0  0.57181  0.97290  0.66484  1.0000
  S   S663      1.0  0.56948  0.67878  0.58524  1.0000
  C   C2892     1.0  0.39251  0.71340  0.91378  1.0000
  C   C2893     1.0  0.53636  0.56731  0.90278  1.0000
  H   H5078     1.0  0.43223  0.50455  0.76023  1.0000
  C   C2894     1.0  0.43590  0.48512  0.73029  1.0000
  C   C2895     1.0  0.57079  0.64572  0.54258  1.0000
  H   H5079     1.0  0.45362  0.79475  0.89693  1.0000
  H   H5080     1.0  0.53384  0.81066  0.56595  1.0000
  N   N158      1.0  0.47326  0.66608  0.70538  1.0000
  C   C2896     1.0  0.45315  0.67226  0.70399  1.0000
  C   C2897     1.0  0.48529  0.67637  0.68917  1.0000
  C   C2898     1.0  0.47880  0.64596  0.70438  1.0000
  C   C2899     1.0  0.47648  0.66798  0.72341  1.0000
  C   C2900     1.0  0.46900  0.68703  0.72872  1.0000
  C   C2901     1.0  0.43919  0.66300  0.71985  1.0000
  C   C2902     1.0  0.49922  0.63683  0.70544  1.0000
  C   C2903     1.0  0.47685  0.69642  0.68075  1.0000
  H   H5081     1.0  0.56074  0.51972  0.54013  1.0000
  C   C2904     1.0  0.47111  0.68617  0.74828  1.0000
  C   C2905     1.0  0.41928  0.67232  0.71838  1.0000
  C   C2906     1.0  0.50382  0.61712  0.70239  1.0000
  H   H5082     1.0  0.45130  0.66991  0.69081  1.0000
  H   H5083     1.0  0.44850  0.68727  0.70333  1.0000
  H   H5084     1.0  0.49851  0.67653  0.69276  1.0000
  H   H5085     1.0  0.48945  0.66912  0.67738  1.0000
  H   H5086     1.0  0.47598  0.64386  0.69156  1.0000
  H   H5087     1.0  0.47034  0.63770  0.71578  1.0000
  H   H5088     1.0  0.47074  0.65752  0.73493  1.0000
  H   H5089     1.0  0.49152  0.66481  0.72342  1.0000
  H   H5090     1.0  0.45414  0.69200  0.72836  1.0000
  H   H5091     1.0  0.47698  0.69715  0.71930  1.0000
  H   H5092     1.0  0.44082  0.64839  0.71931  1.0000
  H   H5093     1.0  0.44099  0.66370  0.73356  1.0000
  H   H5094     1.0  0.50173  0.63614  0.71928  1.0000
  H   H5095     1.0  0.50898  0.64454  0.69496  1.0000
  H   H5096     1.0  0.46551  0.69649  0.67400  1.0000
  H   H5097     1.0  0.47123  0.70502  0.69130  1.0000
  H   H5098     1.0  0.57288  0.78082  0.94837  1.0000
  H   H5099     1.0  0.46505  0.76922  0.93196  1.0000
  H   H5100     1.0  0.47557  0.95908  0.63086  1.0000
  H   H5101     1.0  0.46597  0.70000  0.75180  1.0000
  H   H5102     1.0  0.46298  0.67650  0.75842  1.0000
  H   H5103     1.0  0.48585  0.68156  0.74949  1.0000
  H   H5104     1.0  0.40964  0.66473  0.72924  1.0000
  H   H5105     1.0  0.41639  0.68671  0.72033  1.0000
  H   H5106     1.0  0.41668  0.67230  0.70475  1.0000
  H   H5107     1.0  0.50363  0.61706  0.68798  1.0000
  H   H5108     1.0  0.51786  0.61039  0.70493  1.0000
  H   H5109     1.0  0.49376  0.60902  0.71188  1.0000
  H   H5110     1.0  0.40880  0.47630  0.71722  1.0000
  H   H5111     1.0  0.52186  0.70900  0.76398  1.0000
  H   H5112     1.0  0.49366  0.48310  0.68081  1.0000
  H   H5113     1.0  0.40673  0.75179  0.85509  1.0000
  C   C2907     1.0  0.56220  0.66309  0.77413  1.0000
  H   H5114     1.0  0.53856  0.68388  0.78075  1.0000
  S   S664      1.0  0.39168  0.86062  0.93884  1.0000
  H   H5115     1.0  0.43916  0.95510  0.55609  1.0000
  H   H5116     1.0  0.51344  0.96283  0.91513  1.0000
  H   H5117     1.0  0.55293  0.85185  0.58026  1.0000
  H   H5118     1.0  0.43538  0.56937  0.62266  1.0000
  C   C2908     1.0  0.56239  0.92804  0.95365  1.0000
  H   H5119     1.0  0.48517  0.73770  0.87272  1.0000
  H   H5120     1.0  0.39479  0.97199  0.62761  1.0000
  N   N159      1.0  0.45472  0.48838  0.72998  1.0000
  H   H5121     1.0  0.56385  0.81475  0.64883  1.0000
  C   C2909     1.0  0.55989  0.50326  0.56850  1.0000
  H   H5122     1.0  0.56469  0.72886  0.62300  1.0000
  H   H5123     1.0  0.57490  0.53859  0.49744  1.0000
  H   H5124     1.0  0.57056  0.94194  0.85879  1.0000
  C   C2910     1.0  0.55871  0.50590  0.54805  1.0000
  H   H5125     1.0  0.50222  0.95713  0.74004  1.0000
  C   C2911     1.0  0.56467  0.83131  0.62107  1.0000
  N   N160      1.0  0.38766  0.91684  0.55405  1.0000
  H   H5126     1.0  0.39734  0.96474  0.66039  1.0000
  C   C2912     1.0  0.53987  0.50367  0.54645  1.0000
  H   H5127     1.0  0.56318  0.51440  0.59732  1.0000
  H   H5128     1.0  0.57512  0.80225  0.63072  1.0000
  H   H5129     1.0  0.39869  0.52733  0.66778  1.0000
  H   H5130     1.0  0.55660  0.95487  0.96030  1.0000
  H   H5131     1.0  0.54784  0.51253  0.57526  1.0000
  H   H5132     1.0  0.46576  0.84499  0.48649  1.0000
  C   C2913     1.0  0.54307  0.82881  0.77748  1.0000
  C   C2914     1.0  0.56431  0.86922  0.60079  1.0000
  N   N161      1.0  0.40262  0.73578  0.88309  1.0000
  H   H5133     1.0  0.42907  0.49637  0.72041  1.0000
  C   C2915     1.0  0.41929  0.89735  0.56024  1.0000
  H   H5134     1.0  0.45105  0.93720  0.47605  1.0000
  C   C2916     1.0  0.40209  0.67492  0.86959  1.0000
  C   C2917     1.0  0.50375  0.71754  0.78809  1.0000
  C   C2918     1.0  0.57335  0.91040  0.95608  1.0000
  C   C2919     1.0  0.56524  0.77200  0.77234  1.0000
  H   H5135     1.0  0.47895  0.74653  0.91104  1.0000
  H   H5136     1.0  0.46406  0.73899  0.88994  1.0000
  H   H5137     1.0  0.56284  0.76994  0.80139  1.0000
  H   H5138     1.0  0.44553  0.87949  0.95918  1.0000
  C   C2920     1.0  0.57003  0.72887  0.72933  1.0000
  H   H5139     1.0  0.52557  0.53587  0.92594  1.0000
  H   H5140     1.0  0.53939  0.80064  0.78898  1.0000
  H   H5141     1.0  0.58367  0.64000  0.48340  1.0000
  C   C2921     1.0  0.51274  0.78226  0.93098  1.0000
  C   C2922     1.0  0.58485  0.65218  0.56475  1.0000
  C   C2923     1.0  0.53790  0.81353  0.79378  1.0000
  H   H5142     1.0  0.53722  0.48986  0.55398  1.0000
  H   H5143     1.0  0.57331  0.88719  0.61366  1.0000
  H   H5144     1.0  0.56279  0.71147  0.79939  1.0000
  H   H5145     1.0  0.41144  0.53298  0.64442  1.0000
  H   H5146     1.0  0.47957  0.92691  0.83252  1.0000
  H   H5147     1.0  0.50293  0.70619  0.67169  1.0000
  C   C2924     1.0  0.46960  0.91839  0.83288  1.0000
  C   C2925     1.0  0.49367  0.61890  0.59805  1.0000
  H   H5148     1.0  0.56100  0.48137  0.60365  1.0000
  C   C2926     1.0  0.48103  0.68606  0.57490  1.0000
  S   S665      1.0  0.56814  0.77493  0.73555  1.0000
  H   H5149     1.0  0.52635  0.61866  0.57446  1.0000
  H   H5150     1.0  0.45662  0.82440  0.59439  1.0000
  H   H5151     1.0  0.40572  0.92353  0.56813  1.0000
  H   H5152     1.0  0.51130  0.85629  0.58290  1.0000
  Fe  Fe332     1.0  0.58099  0.74023  0.87092  1.0000
  C   C2927     1.0  0.56402  0.82481  0.76887  1.0000
  H   H5153     1.0  0.50343  0.79531  0.87434  1.0000
  H   H5154     1.0  0.53280  0.81431  0.54202  1.0000
  H   H5155     1.0  0.53963  0.50502  0.53172  1.0000
  H   H5156     1.0  0.47204  0.48345  0.92329  1.0000
  H   H5157     1.0  0.55682  0.55985  0.87131  1.0000
  H   H5158     1.0  0.46718  0.90575  0.47068  1.0000
  H   H5159     1.0  0.51058  0.76895  0.94021  1.0000
  H   H5160     1.0  0.38541  0.64800  0.83455  1.0000
  H   H5161     1.0  0.57177  0.90196  0.66243  1.0000
  S   S666      1.0  0.58071  0.49970  0.49945  1.0000
  Fe  Fe333     1.0  0.44747  0.61111  0.68538  1.0000
  H   H5162     1.0  0.41594  0.95637  0.62177  1.0000
  C   C2928     1.0  0.56482  0.73621  0.63329  1.0000
  H   H5163     1.0  0.54679  0.81096  0.80401  1.0000
  H   H5164     1.0  0.53733  0.88864  0.73427  1.0000
  H   H5165     1.0  0.40487  0.92991  0.64449  1.0000
  H   H5166     1.0  0.57458  0.61811  0.47186  1.0000
  H   H5167     1.0  0.45203  0.76523  0.91708  1.0000
  H   H5168     1.0  0.50130  0.72820  0.79641  1.0000
  H   H5169     1.0  0.39294  0.75832  0.89761  1.0000
  H   H5170     1.0  0.57283  0.80971  0.86848  1.0000
  H   H5171     1.0  0.54470  0.62786  0.62162  1.0000
  H   H5172     1.0  0.40173  0.56979  0.62783  1.0000
  C   C2929     1.0  0.40153  0.91125  0.56641  1.0000
  H   H5173     1.0  0.53949  0.88422  0.49848  1.0000
  H   H5174     1.0  0.57460  0.93782  0.88801  1.0000
  C   C2930     1.0  0.50284  0.97211  0.83758  1.0000
  N   N162      1.0  0.48278  0.78334  0.89571  1.0000
  C   C2931     1.0  0.57805  0.87320  0.66156  1.0000
  H   H5175     1.0  0.57080  0.58536  0.47999  1.0000
  S   S667      1.0  0.53301  0.48490  0.87692  1.0000
  C   C2932     1.0  0.55824  0.57321  0.83528  1.0000
  C   C2933     1.0  0.47937  0.73584  0.88773  1.0000
  C   C2934     1.0  0.57571  0.57412  0.88880  1.0000
  H   H5176     1.0  0.53413  0.61320  0.48591  1.0000
  H   H5177     1.0  0.53946  0.84177  0.78275  1.0000
  H   H5178     1.0  0.56795  0.81022  0.76725  1.0000
  H   H5179     1.0  0.52328  0.81754  0.80069  1.0000
  H   H5180     1.0  0.53398  0.56767  0.86812  1.0000
  H   H5181     1.0  0.56447  0.96567  0.70677  1.0000
  H   H5182     1.0  0.55749  0.48917  0.57506  1.0000
  C   C2935     1.0  0.39829  0.57290  0.64189  1.0000
  H   H5183     1.0  0.47926  0.65138  0.58150  1.0000
  H   H5184     1.0  0.55859  0.75371  0.71121  1.0000
  H   H5185     1.0  0.44208  0.95855  0.88809  1.0000
  H   H5186     1.0  0.57724  0.94973  0.91675  1.0000
  C   C2936     1.0  0.55591  0.66021  0.54605  1.0000
  H   H5187     1.0  0.48455  0.89441  0.84766  1.0000
  N   N163      1.0  0.54125  0.58159  0.88570  1.0000
  C   C2937     1.0  0.52846  0.47639  0.94117  1.0000
  C   C2938     1.0  0.38793  0.65735  0.82095  1.0000
  C   C2939     1.0  0.43205  0.57554  0.63505  1.0000
  H   H5188     1.0  0.57672  0.97266  0.85381  1.0000
  H   H5189     1.0  0.57901  0.87319  0.73079  1.0000
  H   H5190     1.0  0.57405  0.56227  0.90038  1.0000
  H   H5191     1.0  0.51499  0.59399  0.87743  1.0000
  H   H5192     1.0  0.55030  0.80888  0.63565  1.0000
  C   C2940     1.0  0.47012  0.90227  0.84931  1.0000
  H   H5193     1.0  0.46074  0.89364  0.84858  1.0000
  H   H5194     1.0  0.46921  0.78385  0.64498  1.0000
  H   H5195     1.0  0.57848  0.83424  0.61998  1.0000
  C   C2941     1.0  0.55738  0.58843  0.88784  1.0000
  C   C2942     1.0  0.40703  0.93953  0.53114  1.0000
  C   C2943     1.0  0.44620  0.54597  0.67930  1.0000
  C   C2944     1.0  0.52455  0.59715  0.88450  1.0000
  C   C2945     1.0  0.51025  0.63010  0.87140  1.0000
  H   H5196     1.0  0.49973  0.63068  0.88435  1.0000
  C   C2946     1.0  0.48156  0.77495  0.63823  1.0000
  C   C2947     1.0  0.48931  0.78500  0.61899  1.0000
  H   H5197     1.0  0.50034  0.80346  0.91129  1.0000
  H   H5198     1.0  0.48381  0.61966  0.58926  1.0000
  H   H5199     1.0  0.55088  0.77162  0.77364  1.0000
  C   C2948     1.0  0.52809  0.61678  0.87511  1.0000
  H   H5200     1.0  0.49649  0.69774  0.65458  1.0000
  H   H5201     1.0  0.50459  0.62573  0.86155  1.0000
  C   C2949     1.0  0.48579  0.82260  0.85158  1.0000
  H   H5202     1.0  0.49368  0.76872  0.87309  1.0000
  C   C2950     1.0  0.56334  0.81323  0.63494  1.0000
  H   H5203     1.0  0.42393  0.95550  0.50892  1.0000
  H   H5204     1.0  0.50183  0.77556  0.61318  1.0000
  H   H5205     1.0  0.49451  0.76380  0.91792  1.0000
  H   H5206     1.0  0.54659  0.74947  0.92380  1.0000
  H   H5207     1.0  0.41596  0.88455  0.55886  1.0000
  C   C2951     1.0  0.43538  0.51468  0.74736  1.0000
  C   C2952     1.0  0.42453  0.52553  0.69146  1.0000
  Fe  Fe334     1.0  0.42047  0.81136  0.47518  1.0000
  C   C2953     1.0  0.55183  0.88970  0.73317  1.0000
  H   H5208     1.0  0.45548  0.92702  0.83361  1.0000
  H   H5209     1.0  0.49222  0.77119  0.64682  1.0000
  H   H5210     1.0  0.46346  0.80239  0.91136  1.0000
  H   H5211     1.0  0.48826  0.81107  0.88765  1.0000
  Fe  Fe335     1.0  0.38978  0.80972  0.50981  1.0000
  H   H5212     1.0  0.57035  0.56211  0.83795  1.0000
  H   H5213     1.0  0.46528  0.50735  0.73952  1.0000
  H   H5214     1.0  0.53805  0.61706  0.86181  1.0000
  H   H5215     1.0  0.49373  0.79713  0.62048  1.0000
  C   C2954     1.0  0.51952  0.72029  0.77147  1.0000
  H   H5216     1.0  0.39400  0.93261  0.66772  1.0000
  H   H5217     1.0  0.39532  0.55292  0.67728  1.0000
  C   C2955     1.0  0.50799  0.95300  0.84310  1.0000
  C   C2956     1.0  0.45310  0.50713  0.73409  1.0000
  H   H5218     1.0  0.44742  0.96537  0.81658  1.0000
  H   H5219     1.0  0.53440  0.83025  0.76740  1.0000
  H   H5220     1.0  0.56926  0.49541  0.54141  1.0000
  C   C2957     1.0  0.50061  0.95596  0.87500  1.0000
  H   H5221     1.0  0.41939  0.94971  0.65542  1.0000
  H   H5222     1.0  0.48622  0.83387  0.85808  1.0000
  H   H5223     1.0  0.54782  0.92746  0.46851  1.0000
  S   S668      1.0  0.57054  0.63225  0.52717  1.0000
  C   C2958     1.0  0.55992  0.69731  0.76085  1.0000
  H   H5224     1.0  0.53543  0.73505  0.78015  1.0000
  H   H5225     1.0  0.52677  0.86956  0.56608  1.0000
  H   H5226     1.0  0.53929  0.82463  0.71083  1.0000
  H   H5227     1.0  0.46296  0.81398  0.87180  1.0000
  C   C2959     1.0  0.55962  0.85671  0.75029  1.0000
  C   C2960     1.0  0.48876  0.79939  0.88129  1.0000
  C   C2961     1.0  0.47619  0.90466  0.48042  1.0000
  C   C2962     1.0  0.48007  0.83113  0.59959  1.0000
  H   H5228     1.0  0.49519  0.82984  0.59464  1.0000
  N   N164      1.0  0.49297  0.88945  0.47789  1.0000
  C   C2963     1.0  0.56506  0.73910  0.71079  1.0000
  Fe  Fe336     1.0  0.42218  0.61388  0.72234  1.0000
  H   H5229     1.0  0.53066  0.48875  0.93115  1.0000
  C   C2964     1.0  0.55148  0.82959  0.73145  1.0000
  H   H5230     1.0  0.42400  0.53767  0.76130  1.0000
  H   H5231     1.0  0.54355  0.63383  0.58792  1.0000
  C   C2965     1.0  0.58220  0.66830  0.48349  1.0000
  C   C2966     1.0  0.49682  0.77665  0.90800  1.0000
  C   C2967     1.0  0.46371  0.79001  0.90619  1.0000
  C   C2968     1.0  0.47728  0.80759  0.86597  1.0000
  H   H5232     1.0  0.51090  0.77299  0.89953  1.0000
  H   H5233     1.0  0.47704  0.82456  0.61435  1.0000
  H   H5234     1.0  0.49927  0.62011  0.56080  1.0000
  N   N165      1.0  0.55510  0.71699  0.76345  1.0000
  H   H5235     1.0  0.49051  0.49306  0.92542  1.0000
  H   H5236     1.0  0.55367  0.69594  0.74969  1.0000
  C   C2969     1.0  0.57858  0.88839  0.66829  1.0000
  H   H5237     1.0  0.40473  0.95067  0.50250  1.0000
  Fe  Fe337     1.0  0.42355  0.58282  0.70348  1.0000
  N   N166      1.0  0.57770  0.50569  0.57189  1.0000
  H   H5238     1.0  0.56415  0.82912  0.60751  1.0000
  C   C2970     1.0  0.41752  0.67670  0.85516  1.0000
  S   S669      1.0  0.43581  0.69491  0.82256  1.0000
  H   H5239     1.0  0.41239  0.52184  0.70115  1.0000
  H   H5240     1.0  0.53024  0.65647  0.58963  1.0000
  S   S670      1.0  0.40020  0.60345  0.71560  1.0000
  H   H5241     1.0  0.54730  0.95197  0.90208  1.0000
  H   H5242     1.0  0.56130  0.88131  0.58960  1.0000
  H   H5243     1.0  0.51495  0.73344  0.76215  1.0000
  C   C2971     1.0  0.55308  0.82536  0.71257  1.0000
  H   H5244     1.0  0.55846  0.83624  0.70139  1.0000
  H   H5245     1.0  0.55584  0.89966  0.72031  1.0000
  C   C2972     1.0  0.41643  0.56784  0.64931  1.0000
  C   C2973     1.0  0.56532  0.75511  0.66005  1.0000
  H   H5246     1.0  0.44013  0.54278  0.74002  1.0000
  H   H5247     1.0  0.53104  0.61763  0.54083  1.0000
  H   H5248     1.0  0.47440  0.85913  0.58371  1.0000
  C   C2974     1.0  0.46595  0.48828  0.71070  1.0000
  C   C2975     1.0  0.39644  0.92379  0.53436  1.0000
  C   C2976     1.0  0.41565  0.94489  0.51078  1.0000
  C   C2977     1.0  0.51619  0.63190  0.57252  1.0000
  C   C2978     1.0  0.49675  0.67028  0.58020  1.0000
  H   H5249     1.0  0.49605  0.64485  0.55451  1.0000
  C   C2979     1.0  0.47159  0.85161  0.59820  1.0000
  H   H5250     1.0  0.55795  0.74446  0.94300  1.0000
  H   H5251     1.0  0.56538  0.76227  0.67048  1.0000
  H   H5252     1.0  0.47774  0.85754  0.60651  1.0000
  C   C2980     1.0  0.57293  0.55890  0.55387  1.0000
  H   H5253     1.0  0.57164  0.85782  0.59358  1.0000
  H   H5254     1.0  0.45642  0.85375  0.60344  1.0000
  H   H5255     1.0  0.50197  0.54129  0.92309  1.0000
  C   C2981     1.0  0.55270  0.72968  0.74521  1.0000
  H   H5256     1.0  0.54801  0.74425  0.74697  1.0000
  H   H5257     1.0  0.54162  0.72666  0.74003  1.0000
  H   H5258     1.0  0.54783  0.55512  0.90384  1.0000
  H   H5259     1.0  0.56352  0.54215  0.57985  1.0000
  H   H5260     1.0  0.42275  0.87296  0.87368  1.0000
  S   S671      1.0  0.41870  0.55396  0.70888  1.0000
  H   H5261     1.0  0.55396  0.54063  0.56115  1.0000
  H   H5262     1.0  0.46941  0.77148  0.88100  1.0000
  H   H5263     1.0  0.55714  0.65285  0.78628  1.0000
  H   H5264     1.0  0.45340  0.51789  0.72118  1.0000
  C   C2982     1.0  0.56019  0.74681  0.92777  1.0000
  C   C2983     1.0  0.48601  0.74827  0.89642  1.0000
  H   H5265     1.0  0.54681  0.56695  0.83462  1.0000
  H   H5266     1.0  0.52634  0.64721  0.48018  1.0000
  H   H5267     1.0  0.39511  0.90491  0.58056  1.0000
  H   H5268     1.0  0.50109  0.74323  0.89597  1.0000
  C   C2984     1.0  0.50633  0.63192  0.55711  1.0000
  H   H5269     1.0  0.52477  0.64253  0.56684  1.0000
  C   C2985     1.0  0.57700  0.77345  0.75499  1.0000
  C   C2986     1.0  0.55202  0.95877  0.84164  1.0000
  H   H5270     1.0  0.57665  0.71450  0.72811  1.0000
  C   C2987     1.0  0.51971  0.87035  0.49399  1.0000
  H   H5271     1.0  0.39758  0.95200  0.53529  1.0000
  Fe  Fe338     1.0  0.55398  0.48144  0.89406  1.0000
  C   C2988     1.0  0.56479  0.87102  0.73252  1.0000
  H   H5272     1.0  0.55624  0.96228  0.74080  1.0000
  S   S672      1.0  0.42795  0.60035  0.67512  1.0000
  C   C2989     1.0  0.41681  0.69212  0.84080  1.0000
  C   C2990     1.0  0.57359  0.48541  0.60474  1.0000
  H   H5273     1.0  0.42335  0.51839  0.74049  1.0000
  S   S673      1.0  0.41715  0.62296  0.74939  1.0000
  H   H5274     1.0  0.56068  0.86200  0.76221  1.0000
  C   C2991     1.0  0.54953  0.96638  0.89784  1.0000
  Fe  Fe339     1.0  0.41387  0.83623  0.93277  1.0000
  H   H5275     1.0  0.54182  0.84296  0.73192  1.0000
  H   H5276     1.0  0.54544  0.81865  0.74198  1.0000
  H   H5277     1.0  0.55276  0.89511  0.74501  1.0000
  H   H5278     1.0  0.51267  0.79206  0.93951  1.0000
  S   S674      1.0  0.55566  0.95066  0.67106  1.0000
  C   C2992     1.0  0.55847  0.95350  0.85993  1.0000
  H   H5279     1.0  0.52690  0.64240  0.53400  1.0000
  H   H5280     1.0  0.52872  0.51441  0.55209  1.0000
  H   H5281     1.0  0.57777  0.73874  0.69983  1.0000
  H   H5282     1.0  0.39448  0.58820  0.63987  1.0000
  H   H5283     1.0  0.57751  0.66052  0.77185  1.0000
  H   H5284     1.0  0.55958  0.49605  0.62962  1.0000
  C   C2993     1.0  0.40605  0.95570  0.65091  1.0000
  S   S675      1.0  0.57801  0.78866  0.68240  1.0000
  C   C2994     1.0  0.48554  0.49265  0.70683  1.0000
  C   C2995     1.0  0.43717  0.53207  0.75256  1.0000
  N   N167      1.0  0.57078  0.83735  0.75096  1.0000
  C   C2996     1.0  0.49120  0.70551  0.66589  1.0000
  H   H5285     1.0  0.58447  0.48917  0.62700  1.0000
  H   H5286     1.0  0.43627  0.90426  0.57549  1.0000
  H   H5287     1.0  0.46290  0.60244  0.61477  1.0000
  Fe  Fe340     1.0  0.45470  0.47809  0.65333  1.0000
  H   H5288     1.0  0.48531  0.50544  0.71121  1.0000
  C   C2997     1.0  0.51384  0.54731  0.92295  1.0000
  C   C2998     1.0  0.57564  0.50447  0.59224  1.0000
  H   H5289     1.0  0.56205  0.57097  0.55704  1.0000
  H   H5290     1.0  0.53567  0.75826  0.66607  1.0000
  H   H5291     1.0  0.44457  0.88208  0.56931  1.0000
  H   H5292     1.0  0.48423  0.79283  0.92978  1.0000
  C   C2999     1.0  0.54850  0.75278  0.65758  1.0000
  H   H5293     1.0  0.55804  0.66116  0.76195  1.0000
  H   H5294     1.0  0.51029  0.89995  0.48988  1.0000
  H   H5295     1.0  0.57032  0.76580  0.90378  1.0000
  H   H5296     1.0  0.43130  0.77456  0.94460  1.0000
  H   H5297     1.0  0.39983  0.74013  0.49039  1.0000
  H   H5298     1.0  0.56225  0.58218  0.82172  1.0000
  C   C3000     1.0  0.39604  0.74519  0.86541  1.0000
  H   H5299     1.0  0.56100  0.59976  0.87627  1.0000
  C   C3001     1.0  0.56678  0.54117  0.56514  1.0000
  C   C3002     1.0  0.40882  0.65598  0.81497  1.0000
  H   H5300     1.0  0.57529  0.55915  0.53892  1.0000
  C   C3003     1.0  0.56832  0.80993  0.94575  1.0000
  H   H5301     1.0  0.57841  0.83717  0.72180  1.0000
  H   H5302     1.0  0.40706  0.50128  0.65185  1.0000
  H   H5303     1.0  0.58102  0.56899  0.87577  1.0000
  H   H5304     1.0  0.58035  0.73551  0.73172  1.0000
  H   H5305     1.0  0.58139  0.69630  0.78730  1.0000
  C   C3004     1.0  0.54833  0.60934  0.47788  1.0000
  H   H5306     1.0  0.53968  0.97009  0.84207  1.0000
  H   H5307     1.0  0.56043  0.77531  0.92414  1.0000
  H   H5308     1.0  0.55562  0.81235  0.94020  1.0000
  C   C3005     1.0  0.57189  0.48578  0.62495  1.0000
  H   H5309     1.0  0.57621  0.79783  0.91415  1.0000
  H   H5310     1.0  0.57816  0.68225  0.47523  1.0000
  H   H5311     1.0  0.47850  0.47609  0.74262  1.0000
  H   H5312     1.0  0.57824  0.81520  0.73598  1.0000
  H   H5313     1.0  0.56417  0.80943  0.96081  1.0000
  H   H5314     1.0  0.39460  0.51459  0.63426  1.0000
  H   H5315     1.0  0.49806  0.86017  0.47864  1.0000
  C   C3006     1.0  0.50293  0.96703  0.74811  1.0000
  H   H5316     1.0  0.52745  0.97257  0.88221  1.0000
  C   C3007     1.0  0.58083  0.94977  0.88713  1.0000
  C   C3008     1.0  0.39631  0.93989  0.65311  1.0000
  H   H5317     1.0  0.56873  0.73420  0.92305  1.0000
  C   C3009     1.0  0.57951  0.65358  0.47465  1.0000
  C   C3010     1.0  0.47983  0.92427  0.47722  1.0000
  C   C3011     1.0  0.58214  0.52412  0.56168  1.0000
  H   H5318     1.0  0.51366  0.85809  0.50139  1.0000
  H   H5319     1.0  0.39080  0.89023  0.54742  1.0000
  C   C3012     1.0  0.55913  0.65682  0.47272  1.0000
  H   H5320     1.0  0.58020  0.86304  0.62280  1.0000
  C   C3013     1.0  0.58096  0.79180  0.94203  1.0000
  H   H5321     1.0  0.57383  0.66746  0.49772  1.0000
  H   H5322     1.0  0.58475  0.47837  0.95387  1.0000
  C   C3014     1.0  0.43820  0.97332  0.63168  1.0000
  C   C3015     1.0  0.38523  0.70378  0.85526  1.0000
  H   H5323     1.0  0.46816  0.47468  0.70709  1.0000
  H   H5324     1.0  0.56470  0.53119  0.46880  1.0000
  S   S676      1.0  0.66969  0.02163  0.45364  1.0000
  Fe  Fe341     1.0  0.72775  0.16224  0.42214  1.0000
  S   S677      1.0  0.70964  0.19003  0.42367  1.0000
  S   S678      1.0  0.71776  0.13637  0.43854  1.0000
  S   S679      1.0  0.74500  0.20740  0.39658  1.0000
  Fe  Fe342     1.0  0.73498  0.19791  0.42705  1.0000
  Fe  Fe343     1.0  0.72091  0.19730  0.39337  1.0000
  S   S680      1.0  0.70501  0.21201  0.37082  1.0000
  S   S681      1.0  0.73708  0.16885  0.39152  1.0000
  Fe  Fe344     1.0  0.69381  0.02019  0.42979  1.0000
  S   S682      1.0  0.67800  0.03922  0.40899  1.0000
  H   H5325     1.0  0.64453  0.45317  0.07839  1.0000
  H   H5326     1.0  0.61553  0.15131  0.02766  1.0000
  H   H5327     1.0  0.67994  0.46722  0.11073  1.0000
  Fe  Fe345     1.0  0.65468  0.04246  0.43330  1.0000
  S   S683      1.0  0.62462  0.04240  0.43567  1.0000
  Fe  Fe346     1.0  0.68746  0.06124  0.41685  1.0000
  S   S684      1.0  0.69851  0.08461  0.39635  1.0000
  C   C3016     1.0  0.71953  0.98903  0.40348  1.0000
  S   S685      1.0  0.70518  0.04192  0.43576  1.0000
  Fe  Fe347     1.0  0.76103  0.11972  0.04680  1.0000
  S   S686      1.0  0.76704  0.14416  0.02472  1.0000
  S   S687      1.0  0.73393  0.11010  0.05517  1.0000
  H   H5328     1.0  0.76031  0.32091  0.09380  1.0000
  H   H5329     1.0  0.73766  0.22867  0.31738  1.0000
  H   H5330     1.0  0.63523  0.45493  0.16023  1.0000
  S   S688      1.0  0.74014  0.97843  0.34495  1.0000
  H   H5331     1.0  0.60527  0.19390  0.10232  1.0000
  C   C3017     1.0  0.59131  0.24779  0.25821  1.0000
  S   S689      1.0  0.74884  0.26796  0.11422  1.0000
  H   H5332     1.0  0.65547  0.15353  0.45828  1.0000
  H   H5333     1.0  0.63734  0.18020  0.09119  1.0000
  C   C3018     1.0  0.60516  0.41761  0.30392  1.0000
  C   C3019     1.0  0.68661  0.04851  0.04550  1.0000
  H   H5334     1.0  0.77995  0.03569  0.03484  1.0000
  C   C3020     1.0  0.66948  0.97527  0.41700  1.0000
  H   H5335     1.0  0.61291  0.15708  0.42111  1.0000
  H   H5336     1.0  0.62303  0.34419  0.38120  1.0000
  S   S690      1.0  0.62381  0.24415  0.29407  1.0000
  Fe  Fe348     1.0  0.60300  0.23259  0.36258  1.0000
  H   H5337     1.0  0.62162  0.17069  0.06200  1.0000
  S   S691      1.0  0.61774  0.22514  0.38637  1.0000
  H   H5338     1.0  0.66004  0.17103  0.42658  1.0000
  H   H5339     1.0  0.75725  0.46292  0.06739  1.0000
  C   C3021     1.0  0.78321  0.46640  0.08630  1.0000
  H   H5340     1.0  0.66046  0.00632  0.36374  1.0000
  Fe  Fe349     1.0  0.62712  0.11041  0.98873  1.0000
  S   S692      1.0  0.60359  0.25848  0.34117  1.0000
  H   H5341     1.0  0.63541  0.47268  0.44384  1.0000
  H   H5342     1.0  0.61006  0.29825  0.26714  1.0000
  H   H5343     1.0  0.62074  0.28277  0.23123  1.0000
  S   S693      1.0  0.63470  0.12904  0.00280  1.0000
  S   S694      1.0  0.63304  0.32070  0.17508  1.0000
  Fe  Fe350     1.0  0.64451  0.07584  0.01231  1.0000
  H   H5344     1.0  0.74575  0.03886  0.99694  1.0000
  S   S695      1.0  0.65323  0.04497  0.01745  1.0000
  Fe  Fe351     1.0  0.66199  0.10950  0.00184  1.0000
  H   H5345     1.0  0.71341  0.14468  0.06578  1.0000
  H   H5346     1.0  0.68236  0.15654  0.42080  1.0000
  S   S696      1.0  0.65327  0.09129  0.02888  1.0000
  C   C3022     1.0  0.60821  0.25149  0.43226  1.0000
  Fe  Fe352     1.0  0.65417  0.25453  0.17205  1.0000
  H   H5347     1.0  0.77790  0.16097  0.30575  1.0000
  S   S697      1.0  0.68291  0.23768  0.17240  1.0000
  C   C3023     1.0  0.74837  0.33242  0.15858  1.0000
  H   H5348     1.0  0.70675  0.46018  0.05714  1.0000
  C   C3024     1.0  0.65548  0.11467  0.40361  1.0000
  H   H5349     1.0  0.69666  0.31570  0.17443  1.0000
  H   H5350     1.0  0.58906  0.14051  0.99605  1.0000
  H   H5351     1.0  0.67691  0.13744  0.45299  1.0000
  H   H5352     1.0  0.64038  0.04294  0.39709  1.0000
  S   S698      1.0  0.59631  0.24767  0.22165  1.0000
  H   H5353     1.0  0.58738  0.29601  0.29665  1.0000
  H   H5354     1.0  0.69710  0.15414  0.08416  1.0000
  H   H5355     1.0  0.77378  0.13595  0.36394  1.0000
  C   C3025     1.0  0.62132  0.16690  0.42126  1.0000
  H   H5356     1.0  0.69696  0.07361  0.03987  1.0000
  C   C3026     1.0  0.61597  0.35671  0.16652  1.0000
  C   C3027     1.0  0.65856  0.17191  0.02960  1.0000
  H   H5357     1.0  0.69123  0.06490  0.97607  1.0000
  H   H5358     1.0  0.67152  0.98006  0.45123  1.0000
  H   H5359     1.0  0.65101  0.10339  0.09736  1.0000
  C   C3028     1.0  0.61739  0.33812  0.22076  1.0000
  H   H5360     1.0  0.67033  0.13011  0.42417  1.0000
  C   C3029     1.0  0.61581  0.01248  0.00629  1.0000
  C   C3030     1.0  0.63206  0.00342  0.01257  1.0000
  C   C3031     1.0  0.64342  0.01354  0.01595  1.0000
  C   C3032     1.0  0.63868  0.03277  0.01295  1.0000
  C   C3033     1.0  0.62254  0.04187  0.00643  1.0000
  C   C3034     1.0  0.64297  0.13376  0.40550  1.0000
  H   H5361     1.0  0.65596  0.00643  0.02084  1.0000
  H   H5362     1.0  0.61889  0.05670  0.00389  1.0000
  H   H5363     1.0  0.60018  0.18944  0.31555  1.0000
  H   H5364     1.0  0.63808  0.28670  0.25308  1.0000
  C   C3035     1.0  0.66946  0.15185  0.44936  1.0000
  H   H5365     1.0  0.63569  0.13845  0.39370  1.0000
  H   H5366     1.0  0.70596  0.19405  0.29922  1.0000
  C   C3036     1.0  0.77886  0.19960  0.46700  1.0000
  H   H5367     1.0  0.64591  0.13754  0.09051  1.0000
  C   C3037     1.0  0.62884  0.24333  0.25767  1.0000
  C   C3038     1.0  0.61530  0.45824  0.08009  1.0000
  H   H5368     1.0  0.64341  0.24157  0.25742  1.0000
  H   H5369     1.0  0.63301  0.24236  0.22901  1.0000
  C   C3039     1.0  0.65945  0.14283  0.42423  1.0000
  H   H5370     1.0  0.63084  0.33047  0.21436  1.0000
  H   H5371     1.0  0.66213  0.10857  0.41566  1.0000
  C   C3040     1.0  0.65730  0.98057  0.44967  1.0000
  C   C3041     1.0  0.63858  0.16636  0.40536  1.0000
  H   H5372     1.0  0.77150  0.20319  0.30062  1.0000
  N   N168      1.0  0.65256  0.14848  0.40640  1.0000
  H   H5373     1.0  0.66638  0.43977  0.11547  1.0000
  C   C3042     1.0  0.62440  0.02848  0.38810  1.0000
  C   C3043     1.0  0.66513  0.46866  0.11312  1.0000
  H   H5374     1.0  0.63064  0.35364  0.23212  1.0000
  C   C3044     1.0  0.74455  0.03140  0.01140  1.0000
  H   H5375     1.0  0.61317  0.40385  0.30912  1.0000
  C   C3045     1.0  0.62842  0.28797  0.35419  1.0000
  H   H5376     1.0  0.60600  0.34146  0.13377  1.0000
  C   C3046     1.0  0.58582  0.99572  0.05974  1.0000
  H   H5377     1.0  0.63216  0.13116  0.41810  1.0000
  H   H5378     1.0  0.75820  0.44035  0.03917  1.0000
  C   C3047     1.0  0.64429  0.10118  0.40240  1.0000
  H   H5379     1.0  0.64536  0.97550  0.05383  1.0000
  C   C3048     1.0  0.62308  0.29677  0.23020  1.0000
  C   C3049     1.0  0.73048  0.25992  0.13063  1.0000
  C   C3050     1.0  0.71245  0.26609  0.12747  1.0000
  C   C3051     1.0  0.69770  0.25945  0.14029  1.0000
  C   C3052     1.0  0.70093  0.24668  0.15632  1.0000
  C   C3053     1.0  0.71894  0.24065  0.15952  1.0000
  C   C3054     1.0  0.73363  0.24738  0.14678  1.0000
  H   H5380     1.0  0.70992  0.27580  0.11499  1.0000
  H   H5381     1.0  0.68391  0.26395  0.13756  1.0000
  H   H5382     1.0  0.72150  0.23085  0.17195  1.0000
  H   H5383     1.0  0.74733  0.24299  0.14965  1.0000
  C   C3055     1.0  0.72100  0.11423  0.03801  1.0000
  C   C3056     1.0  0.72787  0.12177  0.01968  1.0000
  C   C3057     1.0  0.71763  0.12388  0.00612  1.0000
  C   C3058     1.0  0.70044  0.11864  0.01087  1.0000
  C   C3059     1.0  0.69333  0.11169  0.02930  1.0000
  C   C3060     1.0  0.70372  0.10924  0.04278  1.0000
  H   H5384     1.0  0.74125  0.12555  0.01585  1.0000
  S   S699      1.0  0.60543  0.00876  0.37705  1.0000
  H   H5385     1.0  0.68001  0.10792  0.03316  1.0000
  H   H5386     1.0  0.69848  0.10325  0.05693  1.0000
  H   H5387     1.0  0.76727  0.19197  0.44766  1.0000
  H   H5388     1.0  0.59767  0.18669  0.08537  1.0000
  H   H5389     1.0  0.60191  0.42429  0.33002  1.0000
  H   H5390     1.0  0.61120  0.46382  0.09289  1.0000
  H   H5391     1.0  0.59721  0.98340  0.33506  1.0000
  H   H5392     1.0  0.59302  0.18274  0.28835  1.0000
  H   H5393     1.0  0.59765  0.18741  0.22314  1.0000
  S   S700      1.0  0.68862  0.12000  0.99344  1.0000
  C   C3061     1.0  0.61299  0.45987  0.18443  1.0000
  H   H5394     1.0  0.59730  0.41588  0.29437  1.0000
  H   H5395     1.0  0.63841  0.31299  0.11798  1.0000
  C   C3062     1.0  0.71896  0.00377  0.38842  1.0000
  C   C3063     1.0  0.72514  0.00047  0.37041  1.0000
  C   C3064     1.0  0.73256  0.98254  0.36747  1.0000
  H   H5396     1.0  0.65576  0.25744  0.37658  1.0000
  S   S701      1.0  0.62901  0.43479  0.12372  1.0000
  H   H5397     1.0  0.71355  0.01765  0.39061  1.0000
  H   H5398     1.0  0.72441  0.01183  0.35875  1.0000
  C   C3065     1.0  0.65839  0.26329  0.38729  1.0000
  C   C3066     1.0  0.68078  0.21516  0.37537  1.0000
  C   C3067     1.0  0.67154  0.22110  0.36059  1.0000
  C   C3068     1.0  0.65218  0.22396  0.36377  1.0000
  C   C3069     1.0  0.64200  0.22108  0.38179  1.0000
  C   C3070     1.0  0.65123  0.21521  0.39658  1.0000
  C   C3071     1.0  0.67058  0.21217  0.39339  1.0000
  H   H5399     1.0  0.67938  0.22350  0.34663  1.0000
  H   H5400     1.0  0.64514  0.22854  0.35231  1.0000
  H   H5401     1.0  0.64338  0.21310  0.41055  1.0000
  H   H5402     1.0  0.67758  0.20775  0.40485  1.0000
  C   C3072     1.0  0.71279  0.12216  0.42631  1.0000
  C   C3073     1.0  0.71696  0.12528  0.40706  1.0000
  C   C3074     1.0  0.71275  0.11363  0.39782  1.0000
  C   C3075     1.0  0.70433  0.09886  0.40782  1.0000
  C   C3076     1.0  0.70019  0.09577  0.42703  1.0000
  C   C3077     1.0  0.70434  0.10742  0.43619  1.0000
  H   H5403     1.0  0.72357  0.13650  0.39929  1.0000
  H   H5404     1.0  0.71601  0.11605  0.38294  1.0000
  H   H5405     1.0  0.69375  0.08440  0.43490  1.0000
  H   H5406     1.0  0.66477  0.03552  0.36926  1.0000
  H   H5407     1.0  0.69407  0.05513  0.00930  1.0000
  H   H5408     1.0  0.68287  0.26781  0.39408  1.0000
  H   H5409     1.0  0.64744  0.98992  0.45829  1.0000
  H   H5410     1.0  0.59629  0.18576  0.43068  1.0000
  C   C3078     1.0  0.64044  0.29396  0.23846  1.0000
  S   S702      1.0  0.73086  0.21561  0.44803  1.0000
  H   H5411     1.0  0.66808  0.97687  0.05546  1.0000
  S   S703      1.0  0.60139  0.00001  0.00201  1.0000
  C   C3079     1.0  0.61892  0.03374  0.41912  1.0000
  C   C3080     1.0  0.62901  0.03578  0.40104  1.0000
  C   C3081     1.0  0.74262  0.35194  0.16228  1.0000
  N   N169      1.0  0.73619  0.19765  0.12104  1.0000
  C   C3082     1.0  0.73693  0.17839  0.11907  1.0000
  C   C3083     1.0  0.71705  0.20512  0.13096  1.0000
  C   C3084     1.0  0.74091  0.20919  0.10208  1.0000
  C   C3085     1.0  0.74990  0.19795  0.13211  1.0000
  C   C3086     1.0  0.74966  0.18383  0.15063  1.0000
  C   C3087     1.0  0.75606  0.16821  0.11008  1.0000
  C   C3088     1.0  0.73883  0.22997  0.10127  1.0000
  C   C3089     1.0  0.70116  0.20829  0.12053  1.0000
  C   C3090     1.0  0.68274  0.21679  0.13158  1.0000
  H   H5412     1.0  0.58914  0.04804  0.37294  1.0000
  C   C3091     1.0  0.75608  0.14802  0.11131  1.0000
  C   C3092     1.0  0.74358  0.24044  0.08149  1.0000
  H   H5413     1.0  0.72728  0.17852  0.11030  1.0000
  H   H5414     1.0  0.73194  0.16983  0.13263  1.0000
  H   H5415     1.0  0.71323  0.19570  0.14429  1.0000
  H   H5416     1.0  0.71667  0.21829  0.13482  1.0000
  H   H5417     1.0  0.73269  0.20748  0.09272  1.0000
  H   H5418     1.0  0.75551  0.20434  0.09567  1.0000
  H   H5419     1.0  0.76429  0.19595  0.12386  1.0000
  H   H5420     1.0  0.74744  0.21175  0.13551  1.0000
  H   H5421     1.0  0.75387  0.16954  0.14827  1.0000
  H   H5422     1.0  0.73572  0.18545  0.15960  1.0000
  H   H5423     1.0  0.75944  0.17454  0.09526  1.0000
  H   H5424     1.0  0.76729  0.16869  0.11662  1.0000
  H   H5425     1.0  0.74839  0.23206  0.10896  1.0000
  H   H5426     1.0  0.72452  0.23624  0.10716  1.0000
  H   H5427     1.0  0.70363  0.21775  0.10701  1.0000
  H   H5428     1.0  0.69955  0.19510  0.11826  1.0000
  H   H5429     1.0  0.67946  0.20799  0.14543  1.0000
  H   H5430     1.0  0.68318  0.23063  0.13326  1.0000
  H   H5431     1.0  0.67145  0.21832  0.12423  1.0000
  H   H5432     1.0  0.59179  0.39051  0.33775  1.0000
  H   H5433     1.0  0.62307  0.16329  0.09660  1.0000
  H   H5434     1.0  0.59584  0.02354  0.43798  1.0000
  H   H5435     1.0  0.74564  0.14678  0.10410  1.0000
  H   H5436     1.0  0.76991  0.14125  0.10459  1.0000
  H   H5437     1.0  0.75315  0.14079  0.12591  1.0000
  H   H5438     1.0  0.73478  0.23840  0.07290  1.0000
  H   H5439     1.0  0.74117  0.25536  0.08139  1.0000
  H   H5440     1.0  0.75835  0.23585  0.07544  1.0000
  C   C3093     1.0  0.70295  0.05878  0.04000  1.0000
  H   H5441     1.0  0.68967  0.20743  0.31477  1.0000
  H   H5442     1.0  0.59325  0.29916  0.10023  1.0000
  C   C3094     1.0  0.76277  0.44168  0.05138  1.0000
  H   H5443     1.0  0.65460  0.16227  0.00660  1.0000
  H   H5444     1.0  0.75887  0.20003  0.16497  1.0000
  H   H5445     1.0  0.59661  0.35528  0.46019  1.0000
  H   H5446     1.0  0.67721  0.16106  0.45206  1.0000
  H   H5447     1.0  0.74543  0.24960  0.33299  1.0000
  H   H5448     1.0  0.71380  0.18660  0.33029  1.0000
  C   C3095     1.0  0.61459  0.25894  0.41177  1.0000
  C   C3096     1.0  0.73780  0.19556  0.31024  1.0000
  C   C3097     1.0  0.66811  0.15682  0.42906  1.0000
  C   C3098     1.0  0.63201  0.32672  0.12144  1.0000
  C   C3099     1.0  0.58520  0.17937  0.05449  1.0000
  H   H5449     1.0  0.63859  0.99022  0.40047  1.0000
  H   H5450     1.0  0.71442  0.21031  0.32830  1.0000
  H   H5451     1.0  0.66405  0.04279  0.06836  1.0000
  H   H5452     1.0  0.60842  0.31425  0.35179  1.0000
  H   H5453     1.0  0.66033  0.28898  0.21338  1.0000
  C   C3100     1.0  0.67600  0.04969  0.06508  1.0000
  H   H5454     1.0  0.60789  0.34163  0.21101  1.0000
  C   C3101     1.0  0.66525  0.16743  0.01037  1.0000
  H   H5455     1.0  0.60822  0.03836  0.34401  1.0000
  C   C3102     1.0  0.59908  0.98500  0.07252  1.0000
  C   C3103     1.0  0.74848  0.21360  0.46006  1.0000
  H   H5456     1.0  0.72594  0.02935  0.03756  1.0000
  H   H5457     1.0  0.72066  0.04807  0.98546  1.0000
  H   H5458     1.0  0.67822  0.15685  0.00976  1.0000
  C   C3104     1.0  0.59412  0.25631  0.13128  1.0000
  N   N170      1.0  0.73515  0.30467  0.15759  1.0000
  H   H5459     1.0  0.78114  0.98937  0.25117  1.0000
  H   H5460     1.0  0.59628  0.28565  0.21882  1.0000
  C   C3105     1.0  0.68464  0.29607  0.16836  1.0000
  C   C3106     1.0  0.61371  0.33843  0.17222  1.0000
  C   C3107     1.0  0.65717  0.28229  0.22814  1.0000
  H   H5461     1.0  0.63603  0.42165  0.16467  1.0000
  H   H5462     1.0  0.78073  0.38799  0.01512  1.0000
  H   H5463     1.0  0.77834  0.20504  0.36398  1.0000
  H   H5464     1.0  0.66807  0.17999  0.00009  1.0000
  H   H5465     1.0  0.60496  0.31053  0.38516  1.0000
  H   H5466     1.0  0.62200  0.98087  0.32733  1.0000
  H   H5467     1.0  0.70490  0.29212  0.18462  1.0000
  H   H5468     1.0  0.75680  0.32395  0.16873  1.0000
  H   H5469     1.0  0.62655  0.30238  0.21515  1.0000
  C   C3108     1.0  0.70492  0.06328  0.00699  1.0000
  Fe  Fe353     1.0  0.63005  0.29243  0.17425  1.0000
  H   H5470     1.0  0.68362  0.97575  0.41814  1.0000
  C   C3109     1.0  0.77960  0.40476  0.08129  1.0000
  H   H5471     1.0  0.67033  0.45006  0.05695  1.0000
  H   H5472     1.0  0.75502  0.23023  0.34902  1.0000
  C   C3110     1.0  0.59606  0.33453  0.17588  1.0000
  H   H5473     1.0  0.76856  0.98637  0.42650  1.0000
  H   H5474     1.0  0.65137  0.28769  0.39822  1.0000
  C   C3111     1.0  0.64784  0.28339  0.38692  1.0000
  H   H5475     1.0  0.75248  0.24541  0.19377  1.0000
  N   N171      1.0  0.75204  0.18966  0.32223  1.0000
  H   H5476     1.0  0.60062  0.28369  0.25922  1.0000
  H   H5477     1.0  0.72303  0.33359  0.14987  1.0000
  C   C3112     1.0  0.76567  0.16137  0.34513  1.0000
  H   H5478     1.0  0.73249  0.29592  0.18722  1.0000
  H   H5479     1.0  0.63604  0.98862  0.01462  1.0000
  H   H5480     1.0  0.72319  0.12931  0.99188  1.0000
  H   H5481     1.0  0.65454  0.25465  0.40103  1.0000
  C   C3113     1.0  0.71564  0.06257  0.98705  1.0000
  H   H5482     1.0  0.63678  0.31563  0.40069  1.0000
  C   C3114     1.0  0.67654  0.02598  0.36258  1.0000
  H   H5483     1.0  0.61599  0.34520  0.40529  1.0000
  H   H5484     1.0  0.71044  0.05388  0.05159  1.0000
  H   H5485     1.0  0.60306  0.46710  0.21990  1.0000
  C   C3115     1.0  0.75466  0.46126  0.05436  1.0000
  H   H5486     1.0  0.77753  0.21259  0.05878  1.0000
  H   H5487     1.0  0.75483  0.03498  0.01718  1.0000
  H   H5488     1.0  0.68427  0.26969  0.36970  1.0000
  H   H5489     1.0  0.76503  0.13305  0.34526  1.0000
  C   C3116     1.0  0.59489  0.08865  0.41196  1.0000
  H   H5490     1.0  0.62612  0.27915  0.41839  1.0000
  H   H5491     1.0  0.70671  0.21792  0.29724  1.0000
  H   H5492     1.0  0.62706  0.24928  0.40663  1.0000
  H   H5493     1.0  0.60417  0.28724  0.41246  1.0000
  C   C3117     1.0  0.73121  0.32432  0.15998  1.0000
  C   C3118     1.0  0.70122  0.30148  0.17191  1.0000
  H   H5494     1.0  0.72321  0.08316  0.01597  1.0000
  H   H5495     1.0  0.67490  0.46958  0.00362  1.0000
  H   H5496     1.0  0.64485  0.17808  0.40490  1.0000
  C   C3119     1.0  0.76724  0.98448  0.28796  1.0000
  H   H5497     1.0  0.58749  0.25362  0.16074  1.0000
  H   H5498     1.0  0.60251  0.38513  0.15955  1.0000
  C   C3120     1.0  0.61996  0.30744  0.38557  1.0000
  C   C3121     1.0  0.74177  0.29229  0.17436  1.0000
  H   H5499     1.0  0.69142  0.03378  0.04473  1.0000
  C   C3122     1.0  0.62209  0.31760  0.39988  1.0000
  Fe  Fe354     1.0  0.62539  0.10967  0.02877  1.0000
  H   H5500     1.0  0.78146  0.18774  0.31840  1.0000
  C   C3123     1.0  0.71731  0.19916  0.32052  1.0000
  C   C3124     1.0  0.77767  0.17514  0.29757  1.0000
  H   H5501     1.0  0.67067  0.06428  0.06634  1.0000
  H   H5502     1.0  0.60105  0.29568  0.34709  1.0000
  H   H5503     1.0  0.68650  0.24753  0.38489  1.0000
  C   C3125     1.0  0.61808  0.27875  0.40825  1.0000
  S   S704      1.0  0.61558  0.09241  0.01492  1.0000
  C   C3126     1.0  0.77713  0.97707  0.39267  1.0000
  H   H5504     1.0  0.73951  0.46413  0.05531  1.0000
  H   H5505     1.0  0.65420  0.29207  0.37412  1.0000
  H   H5506     1.0  0.62644  0.26453  0.37647  1.0000
  C   C3127     1.0  0.62162  0.27964  0.37486  1.0000
  H   H5507     1.0  0.61779  0.42261  0.18479  1.0000
  H   H5508     1.0  0.61802  0.32544  0.24948  1.0000
  H   H5509     1.0  0.76330  0.00810  0.36799  1.0000
  H   H5510     1.0  0.61350  0.45010  0.15960  1.0000
  H   H5511     1.0  0.76604  0.22284  0.00337  1.0000
  C   C3128     1.0  0.59721  0.24675  0.27444  1.0000
  H   H5512     1.0  0.73707  0.17151  0.34391  1.0000
  H   H5513     1.0  0.61848  0.30639  0.33055  1.0000
  H   H5514     1.0  0.74991  0.16135  0.32506  1.0000
  H   H5515     1.0  0.60635  0.28133  0.37757  1.0000
  H   H5516     1.0  0.64694  0.12078  0.05743  1.0000
  H   H5517     1.0  0.78243  0.41623  0.02521  1.0000
  H   H5518     1.0  0.68488  0.46175  0.03784  1.0000
  C   C3129     1.0  0.76306  0.18626  0.16125  1.0000
  H   H5519     1.0  0.77989  0.21264  0.98433  1.0000
  C   C3130     1.0  0.74470  0.23518  0.34002  1.0000
  H   H5520     1.0  0.60691  0.30891  0.11643  1.0000
  C   C3131     1.0  0.62303  0.44929  0.16870  1.0000
  C   C3132     1.0  0.75778  0.07362  0.02805  1.0000
  H   H5521     1.0  0.71268  0.31009  0.14326  1.0000
  H   H5522     1.0  0.69801  0.08657  0.97373  1.0000
  S   S705      1.0  0.77138  0.12787  0.06803  1.0000
  Fe  Fe355     1.0  0.60366  0.24132  0.32133  1.0000
  H   H5523     1.0  0.73054  0.26772  0.17639  1.0000
  H   H5524     1.0  0.76860  0.17773  0.28754  1.0000
  C   C3133     1.0  0.75017  0.01083  0.01139  1.0000
  H   H5525     1.0  0.60929  0.16277  0.98923  1.0000
  H   H5526     1.0  0.63361  0.33750  0.10873  1.0000
  H   H5527     1.0  0.75444  0.08849  0.02197  1.0000
  H   H5528     1.0  0.60450  0.33193  0.10370  1.0000
  H   H5529     1.0  0.68788  0.28135  0.16752  1.0000
  H   H5530     1.0  0.59731  0.25691  0.10238  1.0000
  C   C3134     1.0  0.60903  0.32688  0.23959  1.0000
  H   H5531     1.0  0.64416  0.30725  0.23765  1.0000
  S   S706      1.0  0.65545  0.09266  0.98508  1.0000
  H   H5532     1.0  0.75551  0.29442  0.17484  1.0000
  S   S707      1.0  0.61211  0.26809  0.12788  1.0000
  H   H5533     1.0  0.64008  0.42702  0.18474  1.0000
  C   C3135     1.0  0.75073  0.26035  0.19326  1.0000
  H   H5534     1.0  0.69202  0.44925  0.07726  1.0000
  H   H5535     1.0  0.68358  0.00109  0.39332  1.0000
  H   H5536     1.0  0.73483  0.14595  0.46589  1.0000
  H   H5537     1.0  0.77245  0.01501  0.43417  1.0000
  H   H5538     1.0  0.63724  0.18559  0.05819  1.0000
  C   C3136     1.0  0.76323  0.14196  0.35524  1.0000
  C   C3137     1.0  0.61895  0.42972  0.29280  1.0000
  H   H5539     1.0  0.64823  0.13890  0.43597  1.0000
  H   H5540     1.0  0.61419  0.31267  0.41380  1.0000
  C   C3138     1.0  0.73254  0.06315  0.45950  1.0000
  H   H5541     1.0  0.74412  0.05081  0.04084  1.0000
  C   C3139     1.0  0.62961  0.42890  0.17630  1.0000
  C   C3140     1.0  0.58750  0.14737  0.06993  1.0000
  H   H5542     1.0  0.59668  0.03019  0.96908  1.0000
  H   H5543     1.0  0.65367  0.08782  0.40064  1.0000
  H   H5544     1.0  0.74028  0.20814  0.29973  1.0000
  H   H5545     1.0  0.73116  0.07266  0.04558  1.0000
  H   H5546     1.0  0.65821  0.00195  0.42566  1.0000
  H   H5547     1.0  0.64107  0.98833  0.42886  1.0000
  H   H5548     1.0  0.68936  0.02672  0.36647  1.0000
  H   H5549     1.0  0.64625  0.18324  0.02906  1.0000
  H   H5550     1.0  0.68869  0.14721  0.04957  1.0000
  H   H5551     1.0  0.66492  0.14303  0.04137  1.0000
  H   H5552     1.0  0.69744  0.07774  0.00734  1.0000
  H   H5553     1.0  0.76502  0.16925  0.35566  1.0000
  C   C3141     1.0  0.58947  0.25280  0.11607  1.0000
  H   H5554     1.0  0.77239  0.41800  0.08546  1.0000
  H   H5555     1.0  0.76784  0.06648  0.01759  1.0000
  H   H5556     1.0  0.77736  0.18466  0.15291  1.0000
  H   H5557     1.0  0.66309  0.15937  0.08446  1.0000
  C   C3142     1.0  0.60557  0.15529  0.03939  1.0000
  H   H5558     1.0  0.59991  0.07372  0.41671  1.0000
  H   H5559     1.0  0.65951  0.00928  0.39585  1.0000
  H   H5560     1.0  0.58810  0.01014  0.41526  1.0000
  H   H5561     1.0  0.75993  0.19865  0.34311  1.0000
  Fe  Fe356     1.0  0.62109  0.26764  0.15384  1.0000
  H   H5562     1.0  0.74064  0.26385  0.20573  1.0000
  C   C3143     1.0  0.64587  0.10463  0.08468  1.0000
  H   H5563     1.0  0.60633  0.09461  0.40215  1.0000
  H   H5564     1.0  0.62181  0.45534  0.19494  1.0000
  S   S708      1.0  0.71108  0.99235  0.42621  1.0000
  H   H5565     1.0  0.75410  0.26658  0.16399  1.0000
  C   C3144     1.0  0.65181  0.12077  0.06994  1.0000
  H   H5566     1.0  0.71566  0.02904  0.01940  1.0000
  H   H5567     1.0  0.59510  0.98986  0.08573  1.0000
  H   H5568     1.0  0.64138  0.15167  0.04092  1.0000
  C   C3145     1.0  0.67315  0.00632  0.36829  1.0000
  H   H5569     1.0  0.60218  0.20826  0.29605  1.0000
  H   H5570     1.0  0.63228  0.02996  0.37414  1.0000
  C   C3146     1.0  0.77461  0.45391  0.10041  1.0000
  H   H5571     1.0  0.68502  0.04277  0.07519  1.0000
  H   H5572     1.0  0.74934  0.14224  0.36434  1.0000
  Fe  Fe357     1.0  0.67954  0.04519  0.45772  1.0000
  H   H5573     1.0  0.67264  0.29817  0.17986  1.0000
  H   H5574     1.0  0.76205  0.22509  0.31658  1.0000
  H   H5575     1.0  0.70087  0.10498  0.45098  1.0000
  C   C3147     1.0  0.61486  0.33830  0.39460  1.0000
  C   C3148     1.0  0.61162  0.32761  0.13044  1.0000
  C   C3149     1.0  0.65353  0.15484  0.04411  1.0000
  H   H5576     1.0  0.73134  0.07388  0.44684  1.0000
  H   H5577     1.0  0.61893  0.18339  0.23106  1.0000
  H   H5578     1.0  0.65163  0.09169  0.07944  1.0000
  H   H5579     1.0  0.63373  0.09874  0.41522  1.0000
  H   H5580     1.0  0.62819  0.42317  0.28149  1.0000
  C   C3150     1.0  0.78421  0.43762  0.04790  1.0000
  C   C3151     1.0  0.67965  0.45997  0.05293  1.0000
  C   C3152     1.0  0.61316  0.30192  0.34550  1.0000
  C   C3153     1.0  0.64340  0.13928  0.07641  1.0000
  H   H5581     1.0  0.77869  0.42741  0.11854  1.0000
  C   C3154     1.0  0.78092  0.38030  0.02947  1.0000
  S   S709      1.0  0.75077  0.45899  0.10966  1.0000
  H   H5582     1.0  0.76427  0.07201  0.03996  1.0000
  H   H5583     1.0  0.61329  0.98712  0.06582  1.0000
  H   H5584     1.0  0.76297  0.17569  0.17416  1.0000
  H   H5585     1.0  0.76354  0.30303  0.14278  1.0000
  H   H5586     1.0  0.72741  0.06974  0.98319  1.0000
  H   H5587     1.0  0.66969  0.17683  0.03272  1.0000
  C   C3155     1.0  0.74855  0.22325  0.32568  1.0000
  C   C3156     1.0  0.67108  0.99942  0.38946  1.0000
  C   C3157     1.0  0.65555  0.98776  0.42957  1.0000
  C   C3158     1.0  0.60003  0.29844  0.25874  1.0000
  H   H5588     1.0  0.74736  0.05744  0.45982  1.0000
  H   H5589     1.0  0.63745  0.10648  0.39039  1.0000
  H   H5590     1.0  0.75726  0.33317  0.14462  1.0000
  H   H5591     1.0  0.73452  0.36112  0.15211  1.0000
  C   C3159     1.0  0.73004  0.06840  0.01864  1.0000
  H   H5592     1.0  0.58826  0.44103  0.31551  1.0000
  C   C3160     1.0  0.62065  0.35623  0.22298  1.0000
  H   H5593     1.0  0.59018  0.14643  0.01667  1.0000
  C   C3161     1.0  0.59409  0.16758  0.99233  1.0000
  H   H5594     1.0  0.73611  0.20165  0.34551  1.0000
  H   H5595     1.0  0.70118  0.16807  0.06115  1.0000
  H   H5596     1.0  0.60010  0.34120  0.39360  1.0000
  Fe  Fe358     1.0  0.76028  0.17818  0.39729  1.0000
  C   C3162     1.0  0.63821  0.45468  0.11957  1.0000
  C   C3163     1.0  0.70419  0.20498  0.30703  1.0000
  H   H5597     1.0  0.61185  0.20391  0.07828  1.0000
  C   C3164     1.0  0.61599  0.24464  0.27419  1.0000
  H   H5598     1.0  0.77472  0.08987  0.33986  1.0000
  H   H5599     1.0  0.60428  0.19000  0.40607  1.0000
  H   H5600     1.0  0.65456  0.26839  0.22930  1.0000
  C   C3165     1.0  0.62295  0.24397  0.24153  1.0000
  C   C3166     1.0  0.69630  0.45129  0.06203  1.0000
  H   H5601     1.0  0.67811  0.03056  0.34742  1.0000
  H   H5602     1.0  0.72050  0.28661  0.15180  1.0000
  H   H5603     1.0  0.59799  0.05962  0.33068  1.0000
  H   H5604     1.0  0.68058  0.30458  0.15542  1.0000
  H   H5605     1.0  0.76375  0.98618  0.39733  1.0000
  H   H5606     1.0  0.60493  0.06280  0.36028  1.0000
  H   H5607     1.0  0.59091  0.17894  0.99993  1.0000
  H   H5608     1.0  0.76952  0.29837  0.10573  1.0000
  C   C3167     1.0  0.70315  0.07178  0.97319  1.0000
  C   C3168     1.0  0.59813  0.17398  0.03930  1.0000
  C   C3169     1.0  0.74028  0.06557  0.03459  1.0000
  C   C3170     1.0  0.59252  0.42591  0.32042  1.0000
  H   H5609     1.0  0.76434  0.26310  0.19332  1.0000
  H   H5610     1.0  0.75663  0.43223  0.06352  1.0000
  H   H5611     1.0  0.75235  0.28734  0.13899  1.0000
  S   S710      1.0  0.66261  0.06629  0.43923  1.0000
  H   H5612     1.0  0.62536  0.16361  0.43483  1.0000
  C   C3171     1.0  0.77094  0.18960  0.31003  1.0000
  H   H5613     1.0  0.60625  0.20651  0.22545  1.0000
  C   C3172     1.0  0.61109  0.03173  0.00317  1.0000
  H   H5614     1.0  0.68452  0.13332  0.07256  1.0000
  H   H5615     1.0  0.76942  0.40872  0.04724  1.0000
  C   C3173     1.0  0.59205  0.05847  0.36036  1.0000
  C   C3174     1.0  0.75040  0.17080  0.33375  1.0000
  C   C3175     1.0  0.74618  0.31405  0.12224  1.0000
  H   H5616     1.0  0.59529  0.26050  0.43796  1.0000
  C   C3176     1.0  0.59428  0.19033  0.25151  1.0000
  H   H5617     1.0  0.61534  0.44327  0.08401  1.0000
  C   C3177     1.0  0.60878  0.18592  0.41950  1.0000
  H   H5618     1.0  0.66703  0.11818  0.06666  1.0000
  N   N172      1.0  0.62712  0.28690  0.38889  1.0000
  H   H5619     1.0  0.63056  0.10645  0.08805  1.0000
  H   H5620     1.0  0.73422  0.35202  0.17641  1.0000
  C   C3178     1.0  0.63453  0.46139  0.06964  1.0000
  C   C3179     1.0  0.65743  0.45311  0.11589  1.0000
  H   H5621     1.0  0.74115  0.32870  0.12314  1.0000
  C   C3180     1.0  0.60013  0.14192  0.05464  1.0000
  H   H5622     1.0  0.73918  0.18490  0.30218  1.0000
  C   C3181     1.0  0.71771  0.30040  0.15527  1.0000
  H   H5623     1.0  0.77422  0.31856  0.11041  1.0000
  C   C3182     1.0  0.69995  0.15406  0.06922  1.0000
  H   H5624     1.0  0.58668  0.01039  0.05728  1.0000
  H   H5625     1.0  0.68499  0.99767  0.36062  1.0000
  S   S711      1.0  0.60403  0.28306  0.17574  1.0000
  H   H5626     1.0  0.76062  0.47143  0.04272  1.0000
  Fe  Fe359     1.0  0.61535  0.25814  0.19543  1.0000
  C   C3183     1.0  0.66846  0.14967  0.39001  1.0000
  C   C3184     1.0  0.66576  0.16022  0.06934  1.0000
  C   C3185     1.0  0.67516  0.16818  0.38286  1.0000
  C   C3186     1.0  0.69321  0.16609  0.36860  1.0000
  Fe  Fe360     1.0  0.59815  0.43660  0.13311  1.0000
  H   H5627     1.0  0.63367  0.16984  0.39213  1.0000
  H   H5628     1.0  0.68060  0.13869  0.39295  1.0000
  H   H5629     1.0  0.66475  0.14700  0.37787  1.0000
  H   H5630     1.0  0.70279  0.43770  0.05831  1.0000
  H   H5631     1.0  0.66644  0.11566  0.39097  1.0000
  H   H5632     1.0  0.66469  0.17871  0.37607  1.0000
  H   H5633     1.0  0.67753  0.17351  0.39400  1.0000
  H   H5634     1.0  0.69153  0.16086  0.35697  1.0000
  H   H5635     1.0  0.69725  0.17964  0.36307  1.0000
  H   H5636     1.0  0.70447  0.15655  0.37501  1.0000
  H   H5637     1.0  0.74058  0.06677  0.00594  1.0000
  S   S712      1.0  0.60597  0.21494  0.34234  1.0000
  C   C3187     1.0  0.60934  0.19102  0.08818  1.0000
  H   H5638     1.0  0.59423  0.32050  0.18038  1.0000
  C   C3188     1.0  0.60381  0.02497  0.42403  1.0000
  C   C3189     1.0  0.61079  0.97540  0.33802  1.0000
  C   C3190     1.0  0.74390  0.27132  0.17582  1.0000
  H   H5639     1.0  0.72221  0.32568  0.17367  1.0000
  H   H5640     1.0  0.73068  0.23503  0.34869  1.0000
  H   H5641     1.0  0.76998  0.39922  0.07649  1.0000
  C   C3191     1.0  0.72482  0.03623  0.02310  1.0000
  C   C3192     1.0  0.76366  0.31285  0.10717  1.0000
  H   H5642     1.0  0.73559  0.30947  0.11775  1.0000
  H   H5643     1.0  0.60745  0.36480  0.22876  1.0000
  H   H5644     1.0  0.66940  0.28068  0.23419  1.0000
  H   H5645     1.0  0.61196  0.47332  0.12246  1.0000
  S   S713      1.0  0.60843  0.11833  0.05495  1.0000
  H   H5646     1.0  0.67660  0.05482  0.03635  1.0000
  N   N173      1.0  0.71610  0.05639  0.02197  1.0000
  H   H5647     1.0  0.66747  0.17462  0.06311  1.0000
  H   H5648     1.0  0.61155  0.44341  0.28658  1.0000
  S   S714      1.0  0.63018  0.24178  0.17358  1.0000
  S   S715      1.0  0.75216  0.16942  0.42804  1.0000
  H   H5649     1.0  0.62817  0.14061  0.07820  1.0000
  C   C3193     1.0  0.74896  0.20272  0.33498  1.0000
  H   H5650     1.0  0.76629  0.98573  0.30233  1.0000
  Fe  Fe361     1.0  0.77701  0.25317  0.11962  1.0000
  S   S716      1.0  0.64009  0.26876  0.19555  1.0000
  H   H5651     1.0  0.60249  0.18429  0.02755  1.0000
  H   H5652     1.0  0.61910  0.25053  0.43994  1.0000
  C   C3194     1.0  0.60065  0.37105  0.16420  1.0000
  C   C3195     1.0  0.60415  0.24632  0.24175  1.0000
  C   C3196     1.0  0.62663  0.17581  0.08674  1.0000
  C   C3197     1.0  0.78378  0.40852  0.03939  1.0000
  H   H5653     1.0  0.77972  0.16016  0.33639  1.0000
  H   H5654     1.0  0.59995  0.45475  0.19107  1.0000
  H   H5655     1.0  0.61101  0.31724  0.14350  1.0000
  C   C3198     1.0  0.59935  0.01747  0.41115  1.0000
  H   H5656     1.0  0.75514  0.35744  0.16104  1.0000
  C   C3199     1.0  0.60980  0.01901  0.39322  1.0000
  H   H5657     1.0  0.59076  0.99084  0.04658  1.0000
  C   C3200     1.0  0.75003  0.30167  0.14084  1.0000
  H   H5658     1.0  0.61608  0.19629  0.42066  1.0000
  N   N174      1.0  0.64950  0.15643  0.06404  1.0000
  H   H5659     1.0  0.62702  0.31421  0.37194  1.0000
  H   H5660     1.0  0.63309  0.27660  0.34643  1.0000
  C   C3201     1.0  0.60485  0.19204  0.23155  1.0000
  C   C3202     1.0  0.68471  0.14745  0.06447  1.0000
  H   H5661     1.0  0.76029  0.99776  0.28054  1.0000
  C   C3203     1.0  0.67925  0.26212  0.38376  1.0000
  H   H5662     1.0  0.59475  0.09000  0.37558  1.0000
  C   C3204     1.0  0.77677  0.21092  0.99955  1.0000
  H   H5663     1.0  0.59862  0.03881  0.99819  1.0000
  H   H5664     1.0  0.64054  0.29434  0.35174  1.0000
  C   C3205     1.0  0.63358  0.17247  0.06673  1.0000
  H   H5665     1.0  0.62962  0.35980  0.16367  1.0000
  S   S717      1.0  0.64628  0.27918  0.15061  1.0000
  H   H5666     1.0  0.63944  0.32904  0.13116  1.0000
  N   N175      1.0  0.60577  0.30838  0.23918  1.0000
  H   H5667     1.0  0.62643  0.36400  0.20928  1.0000
  H   H5668     1.0  0.60232  0.19494  0.25912  1.0000
  H   H5669     1.0  0.62757  0.43155  0.30168  1.0000
  H   H5670     1.0  0.77206  0.39012  0.10942  1.0000
  H   H5671     1.0  0.72606  0.05187  0.45905  1.0000
  C   C3206     1.0  0.77486  0.99824  0.36147  1.0000
  C   C3207     1.0  0.78364  0.98246  0.42099  1.0000
  S   S718      1.0  0.78243  0.22509  0.13721  1.0000
  H   H5672     1.0  0.61475  0.46657  0.45917  1.0000
  H   H5673     1.0  0.76918  0.98842  0.35711  1.0000
  H   H5674     1.0  0.74076  0.00659  0.00498  1.0000
  H   H5675     1.0  0.60354  0.25886  0.40473  1.0000
  C   C3208     1.0  0.76504  0.20081  0.45733  1.0000
  C   C3209     1.0  0.60089  0.32342  0.11771  1.0000
  H   H5676     1.0  0.76446  0.00767  0.00333  1.0000
  C   C3210     1.0  0.62675  0.47195  0.12006  1.0000
  H   H5677     1.0  0.78271  0.00598  0.34897  1.0000
  H   H5678     1.0  0.60544  0.23751  0.43417  1.0000
  Fe  Fe362     1.0  0.77980  0.15077  0.04514  1.0000
  H   H5679     1.0  0.65415  0.46985  0.03352  1.0000
  H   H5680     1.0  0.64862  0.98257  0.37972  1.0000
  H   H5681     1.0  0.61192  0.97734  0.35156  1.0000
  H   H5682     1.0  0.60113  0.97646  0.97080  1.0000
  H   H5683     1.0  0.58934  0.17282  0.97906  1.0000
  H   H5684     1.0  0.76652  0.38102  0.03747  1.0000
  H   H5685     1.0  0.60485  0.46491  0.07140  1.0000
  H   H5686     1.0  0.72703  0.09858  0.46591  1.0000
  C   C3211     1.0  0.59569  0.04944  0.34377  1.0000
  S   S719      1.0  0.77530  0.18000  0.04849  1.0000
  H   H5687     1.0  0.78136  0.04552  0.08825  1.0000
  H   H5688     1.0  0.74978  0.00272  0.02567  1.0000
  C   C3212     1.0  0.59100  0.31146  0.22822  1.0000
  H   H5689     1.0  0.77119  0.19819  0.00590  1.0000
  S   S720      1.0  0.58520  0.42768  0.16291  1.0000
  H   H5690     1.0  0.63742  0.45596  0.05691  1.0000
  H   H5691     1.0  0.59590  0.31793  0.21368  1.0000
  C   C3213     1.0  0.59234  0.20039  0.30626  1.0000
  H   H5692     1.0  0.59380  0.17562  0.25705  1.0000
  H   H5693     1.0  0.59118  0.06874  0.38984  1.0000
  C   C3214     1.0  0.64924  0.97931  0.39456  1.0000
  H   H5694     1.0  0.59580  0.33574  0.24491  1.0000
  H   H5695     1.0  0.78131  0.00934  0.40237  1.0000
  H   H5696     1.0  0.59076  0.09526  0.42412  1.0000
  H   H5697     1.0  0.58719  0.24783  0.28705  1.0000
  N   N176      1.0  0.66808  0.97996  0.39697  1.0000
  H   H5698     1.0  0.78495  0.03638  0.05643  1.0000
  C   C3215     1.0  0.78467  0.39119  0.09851  1.0000
  Fe  Fe363     1.0  0.73861  0.03134  0.58687  1.0000
  S   S721      1.0  0.75768  0.00959  0.57249  1.0000
  S   S722      1.0  0.74798  0.05708  0.58682  1.0000
  Fe  Fe364     1.0  0.70596  0.01204  0.59627  1.0000
  S   S723      1.0  0.67539  0.01652  0.60887  1.0000
  Fe  Fe365     1.0  0.74502  0.98977  0.59626  1.0000
  Fe  Fe366     1.0  0.73370  0.01012  0.56027  1.0000
  S   S724      1.0  0.73891  0.00689  0.53084  1.0000
  S   S725      1.0  0.72758  0.01152  0.61177  1.0000
  S   S726      1.0  0.71560  0.03376  0.57249  1.0000
  S   S727      1.0  0.67729  0.05113  0.48569  1.0000
  Fe  Fe367     1.0  0.61079  0.12062  0.84156  1.0000
  C   C3216     1.0  0.59844  0.05735  0.95274  1.0000
  S   S728      1.0  0.62618  0.14052  0.81980  1.0000
  H   H5699     1.0  0.75179  0.11325  0.47026  1.0000
  H   H5700     1.0  0.72356  0.33121  0.51416  1.0000
  H   H5701     1.0  0.74461  0.29671  0.81431  1.0000
  H   H5702     1.0  0.63516  0.31628  0.53270  1.0000
  S   S729      1.0  0.62106  0.09032  0.85047  1.0000
  H   H5703     1.0  0.74265  0.42860  0.91393  1.0000
  S   S730      1.0  0.76605  0.46288  0.80175  1.0000
  Fe  Fe368     1.0  0.70634  0.38437  0.58774  1.0000
  S   S731      1.0  0.72206  0.35538  0.59365  1.0000
  S   S732      1.0  0.67533  0.38904  0.59069  1.0000
  Fe  Fe369     1.0  0.74025  0.40040  0.58444  1.0000
  S   S733      1.0  0.75871  0.37271  0.58976  1.0000
  H   H5704     1.0  0.66074  0.01273  0.57364  1.0000
  Fe  Fe370     1.0  0.74465  0.36517  0.57105  1.0000
  H   H5705     1.0  0.71037  0.45580  0.83482  1.0000
  Fe  Fe371     1.0  0.73465  0.36539  0.61184  1.0000
  S   S734      1.0  0.73876  0.34782  0.63937  1.0000
  S   S735      1.0  0.72800  0.39368  0.56364  1.0000
  S   S736      1.0  0.71708  0.39363  0.60787  1.0000
  Fe  Fe372     1.0  0.72565  0.19928  0.80477  1.0000
  S   S737      1.0  0.73001  0.17588  0.82869  1.0000
  S   S738      1.0  0.70781  0.22600  0.81129  1.0000
  Fe  Fe373     1.0  0.74854  0.17656  0.77666  1.0000
  S   S739      1.0  0.75442  0.15139  0.79835  1.0000
  Fe  Fe374     1.0  0.72449  0.15892  0.81147  1.0000
  S   S740      1.0  0.70892  0.13585  0.82477  1.0000
  Fe  Fe375     1.0  0.75946  0.17061  0.81357  1.0000
  S   S741      1.0  0.71799  0.18266  0.78852  1.0000
  Fe  Fe376     1.0  0.70499  0.32380  0.75385  1.0000
  S   S742      1.0  0.72186  0.34556  0.74078  1.0000
  S   S743      1.0  0.71752  0.29559  0.74748  1.0000
  Fe  Fe377     1.0  0.67329  0.35029  0.77214  1.0000
  S   S744      1.0  0.68769  0.37424  0.76086  1.0000
  S   S745      1.0  0.64565  0.35406  0.79182  1.0000
  Fe  Fe378     1.0  0.69532  0.36364  0.73458  1.0000
  S   S746      1.0  0.69403  0.38340  0.70746  1.0000
  Fe  Fe379     1.0  0.71305  0.35421  0.76804  1.0000
  S   S747      1.0  0.73553  0.35836  0.78012  1.0000
  S   S748      1.0  0.67902  0.34121  0.74519  1.0000
  S   S749      1.0  0.69810  0.33100  0.78172  1.0000
  Fe  Fe380     1.0  0.75475  0.43710  0.81327  1.0000
  S   S750      1.0  0.73199  0.43442  0.80070  1.0000
  C   C3217     1.0  0.73091  0.08737  0.47755  1.0000
  H   H5706     1.0  0.66261  0.36302  0.50691  1.0000
  H   H5707     1.0  0.61566  0.98344  0.58883  1.0000
  C   C3218     1.0  0.72326  0.36437  0.51722  1.0000
  H   H5708     1.0  0.59957  0.38017  0.65112  1.0000
  H   H5709     1.0  0.67018  0.02523  0.64657  1.0000
  S   S751      1.0  0.74921  0.44057  0.84251  1.0000
  Fe  Fe381     1.0  0.60965  0.43313  0.52412  1.0000
  C   C3219     1.0  0.58760  0.35570  0.49804  1.0000
  S   S752      1.0  0.63980  0.41939  0.51970  1.0000
  H   H5710     1.0  0.73574  0.28376  0.83615  1.0000
  C   C3220     1.0  0.66471  0.40106  0.80623  1.0000
  C   C3221     1.0  0.76923  0.26632  0.81983  1.0000
  C   C3222     1.0  0.59640  0.39835  0.84410  1.0000
  C   C3223     1.0  0.59558  0.35080  0.52868  1.0000
  S   S753      1.0  0.76856  0.10589  0.66565  1.0000
  H   H5711     1.0  0.73768  0.37632  0.71367  1.0000
  C   C3224     1.0  0.74965  0.46992  0.75997  1.0000
  C   C3225     1.0  0.59233  0.35671  0.79071  1.0000
  C   C3226     1.0  0.62110  0.03248  0.92390  1.0000
  H   H5712     1.0  0.71401  0.18737  0.74263  1.0000
  C   C3227     1.0  0.59765  0.40577  0.76444  1.0000
  C   C3228     1.0  0.68557  0.98247  0.55856  1.0000
  C   C3229     1.0  0.72622  0.39775  0.72911  1.0000
  H   H5713     1.0  0.75782  0.18447  0.96546  1.0000
  H   H5714     1.0  0.73897  0.21227  0.52770  1.0000
  H   H5715     1.0  0.73533  0.43614  0.63399  1.0000
  C   C3230     1.0  0.63346  0.98955  0.61811  1.0000
  H   H5716     1.0  0.75730  0.46788  0.93907  1.0000
  S   S754      1.0  0.72242  0.98850  0.58297  1.0000
  C   C3231     1.0  0.73419  0.37960  0.78581  1.0000
  C   C3232     1.0  0.74772  0.38140  0.79433  1.0000
  C   C3233     1.0  0.74723  0.39818  0.79888  1.0000
  C   C3234     1.0  0.73314  0.41326  0.79496  1.0000
  C   C3235     1.0  0.71968  0.41154  0.78628  1.0000
  C   C3236     1.0  0.72019  0.39474  0.78170  1.0000
  H   H5717     1.0  0.75857  0.36971  0.79755  1.0000
  H   H5718     1.0  0.75758  0.39932  0.80567  1.0000
  H   H5719     1.0  0.70874  0.42318  0.78322  1.0000
  H   H5720     1.0  0.70974  0.39350  0.77510  1.0000
  C   C3237     1.0  0.76562  0.14030  0.74918  1.0000
  C   C3238     1.0  0.77255  0.38368  0.74714  1.0000
  C   C3239     1.0  0.78307  0.39900  0.73683  1.0000
  H   H5721     1.0  0.64620  0.99752  0.68838  1.0000
  C   C3240     1.0  0.61309  0.33683  0.52199  1.0000
  C   C3241     1.0  0.70962  0.24514  0.79313  1.0000
  C   C3242     1.0  0.69978  0.26261  0.79593  1.0000
  C   C3243     1.0  0.70182  0.27820  0.78188  1.0000
  C   C3244     1.0  0.71360  0.27631  0.76495  1.0000
  C   C3245     1.0  0.72293  0.25875  0.76197  1.0000
  C   C3246     1.0  0.72110  0.24321  0.77608  1.0000
  H   H5722     1.0  0.69066  0.26410  0.80901  1.0000
  H   H5723     1.0  0.69430  0.29165  0.78415  1.0000
  H   H5724     1.0  0.73186  0.25721  0.74880  1.0000
  H   H5725     1.0  0.72858  0.22976  0.77375  1.0000
  H   H5726     1.0  0.68700  0.97852  0.60405  1.0000
  C   C3247     1.0  0.66571  0.39820  0.57084  1.0000
  C   C3248     1.0  0.67690  0.40104  0.55327  1.0000
  C   C3249     1.0  0.66883  0.40773  0.53765  1.0000
  C   C3250     1.0  0.64955  0.41186  0.53953  1.0000
  C   C3251     1.0  0.63836  0.40933  0.55712  1.0000
  C   C3252     1.0  0.64644  0.40238  0.57272  1.0000
  H   H5727     1.0  0.69175  0.39808  0.55172  1.0000
  H   H5728     1.0  0.67753  0.40981  0.52408  1.0000
  H   H5729     1.0  0.62349  0.41252  0.55871  1.0000
  H   H5730     1.0  0.63771  0.40028  0.58627  1.0000
  C   C3253     1.0  0.76019  0.32686  0.55122  1.0000
  C   C3254     1.0  0.74917  0.31800  0.56669  1.0000
  C   C3255     1.0  0.74745  0.29991  0.56782  1.0000
  C   C3256     1.0  0.75726  0.29040  0.55380  1.0000
  H   H5731     1.0  0.60643  0.41522  0.75500  1.0000
  H   H5732     1.0  0.75760  0.23287  0.49178  1.0000
  H   H5733     1.0  0.74179  0.32508  0.57768  1.0000
  H   H5734     1.0  0.73616  0.41706  0.69649  1.0000
  C   C3257     1.0  0.72709  0.35788  0.65840  1.0000
  C   C3258     1.0  0.72393  0.34673  0.67595  1.0000
  C   C3259     1.0  0.71393  0.35449  0.69117  1.0000
  C   C3260     1.0  0.70703  0.37343  0.68882  1.0000
  C   C3261     1.0  0.71043  0.38462  0.67133  1.0000
  C   C3262     1.0  0.72069  0.37687  0.65621  1.0000
  H   H5735     1.0  0.72896  0.33201  0.67776  1.0000
  H   H5736     1.0  0.71128  0.34575  0.70464  1.0000
  H   H5737     1.0  0.70522  0.39929  0.66950  1.0000
  H   H5738     1.0  0.72377  0.38563  0.64293  1.0000
  S   S755      1.0  0.75420  0.26815  0.55494  1.0000
  N   N177      1.0  0.71028  0.12436  0.76350  1.0000
  H   H5739     1.0  0.66002  0.99779  0.51267  1.0000
  H   H5740     1.0  0.61888  0.05074  0.88789  1.0000
  C   C3263     1.0  0.61050  0.34992  0.76155  1.0000
  C   C3264     1.0  0.62673  0.35001  0.76704  1.0000
  C   C3265     1.0  0.62581  0.35308  0.78453  1.0000
  C   C3266     1.0  0.60859  0.35599  0.79646  1.0000
  H   H5741     1.0  0.59283  0.37005  0.85528  1.0000
  H   H5742     1.0  0.61128  0.34740  0.74807  1.0000
  H   H5743     1.0  0.63989  0.34767  0.75775  1.0000
  H   H5744     1.0  0.60784  0.35772  0.81019  1.0000
  H   H5745     1.0  0.73871  0.11014  0.80749  1.0000
  C   C3267     1.0  0.64920  0.13923  0.82110  1.0000
  C   C3268     1.0  0.65920  0.12325  0.83028  1.0000
  C   C3269     1.0  0.67759  0.12237  0.83102  1.0000
  C   C3270     1.0  0.68601  0.13756  0.82293  1.0000
  C   C3271     1.0  0.67601  0.15364  0.81385  1.0000
  C   C3272     1.0  0.65766  0.15442  0.81285  1.0000
  H   H5746     1.0  0.65282  0.11148  0.83667  1.0000
  H   H5747     1.0  0.68531  0.10988  0.83799  1.0000
  H   H5748     1.0  0.68237  0.16546  0.80765  1.0000
  H   H5749     1.0  0.64993  0.16689  0.80585  1.0000
  C   C3273     1.0  0.61268  0.44316  0.79593  1.0000
  H   H5750     1.0  0.75429  0.38780  0.71664  1.0000
  H   H5751     1.0  0.61846  0.00134  0.96523  1.0000
  N   N178      1.0  0.77923  0.16904  0.90651  1.0000
  H   H5752     1.0  0.75531  0.41220  0.89982  1.0000
  H   H5753     1.0  0.68232  0.42744  0.61932  1.0000
  H   H5754     1.0  0.59443  0.02893  0.91982  1.0000
  H   H5755     1.0  0.73690  0.35524  0.51365  1.0000
  C   C3274     1.0  0.60182  0.46266  0.79691  1.0000
  C   C3275     1.0  0.70794  0.47079  0.82894  1.0000
  H   H5756     1.0  0.63667  0.01675  0.61809  1.0000
  H   H5757     1.0  0.60220  0.35116  0.49150  1.0000
  H   H5758     1.0  0.59470  0.99147  0.69938  1.0000
  C   C3276     1.0  0.76534  0.07203  0.60496  1.0000
  C   C3277     1.0  0.75882  0.05654  0.60473  1.0000
  C   C3278     1.0  0.76041  0.04121  0.61909  1.0000
  H   H5759     1.0  0.60619  0.02846  0.63338  1.0000
  H   H5760     1.0  0.71179  0.32639  0.56449  1.0000
  H   H5761     1.0  0.75534  0.02926  0.61906  1.0000
  H   H5762     1.0  0.63376  0.04504  0.94702  1.0000
  C   C3279     1.0  0.69431  0.03836  0.49811  1.0000
  C   C3280     1.0  0.70882  0.02531  0.49086  1.0000
  C   C3281     1.0  0.72250  0.01568  0.50100  1.0000
  C   C3282     1.0  0.72153  0.01888  0.51849  1.0000
  C   C3283     1.0  0.70684  0.03172  0.52580  1.0000
  C   C3284     1.0  0.69336  0.04155  0.51558  1.0000
  H   H5763     1.0  0.70959  0.02276  0.47740  1.0000
  H   H5764     1.0  0.73384  0.00572  0.49530  1.0000
  H   H5765     1.0  0.70597  0.03427  0.53922  1.0000
  H   H5766     1.0  0.68218  0.05168  0.52119  1.0000
  H   H5767     1.0  0.73542  0.08675  0.81435  1.0000
  S   S756      1.0  0.75563  0.19547  0.79099  1.0000
  H   H5768     1.0  0.66079  0.10767  0.49748  1.0000
  N   N179      1.0  0.64990  0.15503  0.87742  1.0000
  C   C3285     1.0  0.63766  0.15734  0.86401  1.0000
  C   C3286     1.0  0.66364  0.13712  0.87696  1.0000
  C   C3287     1.0  0.63791  0.15527  0.89636  1.0000
  C   C3288     1.0  0.66042  0.17047  0.87242  1.0000
  C   C3289     1.0  0.67124  0.17438  0.85221  1.0000
  C   C3290     1.0  0.62370  0.17590  0.86141  1.0000
  C   C3291     1.0  0.64819  0.14883  0.91266  1.0000
  C   C3292     1.0  0.65532  0.11952  0.88243  1.0000
  C   C3293     1.0  0.67041  0.10227  0.88482  1.0000
  C   C3294     1.0  0.68046  0.19084  0.84861  1.0000
  C   C3295     1.0  0.61278  0.17708  0.84680  1.0000
  C   C3296     1.0  0.63532  0.15332  0.93046  1.0000
  H   H5769     1.0  0.62933  0.14644  0.86844  1.0000
  H   H5770     1.0  0.64610  0.15522  0.85036  1.0000
  H   H5771     1.0  0.67213  0.13704  0.86287  1.0000
  H   H5772     1.0  0.67376  0.13561  0.88573  1.0000
  H   H5773     1.0  0.62730  0.14668  0.89916  1.0000
  H   H5774     1.0  0.62980  0.16939  0.89713  1.0000
  H   H5775     1.0  0.65101  0.18352  0.87533  1.0000
  H   H5776     1.0  0.67074  0.16761  0.88127  1.0000
  H   H5777     1.0  0.66205  0.17761  0.84221  1.0000
  H   H5778     1.0  0.68230  0.16242  0.84921  1.0000
  H   H5779     1.0  0.61361  0.17740  0.87446  1.0000
  H   H5780     1.0  0.63076  0.18774  0.85694  1.0000
  H   H5781     1.0  0.66014  0.15553  0.91011  1.0000
  H   H5782     1.0  0.65332  0.13372  0.91499  1.0000
  H   H5783     1.0  0.64497  0.11910  0.89549  1.0000
  H   H5784     1.0  0.64848  0.11877  0.87152  1.0000
  H   H5785     1.0  0.66435  0.08986  0.88766  1.0000
  H   H5786     1.0  0.68132  0.10206  0.87213  1.0000
  H   H5787     1.0  0.67671  0.10166  0.89661  1.0000
  H   H5788     1.0  0.69066  0.18810  0.85754  1.0000
  H   H5789     1.0  0.68784  0.19345  0.83401  1.0000
  H   H5790     1.0  0.67000  0.20341  0.85105  1.0000
  H   H5791     1.0  0.60516  0.16564  0.85060  1.0000
  C   C3297     1.0  0.68862  0.34484  0.52861  1.0000
  C   C3298     1.0  0.58560  0.38419  0.85701  1.0000
  H   H5792     1.0  0.62249  0.14797  0.93300  1.0000
  H   H5793     1.0  0.64228  0.14685  0.94229  1.0000
  H   H5794     1.0  0.63160  0.16841  0.92968  1.0000
  H   H5795     1.0  0.71105  0.07078  0.95905  1.0000
  C   C3299     1.0  0.62281  0.32627  0.53783  1.0000
  H   H5796     1.0  0.64855  0.04169  0.58558  1.0000
  C   C3300     1.0  0.59374  0.38180  0.50825  1.0000
  C   C3301     1.0  0.60964  0.04067  0.89379  1.0000
  H   H5797     1.0  0.77317  0.38051  0.64913  1.0000
  C   C3302     1.0  0.69009  0.10472  0.49617  1.0000
  H   H5798     1.0  0.59718  0.04573  0.88755  1.0000
  H   H5799     1.0  0.76220  0.14503  0.57966  1.0000
  C   C3303     1.0  0.63588  0.00576  0.67994  1.0000
  C   C3304     1.0  0.76593  0.15745  0.73744  1.0000
  S   S757      1.0  0.58547  0.06279  0.84502  1.0000
  H   H5800     1.0  0.59105  0.31939  0.80499  1.0000
  H   H5801     1.0  0.70426  0.17701  0.72956  1.0000
  N   N180      1.0  0.61762  0.02643  0.94466  1.0000
  H   H5802     1.0  0.60221  0.99177  0.66649  1.0000
  C   C3305     1.0  0.68489  0.34387  0.57051  1.0000
  C   C3306     1.0  0.68210  0.33406  0.59070  1.0000
  C   C3307     1.0  0.72586  0.11447  0.49117  1.0000
  C   C3308     1.0  0.76021  0.18788  0.53242  1.0000
  H   H5803     1.0  0.58807  0.46467  0.79344  1.0000
  H   H5804     1.0  0.68926  0.35682  0.56973  1.0000
  H   H5805     1.0  0.67128  0.34702  0.56652  1.0000
  H   H5806     1.0  0.67646  0.32153  0.59262  1.0000
  H   H5807     1.0  0.69540  0.33010  0.59548  1.0000
  H   H5808     1.0  0.67221  0.34344  0.59927  1.0000
  C   C3309     1.0  0.61424  0.11101  0.94906  1.0000
  H   H5809     1.0  0.75747  0.14354  0.47026  1.0000
  C   C3310     1.0  0.71970  0.32599  0.52925  1.0000
  H   H5810     1.0  0.59918  0.30791  0.78567  1.0000
  H   H5811     1.0  0.72933  0.41059  0.73072  1.0000
  C   C3311     1.0  0.63893  0.01925  0.50264  1.0000
  C   C3312     1.0  0.60275  0.42880  0.81031  1.0000
  H   H5812     1.0  0.61340  0.31856  0.54886  1.0000
  H   H5813     1.0  0.58594  0.34205  0.53804  1.0000
  H   H5814     1.0  0.74624  0.08349  0.47378  1.0000
  H   H5815     1.0  0.59865  0.11337  0.91039  1.0000
  C   C3313     1.0  0.74040  0.38992  0.71357  1.0000
  C   C3314     1.0  0.76979  0.17567  0.93946  1.0000
  C   C3315     1.0  0.63285  0.03027  0.95167  1.0000
  H   H5816     1.0  0.72664  0.38757  0.74226  1.0000
  C   C3316     1.0  0.75970  0.22390  0.48226  1.0000
  H   H5817     1.0  0.62404  0.01422  0.57715  1.0000
  C   C3317     1.0  0.61409  0.38019  0.49791  1.0000
  S   S758      1.0  0.58644  0.41953  0.54159  1.0000
  C   C3318     1.0  0.68715  0.46618  0.92143  1.0000
  H   H5818     1.0  0.60648  0.05925  0.96215  1.0000
  C   C3319     1.0  0.75310  0.18285  0.95347  1.0000
  H   H5819     1.0  0.77903  0.25353  0.81702  1.0000
  H   H5820     1.0  0.68520  0.00145  0.53227  1.0000
  H   H5821     1.0  0.63051  0.41103  0.82490  1.0000
  C   C3320     1.0  0.67647  0.36443  0.52808  1.0000
  H   H5822     1.0  0.77522  0.16295  0.65713  1.0000
  C   C3321     1.0  0.74302  0.20142  0.53947  1.0000
  H   H5823     1.0  0.72545  0.28162  0.52128  1.0000
  C   C3322     1.0  0.75540  0.23218  0.83084  1.0000
  H   H5824     1.0  0.71205  0.40066  0.72640  1.0000
  Fe  Fe382     1.0  0.76274  0.46488  0.83102  1.0000
  H   H5825     1.0  0.62970  0.02762  0.96701  1.0000
  C   C3323     1.0  0.76960  0.12437  0.74185  1.0000
  H   H5826     1.0  0.67343  0.00864  0.66734  1.0000
  C   C3324     1.0  0.72834  0.29570  0.51819  1.0000
  H   H5827     1.0  0.78140  0.40252  0.72228  1.0000
  C   C3325     1.0  0.73745  0.12288  0.63222  1.0000
  H   H5828     1.0  0.66398  0.41139  0.81441  1.0000
  H   H5829     1.0  0.68855  0.99151  0.56624  1.0000
  H   H5830     1.0  0.62644  0.44225  0.79882  1.0000
  C   C3326     1.0  0.75994  0.37925  0.67850  1.0000
  H   H5831     1.0  0.67216  0.36821  0.54175  1.0000
  H   H5832     1.0  0.62202  0.46048  0.56894  1.0000
  H   H5833     1.0  0.61003  0.39554  0.84800  1.0000
  H   H5834     1.0  0.77130  0.42960  0.93303  1.0000
  H   H5835     1.0  0.58882  0.41211  0.84671  1.0000
  H   H5836     1.0  0.74285  0.29445  0.51929  1.0000
  H   H5837     1.0  0.60277  0.99076  0.74646  1.0000
  H   H5838     1.0  0.77089  0.17178  0.70922  1.0000
  H   H5839     1.0  0.59984  0.46543  0.81092  1.0000
  C   C3327     1.0  0.69929  0.33151  0.55825  1.0000
  H   H5840     1.0  0.63390  0.39771  0.48380  1.0000
  H   H5841     1.0  0.73133  0.19426  0.54615  1.0000
  H   H5842     1.0  0.74576  0.20814  0.54950  1.0000
  H   H5843     1.0  0.61658  0.40652  0.50191  1.0000
  C   C3328     1.0  0.62399  0.00608  0.56706  1.0000
  H   H5844     1.0  0.77703  0.11681  0.52215  1.0000
  H   H5845     1.0  0.73256  0.32367  0.53453  1.0000
  C   C3329     1.0  0.63243  0.08699  0.93277  1.0000
  H   H5846     1.0  0.73357  0.25355  0.84015  1.0000
  C   C3330     1.0  0.60396  0.03867  0.91471  1.0000
  H   H5847     1.0  0.68812  0.45189  0.92951  1.0000
  H   H5848     1.0  0.64002  0.47308  0.56566  1.0000
  C   C3331     1.0  0.67188  0.09806  0.50410  1.0000
  H   H5849     1.0  0.71515  0.36552  0.50669  1.0000
  C   C3332     1.0  0.73755  0.09822  0.80238  1.0000
  C   C3333     1.0  0.61156  0.00119  0.66551  1.0000
  H   H5850     1.0  0.75070  0.09384  0.79292  1.0000
  C   C3334     1.0  0.71852  0.28926  0.81641  1.0000
  S   S759      1.0  0.62657  0.08205  0.90082  1.0000
  S   S760      1.0  0.78264  0.41876  0.81415  1.0000
  H   H5851     1.0  0.74278  0.19059  0.67402  1.0000
  C   C3335     1.0  0.74355  0.14031  0.47644  1.0000
  H   H5852     1.0  0.67892  0.43981  0.63744  1.0000
  H   H5853     1.0  0.72676  0.30229  0.50386  1.0000
  H   H5854     1.0  0.73198  0.24882  0.81925  1.0000
  H   H5855     1.0  0.64852  0.02834  0.49413  1.0000
  H   H5856     1.0  0.77640  0.29179  0.52774  1.0000
  N   N181      1.0  0.65749  0.00676  0.54853  1.0000
  C   C3336     1.0  0.65107  0.01769  0.53111  1.0000
  C   C3337     1.0  0.66150  0.01933  0.55883  1.0000
  H   H5857     1.0  0.76569  0.44474  0.77228  1.0000
  H   H5858     1.0  0.65619  0.02023  0.93057  1.0000
  H   H5859     1.0  0.59606  0.05227  0.91753  1.0000
  H   H5860     1.0  0.70788  0.07565  0.47612  1.0000
  C   C3338     1.0  0.61081  0.99290  0.57668  1.0000
  C   C3339     1.0  0.64945  0.03899  0.55771  1.0000
  C   C3340     1.0  0.76836  0.04145  0.63367  1.0000
  H   H5861     1.0  0.77903  0.18573  0.93487  1.0000
  C   C3341     1.0  0.67211  0.98172  0.60782  1.0000
  C   C3342     1.0  0.77689  0.17808  0.59823  1.0000
  C   C3343     1.0  0.59977  0.02102  0.66337  1.0000
  H   H5862     1.0  0.63837  0.02813  0.53411  1.0000
  H   H5863     1.0  0.67294  0.98341  0.53624  1.0000
  H   H5864     1.0  0.67595  0.02155  0.55367  1.0000
  H   H5865     1.0  0.67313  0.08424  0.50129  1.0000
  H   H5866     1.0  0.66790  0.09743  0.51918  1.0000
  H   H5867     1.0  0.67939  0.33476  0.53488  1.0000
  H   H5868     1.0  0.58693  0.02161  0.67412  1.0000
  H   H5869     1.0  0.64578  0.41842  0.78958  1.0000
  H   H5870     1.0  0.60420  0.06395  0.93855  1.0000
  H   H5871     1.0  0.72029  0.12034  0.50386  1.0000
  H   H5872     1.0  0.69329  0.31925  0.55984  1.0000
  H   H5873     1.0  0.71190  0.27711  0.82098  1.0000
  H   H5874     1.0  0.62321  0.34347  0.51098  1.0000
  H   H5875     1.0  0.66793  0.04912  0.56869  1.0000
  H   H5876     1.0  0.60252  0.43154  0.82396  1.0000
  H   H5877     1.0  0.66707  0.04091  0.94425  1.0000
  H   H5878     1.0  0.63762  0.02397  0.65247  1.0000
  H   H5879     1.0  0.61424  0.44131  0.78170  1.0000
  H   H5880     1.0  0.77584  0.46911  0.89611  1.0000
  H   H5881     1.0  0.77916  0.39274  0.69250  1.0000
  C   C3344     1.0  0.76386  0.17227  0.92288  1.0000
  C   C3345     1.0  0.66329  0.01985  0.66083  1.0000
  H   H5882     1.0  0.62170  0.41239  0.78012  1.0000
  C   C3346     1.0  0.61905  0.39915  0.49050  1.0000
  C   C3347     1.0  0.64371  0.00314  0.61592  1.0000
  H   H5883     1.0  0.58650  0.01741  0.64276  1.0000
  N   N182      1.0  0.75574  0.39942  0.67921  1.0000
  C   C3348     1.0  0.75056  0.41057  0.66132  1.0000
  C   C3349     1.0  0.61817  0.00598  0.95030  1.0000
  H   H5884     1.0  0.65162  0.00174  0.65198  1.0000
  H   H5885     1.0  0.75697  0.16020  0.92812  1.0000
  C   C3350     1.0  0.77580  0.19230  0.64745  1.0000
  C   C3351     1.0  0.74181  0.43114  0.66127  1.0000
  H   H5886     1.0  0.60358  0.39581  0.66308  1.0000
  H   H5887     1.0  0.73430  0.45660  0.64213  1.0000
  H   H5888     1.0  0.58797  0.43208  0.80920  1.0000
  H   H5889     1.0  0.69340  0.34346  0.51393  1.0000
  H   H5890     1.0  0.74045  0.40462  0.65755  1.0000
  H   H5891     1.0  0.76257  0.40981  0.64967  1.0000
  H   H5892     1.0  0.73754  0.46373  0.90282  1.0000
  H   H5893     1.0  0.74732  0.37514  0.67741  1.0000
  H   H5894     1.0  0.72646  0.40109  0.69074  1.0000
  H   H5895     1.0  0.61683  0.02723  0.89004  1.0000
  H   H5896     1.0  0.74950  0.44201  0.76027  1.0000
  H   H5897     1.0  0.73743  0.14719  0.48835  1.0000
  H   H5898     1.0  0.76506  0.34955  0.66163  1.0000
  C   C3352     1.0  0.59387  0.40867  0.78421  1.0000
  H   H5899     1.0  0.69350  0.10521  0.48118  1.0000
  H   H5900     1.0  0.77150  0.41203  0.76071  1.0000
  H   H5901     1.0  0.73874  0.47025  0.77267  1.0000
  C   C3353     1.0  0.60331  0.97847  0.95558  1.0000
  H   H5902     1.0  0.66698  0.38705  0.81495  1.0000
  H   H5903     1.0  0.59286  0.38770  0.52036  1.0000
  C   C3354     1.0  0.77033  0.47318  0.93419  1.0000
  C   C3355     1.0  0.71496  0.30684  0.53182  1.0000
  C   C3356     1.0  0.59325  0.35352  0.77329  1.0000
  C   C3357     1.0  0.75991  0.45010  0.75966  1.0000
  H   H5904     1.0  0.73436  0.38856  0.50215  1.0000
  C   C3358     1.0  0.65301  0.04881  0.57117  1.0000
  C   C3359     1.0  0.59954  0.03656  0.95415  1.0000
  C   C3360     1.0  0.73802  0.28458  0.82107  1.0000
  C   C3361     1.0  0.74496  0.21658  0.84009  1.0000
  H   H5905     1.0  0.65363  0.00452  0.95260  1.0000
  C   C3362     1.0  0.77002  0.44557  0.59081  1.0000
  H   H5906     1.0  0.77523  0.17384  0.67508  1.0000
  C   C3363     1.0  0.77333  0.07226  0.61954  1.0000
  H   H5907     1.0  0.58931  0.98244  0.87449  1.0000
  H   H5908     1.0  0.60467  0.39135  0.76368  1.0000
  C   C3364     1.0  0.65623  0.13859  0.77320  1.0000
  S   S761      1.0  0.76013  0.17780  0.74613  1.0000
  H   H5909     1.0  0.70835  0.10582  0.80280  1.0000
  H   H5910     1.0  0.65291  0.04730  0.54363  1.0000
  C   C3365     1.0  0.62985  0.40321  0.81472  1.0000
  H   H5911     1.0  0.73748  0.11955  0.76957  1.0000
  H   H5912     1.0  0.73926  0.10989  0.73554  1.0000
  S   S762      1.0  0.76982  0.14966  0.62693  1.0000
  H   H5913     1.0  0.74520  0.16598  0.67832  1.0000
  H   H5914     1.0  0.65419  0.15085  0.77921  1.0000
  H   H5915     1.0  0.73724  0.12908  0.64393  1.0000
  H   H5916     1.0  0.59683  0.00082  0.58150  1.0000
  C   C3366     1.0  0.72276  0.07104  0.47667  1.0000
  H   H5917     1.0  0.64504  0.06316  0.56938  1.0000
  Fe  Fe383     1.0  0.60980  0.09578  0.87902  1.0000
  H   H5918     1.0  0.61692  0.37344  0.48602  1.0000
  C   C3367     1.0  0.60349  0.11739  0.93552  1.0000
  C   C3368     1.0  0.71271  0.10807  0.75478  1.0000
  H   H5919     1.0  0.72139  0.09096  0.78728  1.0000
  H   H5920     1.0  0.76917  0.02972  0.64494  1.0000
  N   N183      1.0  0.71969  0.07792  0.65972  1.0000
  C   C3369     1.0  0.71819  0.07115  0.64337  1.0000
  C   C3370     1.0  0.73081  0.09295  0.65305  1.0000
  C   C3371     1.0  0.73047  0.06213  0.67153  1.0000
  C   C3372     1.0  0.70108  0.08444  0.67134  1.0000
  C   C3373     1.0  0.68460  0.09282  0.66135  1.0000
  C   C3374     1.0  0.71066  0.05317  0.64797  1.0000
  C   C3375     1.0  0.73601  0.06693  0.68766  1.0000
  C   C3376     1.0  0.72433  0.10937  0.63807  1.0000
  C   C3377     1.0  0.76882  0.29903  0.53864  1.0000
  C   C3378     1.0  0.66770  0.10167  0.67407  1.0000
  C   C3379     1.0  0.70386  0.05079  0.63173  1.0000
  C   C3380     1.0  0.74446  0.04961  0.70010  1.0000
  H   H5921     1.0  0.73200  0.06864  0.63418  1.0000
  H   H5922     1.0  0.70959  0.08181  0.63460  1.0000
  H   H5923     1.0  0.73109  0.09904  0.66469  1.0000
  H   H5924     1.0  0.74548  0.08701  0.64753  1.0000
  H   H5925     1.0  0.74342  0.05581  0.66295  1.0000
  H   H5926     1.0  0.72251  0.05096  0.67769  1.0000
  H   H5927     1.0  0.69658  0.07292  0.68236  1.0000
  H   H5928     1.0  0.70218  0.09466  0.67891  1.0000
  H   H5929     1.0  0.68051  0.08195  0.65693  1.0000
  H   H5930     1.0  0.68793  0.10339  0.64894  1.0000
  H   H5931     1.0  0.72187  0.04115  0.65110  1.0000
  H   H5932     1.0  0.69912  0.05289  0.66013  1.0000
  H   H5933     1.0  0.72389  0.07442  0.69618  1.0000
  H   H5934     1.0  0.74666  0.07557  0.68231  1.0000
  H   H5935     1.0  0.72406  0.10483  0.62551  1.0000
  H   H5936     1.0  0.71055  0.11712  0.64349  1.0000
  H   H5937     1.0  0.76378  0.45762  0.58193  1.0000
  H   H5938     1.0  0.60913  0.32658  0.51648  1.0000
  C   C3381     1.0  0.65257  0.01922  0.94571  1.0000
  H   H5939     1.0  0.65601  0.10710  0.66675  1.0000
  H   H5940     1.0  0.66342  0.09140  0.68656  1.0000
  H   H5941     1.0  0.67075  0.11328  0.67827  1.0000
  H   H5942     1.0  0.71507  0.05111  0.61924  1.0000
  H   H5943     1.0  0.77824  0.24767  0.79149  1.0000
  H   H5944     1.0  0.69185  0.06186  0.62875  1.0000
  H   H5945     1.0  0.74877  0.05349  0.71119  1.0000
  H   H5946     1.0  0.73429  0.04056  0.70654  1.0000
  H   H5947     1.0  0.75690  0.04194  0.69204  1.0000
  N   N184      1.0  0.66133  0.38164  0.65255  1.0000
  C   C3382     1.0  0.66773  0.36430  0.64482  1.0000
  C   C3383     1.0  0.64200  0.39096  0.64964  1.0000
  C   C3384     1.0  0.67414  0.39456  0.64184  1.0000
  C   C3385     1.0  0.66235  0.37808  0.67261  1.0000
  C   C3386     1.0  0.65191  0.36351  0.68596  1.0000
  C   C3387     1.0  0.68766  0.35367  0.64621  1.0000
  C   C3388     1.0  0.66926  0.41402  0.64646  1.0000
  C   C3389     1.0  0.62850  0.37841  0.65065  1.0000
  C   C3390     1.0  0.60880  0.38944  0.65074  1.0000
  C   C3391     1.0  0.65661  0.35933  0.70505  1.0000
  C   C3392     1.0  0.69170  0.33528  0.64022  1.0000
  C   C3393     1.0  0.68274  0.42593  0.63404  1.0000
  H   H5948     1.0  0.66691  0.36762  0.62997  1.0000
  H   H5949     1.0  0.65851  0.35439  0.65153  1.0000
  H   H5950     1.0  0.63532  0.40028  0.65955  1.0000
  H   H5951     1.0  0.64255  0.40000  0.63567  1.0000
  H   H5952     1.0  0.67497  0.39630  0.62677  1.0000
  H   H5953     1.0  0.68840  0.38870  0.64409  1.0000
  H   H5954     1.0  0.67697  0.37417  0.67418  1.0000
  H   H5955     1.0  0.65677  0.39088  0.67816  1.0000
  H   H5956     1.0  0.65554  0.35034  0.68118  1.0000
  H   H5957     1.0  0.63680  0.36882  0.68767  1.0000
  H   H5958     1.0  0.69794  0.36162  0.63702  1.0000
  H   H5959     1.0  0.68987  0.35069  0.66051  1.0000
  H   H5960     1.0  0.67019  0.41322  0.66087  1.0000
  H   H5961     1.0  0.65515  0.42122  0.64451  1.0000
  H   H5962     1.0  0.63281  0.37194  0.63836  1.0000
  H   H5963     1.0  0.62817  0.36729  0.66304  1.0000
  H   H5964     1.0  0.73717  0.21452  0.83061  1.0000
  H   H5965     1.0  0.60834  0.40038  0.63812  1.0000
  N   N185      1.0  0.78447  0.15929  0.54325  1.0000
  H   H5966     1.0  0.67153  0.35320  0.70435  1.0000
  H   H5967     1.0  0.65329  0.37203  0.71071  1.0000
  H   H5968     1.0  0.64850  0.34936  0.71466  1.0000
  H   H5969     1.0  0.70621  0.32828  0.64090  1.0000
  H   H5970     1.0  0.68240  0.32623  0.64943  1.0000
  H   H5971     1.0  0.68998  0.33750  0.62583  1.0000
  H   H5972     1.0  0.59227  0.12917  0.93654  1.0000
  H   H5973     1.0  0.70014  0.47070  0.92048  1.0000
  H   H5974     1.0  0.69706  0.41973  0.63610  1.0000
  H   H5975     1.0  0.58635  0.42302  0.78438  1.0000
  H   H5976     1.0  0.78380  0.24484  0.59439  1.0000
  C   C3394     1.0  0.77530  0.44912  0.74208  1.0000
  H   H5977     1.0  0.69950  0.03737  0.63504  1.0000
  S   S763      1.0  0.76152  0.34998  0.54861  1.0000
  C   C3395     1.0  0.76908  0.26791  0.83970  1.0000
  H   H5978     1.0  0.63451  0.03893  0.56081  1.0000
  H   H5979     1.0  0.75492  0.20358  0.84351  1.0000
  C   C3396     1.0  0.75622  0.17590  0.88448  1.0000
  C   C3397     1.0  0.74774  0.16628  0.87440  1.0000
  H   H5980     1.0  0.60258  0.19026  0.84552  1.0000
  C   C3398     1.0  0.74889  0.17818  0.66792  1.0000
  H   H5981     1.0  0.60970  0.98468  0.56709  1.0000
  H   H5982     1.0  0.73527  0.21956  0.85295  1.0000
  H   H5983     1.0  0.75278  0.18402  0.91902  1.0000
  H   H5984     1.0  0.71607  0.29885  0.54592  1.0000
  H   H5985     1.0  0.76376  0.37060  0.69152  1.0000
  H   H5986     1.0  0.65032  0.35654  0.53038  1.0000
  H   H5987     1.0  0.78134  0.34410  0.67666  1.0000
  H   H5988     1.0  0.62336  0.37248  0.50754  1.0000
  H   H5989     1.0  0.68785  0.11897  0.49834  1.0000
  Fe  Fe384     1.0  0.77869  0.25180  0.53866  1.0000
  H   H5990     1.0  0.78369  0.45926  0.74148  1.0000
  H   H5991     1.0  0.76447  0.28253  0.84109  1.0000
  C   C3399     1.0  0.77578  0.37296  0.66290  1.0000
  H   H5992     1.0  0.62546  0.02788  0.50773  1.0000
  C   C3400     1.0  0.77451  0.14258  0.71098  1.0000
  H   H5993     1.0  0.74482  0.18178  0.89481  1.0000
  H   H5994     1.0  0.76190  0.18719  0.87417  1.0000
  H   H5995     1.0  0.74081  0.15553  0.88425  1.0000
  H   H5996     1.0  0.73731  0.17646  0.86730  1.0000
  C   C3401     1.0  0.77631  0.21121  0.47937  1.0000
  H   H5997     1.0  0.78478  0.16789  0.77421  1.0000
  N   N186      1.0  0.70481  0.34006  0.53816  1.0000
  H   H5998     1.0  0.65082  0.38028  0.52030  1.0000
  H   H5999     1.0  0.77770  0.14352  0.69626  1.0000
  H   H6000     1.0  0.64372  0.07530  0.93167  1.0000
  C   C3402     1.0  0.77479  0.05698  0.63396  1.0000
  H   H6001     1.0  0.63664  0.01097  0.49372  1.0000
  C   C3403     1.0  0.77001  0.31732  0.53721  1.0000
  H   H6002     1.0  0.75762  0.28190  0.78785  1.0000
  C   C3404     1.0  0.64710  0.00651  0.51872  1.0000
  C   C3405     1.0  0.72692  0.38333  0.51621  1.0000
  N   N187      1.0  0.62115  0.99503  0.68165  1.0000
  S   S764      1.0  0.60038  0.45820  0.53649  1.0000
  H   H6003     1.0  0.76408  0.08391  0.59388  1.0000
  C   C3406     1.0  0.67570  0.13487  0.76159  1.0000
  C   C3407     1.0  0.67536  0.99373  0.54285  1.0000
  H   H6004     1.0  0.76750  0.14462  0.53578  1.0000
  H   H6005     1.0  0.67618  0.12415  0.75401  1.0000
  H   H6006     1.0  0.76212  0.18323  0.60090  1.0000
  H   H6007     1.0  0.72778  0.07233  0.74854  1.0000
  H   H6008     1.0  0.75745  0.24131  0.79017  1.0000
  C   C3408     1.0  0.66305  0.99922  0.61097  1.0000
  H   H6009     1.0  0.76679  0.41557  0.69196  1.0000
  C   C3409     1.0  0.71207  0.15893  0.75450  1.0000
  H   H6010     1.0  0.72580  0.08789  0.72665  1.0000
  C   C3410     1.0  0.77197  0.16244  0.89321  1.0000
  Fe  Fe385     1.0  0.77817  0.42441  0.84257  1.0000
  C   C3411     1.0  0.74195  0.44231  0.64170  1.0000
  H   H6011     1.0  0.77577  0.27758  0.81028  1.0000
  H   H6012     1.0  0.77923  0.26839  0.76164  1.0000
  H   H6013     1.0  0.66159  0.02575  0.52245  1.0000
  H   H6014     1.0  0.72982  0.13744  0.74160  1.0000
  H   H6015     1.0  0.76878  0.18014  0.55879  1.0000
  H   H6016     1.0  0.77928  0.15874  0.51691  1.0000
  S   S765      1.0  0.77725  0.10536  0.71419  1.0000
  C   C3412     1.0  0.59404  0.30593  0.80082  1.0000
  H   H6017     1.0  0.70629  0.09697  0.76470  1.0000
  H   H6018     1.0  0.64889  0.39429  0.79036  1.0000
  H   H6019     1.0  0.75525  0.16591  0.55535  1.0000
  C   C3413     1.0  0.70584  0.30459  0.82576  1.0000
  H   H6020     1.0  0.69335  0.46348  0.86638  1.0000
  H   H6021     1.0  0.76334  0.98943  0.65965  1.0000
  H   H6022     1.0  0.75431  0.11472  0.49266  1.0000
  C   C3414     1.0  0.76526  0.42860  0.59258  1.0000
  H   H6023     1.0  0.77680  0.37212  0.73970  1.0000
  C   C3415     1.0  0.78091  0.14923  0.53028  1.0000
  H   H6024     1.0  0.63707  0.99768  0.52656  1.0000
  H   H6025     1.0  0.77100  0.19579  0.52468  1.0000
  H   H6026     1.0  0.73566  0.38248  0.52613  1.0000
  H   H6027     1.0  0.63232  0.38842  0.82170  1.0000
  H   H6028     1.0  0.60730  0.03102  0.66486  1.0000
  C   C3416     1.0  0.74513  0.11949  0.48252  1.0000
  H   H6029     1.0  0.76470  0.22849  0.81818  1.0000
  S   S766      1.0  0.60151  0.12630  0.87017  1.0000
  H   H6030     1.0  0.68415  0.37484  0.51871  1.0000
  H   H6031     1.0  0.74298  0.17936  0.65571  1.0000
  C   C3417     1.0  0.64660  0.01258  0.66020  1.0000
  C   C3418     1.0  0.60656  0.99783  0.69875  1.0000
  H   H6032     1.0  0.71374  0.39323  0.51932  1.0000
  C   C3419     1.0  0.76699  0.17298  0.54852  1.0000
  H   H6033     1.0  0.70734  0.14259  0.73722  1.0000
  H   H6034     1.0  0.71169  0.31728  0.82118  1.0000
  C   C3420     1.0  0.76989  0.17584  0.66248  1.0000
  H   H6035     1.0  0.61858  0.38999  0.79112  1.0000
  H   H6036     1.0  0.72886  0.17133  0.72904  1.0000
  H   H6037     1.0  0.76218  0.42263  0.74072  1.0000
  H   H6038     1.0  0.67771  0.14778  0.75154  1.0000
  H   H6039     1.0  0.73859  0.29323  0.57964  1.0000
  H   H6040     1.0  0.63087  0.02140  0.91734  1.0000
  H   H6041     1.0  0.65367  0.12658  0.78445  1.0000
  H   H6042     1.0  0.64587  0.14140  0.76443  1.0000
  H   H6043     1.0  0.78256  0.20126  0.57662  1.0000
  C   C3421     1.0  0.71498  0.17455  0.73785  1.0000
  H   H6044     1.0  0.69796  0.16283  0.76256  1.0000
  C   C3422     1.0  0.60716  0.10855  0.92064  1.0000
  N   N188      1.0  0.72524  0.09424  0.49544  1.0000
  C   C3423     1.0  0.70589  0.09220  0.50557  1.0000
  C   C3424     1.0  0.73855  0.08440  0.50809  1.0000
  H   H6045     1.0  0.60071  0.01272  0.69829  1.0000
  H   H6046     1.0  0.76934  0.11113  0.75101  1.0000
  C   C3425     1.0  0.68420  0.46689  0.90223  1.0000
  C   C3426     1.0  0.59803  0.99663  0.73324  1.0000
  C   C3427     1.0  0.73918  0.06357  0.51563  1.0000
  C   C3428     1.0  0.75128  0.05602  0.53009  1.0000
  C   C3429     1.0  0.61223  0.40474  0.79103  1.0000
  C   C3430     1.0  0.59833  0.39744  0.82364  1.0000
  H   H6047     1.0  0.70327  0.09523  0.51960  1.0000
  H   H6048     1.0  0.70413  0.07782  0.50802  1.0000
  H   H6049     1.0  0.75297  0.08545  0.50096  1.0000
  H   H6050     1.0  0.73547  0.09117  0.52013  1.0000
  C   C3431     1.0  0.75595  0.41884  0.91090  1.0000
  H   H6051     1.0  0.72005  0.13221  0.78408  1.0000
  C   C3432     1.0  0.64704  0.40474  0.79881  1.0000
  C   C3433     1.0  0.74198  0.25089  0.82658  1.0000
  H   H6052     1.0  0.75635  0.44286  0.63428  1.0000
  C   C3434     1.0  0.78343  0.21997  0.88316  1.0000
  C   C3435     1.0  0.75256  0.26905  0.79538  1.0000
  H   H6053     1.0  0.61854  0.99266  0.62195  1.0000
  H   H6054     1.0  0.72533  0.06058  0.52235  1.0000
  H   H6055     1.0  0.74533  0.05585  0.50435  1.0000
  H   H6056     1.0  0.74544  0.06265  0.54222  1.0000
  H   H6057     1.0  0.75185  0.04100  0.53488  1.0000
  H   H6058     1.0  0.76559  0.05827  0.52420  1.0000
  H   H6059     1.0  0.66381  0.02546  0.96646  1.0000
  H   H6060     1.0  0.67673  0.40190  0.79457  1.0000
  H   H6061     1.0  0.59502  0.45406  0.95794  1.0000
  H   H6062     1.0  0.76975  0.39995  0.60559  1.0000
  N   N189      1.0  0.61096  0.40889  0.80961  1.0000
  N   N190      1.0  0.75058  0.26721  0.81586  1.0000
  C   C3436     1.0  0.60242  0.99882  0.94666  1.0000
  H   H6063     1.0  0.62831  0.04430  0.91939  1.0000
  H   H6064     1.0  0.78122  0.19761  0.68166  1.0000
  Fe  Fe386     1.0  0.59219  0.08743  0.85130  1.0000
  H   H6065     1.0  0.70076  0.30808  0.52984  1.0000
  C   C3437     1.0  0.77547  0.41641  0.74544  1.0000
  H   H6066     1.0  0.70514  0.11202  0.74327  1.0000
  C   C3438     1.0  0.73359  0.08339  0.73798  1.0000
  C   C3439     1.0  0.62171  0.09340  0.91921  1.0000
  Fe  Fe387     1.0  0.78477  0.12501  0.64430  1.0000
  S   S767      1.0  0.74949  0.42724  0.57986  1.0000
  H   H6067     1.0  0.65894  0.03118  0.66858  1.0000
  H   H6068     1.0  0.70265  0.36772  0.54202  1.0000
  C   C3440     1.0  0.73287  0.09959  0.74655  1.0000
  S   S768      1.0  0.78369  0.05716  0.65298  1.0000
  H   H6069     1.0  0.67144  0.46163  0.90406  1.0000
  C   C3441     1.0  0.72135  0.10319  0.79250  1.0000
  C   C3442     1.0  0.72286  0.12050  0.77696  1.0000
  H   H6070     1.0  0.63115  0.99824  0.94306  1.0000
  C   C3443     1.0  0.73908  0.40265  0.69450  1.0000
  H   H6071     1.0  0.68086  0.01797  0.94736  1.0000
  H   H6072     1.0  0.68867  0.13898  0.78212  1.0000
  H   H6073     1.0  0.69609  0.45742  0.89562  1.0000
  H   H6074     1.0  0.76702  0.20529  0.65128  1.0000
  H   H6075     1.0  0.76122  0.20543  0.89303  1.0000
  C   C3444     1.0  0.77377  0.12550  0.72275  1.0000
  C   C3445     1.0  0.71501  0.14042  0.74841  1.0000
  H   H6076     1.0  0.68702  0.11612  0.78402  1.0000
  N   N191      1.0  0.58612  0.36440  0.51415  1.0000
  C   C3446     1.0  0.65901  0.36606  0.52096  1.0000
  H   H6077     1.0  0.75952  0.25988  0.85009  1.0000
  C   C3447     1.0  0.69055  0.12851  0.77373  1.0000
  H   H6078     1.0  0.77041  0.11382  0.59665  1.0000
  C   C3448     1.0  0.78164  0.12075  0.58784  1.0000
  H   H6079     1.0  0.72224  0.15801  0.76296  1.0000
  H   H6080     1.0  0.74147  0.09447  0.75720  1.0000
  H   H6081     1.0  0.73314  0.13414  0.62088  1.0000
  C   C3449     1.0  0.77337  0.41308  0.60411  1.0000
  H   H6082     1.0  0.62980  0.01833  0.68587  1.0000
  H   H6083     1.0  0.75727  0.26484  0.76000  1.0000
  H   H6084     1.0  0.74820  0.07774  0.73216  1.0000
  H   H6085     1.0  0.77419  0.23359  0.88385  1.0000
  H   H6086     1.0  0.73893  0.27056  0.79182  1.0000
  C   C3450     1.0  0.77795  0.35249  0.66340  1.0000
  H   H6087     1.0  0.75181  0.11587  0.62725  1.0000
  H   H6088     1.0  0.75778  0.40798  0.92335  1.0000
  H   H6089     1.0  0.78495  0.41863  0.90187  1.0000
  C   C3451     1.0  0.77179  0.40466  0.68360  1.0000
  H   H6090     1.0  0.72339  0.35264  0.54589  1.0000
  C   C3452     1.0  0.74582  0.22506  0.47264  1.0000
  S   S769      1.0  0.78296  0.40265  0.86775  1.0000
  H   H6091     1.0  0.75643  0.18164  0.52264  1.0000
  H   H6092     1.0  0.70388  0.30031  0.84097  1.0000
  C   C3453     1.0  0.62863  0.09571  0.94774  1.0000
  H   H6093     1.0  0.77837  0.32417  0.52511  1.0000
  C   C3454     1.0  0.71316  0.35638  0.53676  1.0000
  C   C3455     1.0  0.78443  0.16156  0.60893  1.0000
  H   H6094     1.0  0.69210  0.30777  0.82195  1.0000
  H   H6095     1.0  0.71945  0.29421  0.80136  1.0000
  H   H6096     1.0  0.75981  0.44976  0.92031  1.0000
  H   H6097     1.0  0.76891  0.12895  0.56435  1.0000
  H   H6098     1.0  0.74922  0.43730  0.66819  1.0000
  H   H6099     1.0  0.64298  0.98433  0.55429  1.0000
  H   H6100     1.0  0.63688  0.09061  0.95817  1.0000
  H   H6101     1.0  0.77821  0.08428  0.61972  1.0000
  H   H6102     1.0  0.78058  0.42616  0.66026  1.0000
  H   H6103     1.0  0.72395  0.05972  0.48875  1.0000
  H   H6104     1.0  0.62738  0.33584  0.54370  1.0000
  H   H6105     1.0  0.60308  0.38278  0.82245  1.0000
  H   H6106     1.0  0.74835  0.46332  0.86955  1.0000
  H   H6107     1.0  0.61821  0.01528  0.55534  1.0000
  H   H6108     1.0  0.77728  0.16259  0.94671  1.0000
  H   H6109     1.0  0.60512  0.29665  0.80768  1.0000
  C   C3456     1.0  0.64380  0.99545  0.56083  1.0000
  H   H6110     1.0  0.76727  0.14927  0.90008  1.0000
  H   H6111     1.0  0.66159  0.46884  0.87626  1.0000
  C   C3457     1.0  0.77065  0.15852  0.71832  1.0000
  H   H6112     1.0  0.77696  0.24609  0.75976  1.0000
  C   C3458     1.0  0.76987  0.25841  0.76577  1.0000
  C   C3459     1.0  0.76500  0.25279  0.78674  1.0000
  H   H6113     1.0  0.76404  0.23261  0.84033  1.0000
  H   H6114     1.0  0.76221  0.13930  0.76390  1.0000
  H   H6115     1.0  0.75850  0.15981  0.86392  1.0000
  H   H6116     1.0  0.72717  0.43249  0.66873  1.0000
  H   H6117     1.0  0.62155  0.00016  0.65241  1.0000
  H   H6118     1.0  0.74355  0.17302  0.95849  1.0000
  H   H6119     1.0  0.58858  0.00625  0.95240  1.0000
  C   C3460     1.0  0.77439  0.20491  0.89682  1.0000
  C   C3461     1.0  0.59396  0.02729  0.64473  1.0000
  S   S770      1.0  0.78125  0.22164  0.54028  1.0000
  H   H6120     1.0  0.77162  0.19086  0.63501  1.0000
  H   H6121     1.0  0.59499  0.01186  0.73127  1.0000
  H   H6122     1.0  0.77311  0.21968  0.61820  1.0000
  H   H6123     1.0  0.62218  0.17649  0.83321  1.0000
  C   C3462     1.0  0.77211  0.42891  0.90464  1.0000
  H   H6124     1.0  0.58774  0.03526  0.94893  1.0000
  H   H6125     1.0  0.64861  0.98807  0.57379  1.0000
  H   H6126     1.0  0.71326  0.97987  0.54142  1.0000
  C   C3463     1.0  0.66692  0.02638  0.95130  1.0000
  H   H6127     1.0  0.59918  0.35825  0.53766  1.0000
  H   H6128     1.0  0.60945  0.47279  0.78690  1.0000
  H   H6129     1.0  0.76830  0.45445  0.73009  1.0000
  S   S771      1.0  0.78313  0.16064  0.82879  1.0000
  H   H6130     1.0  0.77009  0.43882  0.89164  1.0000
  C   C3464     1.0  0.77403  0.13572  0.57273  1.0000
  S   S772      1.0  0.59551  0.44583  0.50005  1.0000
  C   C3465     1.0  0.61293  0.99019  0.71740  1.0000
  H   H6131     1.0  0.73303  0.23497  0.47481  1.0000
  H   H6132     1.0  0.77105  0.20845  0.91064  1.0000
  H   H6133     1.0  0.60388  0.00003  0.93166  1.0000
  H   H6134     1.0  0.77563  0.37834  0.76116  1.0000
  H   H6135     1.0  0.75743  0.38877  0.74845  1.0000
  H   H6136     1.0  0.78361  0.19920  0.81279  1.0000
  H   H6137     1.0  0.62570  0.99474  0.71718  1.0000
  H   H6138     1.0  0.58765  0.01625  0.86654  1.0000
  C   C3466     1.0  0.77270  0.43915  0.91938  1.0000
  C   C3467     1.0  0.78289  0.44706  0.60037  1.0000
  H   H6139     1.0  0.71680  0.12228  0.48126  1.0000
  H   H6140     1.0  0.74561  0.19646  0.94724  1.0000
  H   H6141     1.0  0.70623  0.47275  0.81455  1.0000
  H   H6142     1.0  0.63512  0.47021  0.86168  1.0000
  H   H6143     1.0  0.61068  0.40745  0.48020  1.0000
  H   H6144     1.0  0.78310  0.15931  0.88124  1.0000
  S   S773      1.0  0.60963  0.12264  0.96727  1.0000
  H   H6145     1.0  0.58512  0.99192  0.73422  1.0000
  C   C3468     1.0  0.62915  0.97465  0.68387  1.0000
  C   C3469     1.0  0.76954  0.97487  0.65873  1.0000
  H   H6146     1.0  0.61556  0.97493  0.72052  1.0000
  H   H6147     1.0  0.77183  0.47381  0.96211  1.0000
  C   C3470     1.0  0.62649  0.47375  0.56233  1.0000
  Fe  Fe388     1.0  0.75361  0.59039  0.16112  1.0000
  H   H6148     1.0  0.72003  0.71672  0.99064  1.0000
  S   S774      1.0  0.73976  0.56763  0.16090  1.0000
  Fe  Fe389     1.0  0.74844  0.62634  0.17366  1.0000
  H   H6149     1.0  0.64203  0.61331  0.98366  1.0000
  S   S775      1.0  0.72890  0.64939  0.18628  1.0000
  H   H6150     1.0  0.72691  0.95966  0.41202  1.0000
  H   H6151     1.0  0.66784  0.96096  0.42338  1.0000
  H   H6152     1.0  0.74524  0.89964  0.00032  1.0000
  H   H6153     1.0  0.64563  0.51453  0.14763  1.0000
  S   S776      1.0  0.74722  0.62000  0.14685  1.0000
  S   S777      1.0  0.75213  0.59691  0.18856  1.0000
  C   C3471     1.0  0.62014  0.61114  0.41707  1.0000
  H   H6154     1.0  0.70590  0.64660  0.26280  1.0000
  S   S778      1.0  0.76207  0.70662  0.07172  1.0000
  H   H6155     1.0  0.59197  0.82002  0.31424  1.0000
  C   C3472     1.0  0.70391  0.75098  0.33270  1.0000
  C   C3473     1.0  0.59337  0.67641  0.30390  1.0000
  H   H6156     1.0  0.64054  0.60794  0.00838  1.0000
  N   N192      1.0  0.69758  0.62110  0.27830  1.0000
  S   S779      1.0  0.76551  0.73484  0.02169  1.0000
  H   H6157     1.0  0.66885  0.67596  0.26837  1.0000
  C   C3474     1.0  0.64815  0.53581  0.06413  1.0000
  H   H6158     1.0  0.74173  0.84073  0.01066  1.0000
  C   C3475     1.0  0.58955  0.91908  0.97537  1.0000
  C   C3476     1.0  0.58721  0.58450  0.26451  1.0000
  H   H6159     1.0  0.64636  0.56953  0.40758  1.0000
  C   C3477     1.0  0.65701  0.95466  0.07545  1.0000
  H   H6160     1.0  0.74581  0.81359  0.99733  1.0000
  C   C3478     1.0  0.68949  0.94743  0.39623  1.0000
  H   H6161     1.0  0.64949  0.52782  0.41241  1.0000
  S   S780      1.0  0.66280  0.50553  0.11112  1.0000
  H   H6162     1.0  0.58752  0.86500  0.22352  1.0000
  H   H6163     1.0  0.76102  0.65315  0.12223  1.0000
  H   H6164     1.0  0.64066  0.68621  0.34931  1.0000
  H   H6165     1.0  0.59638  0.66269  0.33134  1.0000
  S   S781      1.0  0.75571  0.72313  0.38845  1.0000
  Fe  Fe390     1.0  0.70040  0.67872  0.31360  1.0000
  S   S782      1.0  0.73020  0.66480  0.30862  1.0000
  S   S783      1.0  0.68021  0.66407  0.33581  1.0000
  Fe  Fe391     1.0  0.70767  0.71216  0.28450  1.0000
  S   S784      1.0  0.73802  0.70088  0.27651  1.0000
  S   S785      1.0  0.69275  0.73995  0.27200  1.0000
  Fe  Fe392     1.0  0.72939  0.67441  0.27866  1.0000
  S   S786      1.0  0.74517  0.65275  0.26221  1.0000
  Fe  Fe393     1.0  0.73669  0.69210  0.30701  1.0000
  S   S787      1.0  0.76191  0.69330  0.31672  1.0000
  S   S788      1.0  0.69902  0.68638  0.28369  1.0000
  S   S789      1.0  0.70687  0.70541  0.31493  1.0000
  Fe  Fe394     1.0  0.77527  0.84389  0.08243  1.0000
  S   S790      1.0  0.76204  0.87095  0.06688  1.0000
  Fe  Fe395     1.0  0.75736  0.85380  0.11983  1.0000
  S   S791      1.0  0.74228  0.88157  0.10783  1.0000
  S   S792      1.0  0.75859  0.84215  0.14965  1.0000
  Fe  Fe396     1.0  0.73635  0.86710  0.08844  1.0000
  S   S793      1.0  0.70775  0.86881  0.08374  1.0000
  S   S794      1.0  0.74918  0.83898  0.10240  1.0000
  Fe  Fe397     1.0  0.67198  0.86155  0.27681  1.0000
  S   S795      1.0  0.68232  0.84166  0.25776  1.0000
  S   S796      1.0  0.64397  0.86286  0.29553  1.0000
  Fe  Fe398     1.0  0.70771  0.87583  0.26641  1.0000
  S   S797      1.0  0.72127  0.85685  0.24675  1.0000
  S   S798      1.0  0.72176  0.89806  0.26740  1.0000
  Fe  Fe399     1.0  0.69416  0.86463  0.23762  1.0000
  S   S799      1.0  0.69061  0.87219  0.20811  1.0000
  Fe  Fe400     1.0  0.70840  0.83544  0.26858  1.0000
  S   S800      1.0  0.72534  0.80687  0.27580  1.0000
  S   S801      1.0  0.68135  0.88522  0.25576  1.0000
  S   S802      1.0  0.69727  0.85377  0.28924  1.0000
  H   H6166     1.0  0.61171  0.59451  0.24870  1.0000
  H   H6167     1.0  0.78429  0.72566  0.30215  1.0000
  Fe  Fe401     1.0  0.63937  0.93668  0.02383  1.0000
  H   H6168     1.0  0.75135  0.86613  0.01417  1.0000
  S   S803      1.0  0.66965  0.93138  0.02541  1.0000
  S   S804      1.0  0.60705  0.91295  0.98844  1.0000
  H   H6169     1.0  0.69412  0.57003  0.98087  1.0000
  H   H6170     1.0  0.66244  0.67507  0.24758  1.0000
  H   H6171     1.0  0.69139  0.84696  0.02468  1.0000
  Fe  Fe402     1.0  0.72341  0.52622  0.08667  1.0000
  C   C3479     1.0  0.73639  0.48668  0.15259  1.0000
  S   S805      1.0  0.73235  0.55255  0.08559  1.0000
  H   H6172     1.0  0.76143  0.92164  0.14814  1.0000
  H   H6173     1.0  0.58535  0.50219  0.13159  1.0000
  C   C3480     1.0  0.71574  0.61588  0.28459  1.0000
  S   S806      1.0  0.70025  0.52662  0.07326  1.0000
  C   C3481     1.0  0.72679  0.97114  0.40048  1.0000
  H   H6174     1.0  0.65207  0.82352  0.28789  1.0000
  S   S807      1.0  0.72497  0.49974  0.03144  1.0000
  N   N193      1.0  0.74537  0.77326  0.33142  1.0000
  C   C3482     1.0  0.68453  0.59555  0.30391  1.0000
  C   C3483     1.0  0.68199  0.61600  0.29389  1.0000
  H   H6175     1.0  0.63931  0.80533  0.29708  1.0000
  N   N194      1.0  0.60296  0.69304  0.34429  1.0000
  H   H6176     1.0  0.68437  0.58665  0.29457  1.0000
  S   S808      1.0  0.66802  0.54564  0.98163  1.0000
  H   H6177     1.0  0.76544  0.62494  0.46508  1.0000
  H   H6178     1.0  0.62024  0.91096  0.10981  1.0000
  H   H6179     1.0  0.74192  0.62818  0.44669  1.0000
  H   H6180     1.0  0.75874  0.86906  0.19646  1.0000
  H   H6181     1.0  0.68969  0.64880  0.28328  1.0000
  H   H6182     1.0  0.72437  0.81734  0.03973  1.0000
  H   H6183     1.0  0.72135  0.64085  0.97428  1.0000
  H   H6184     1.0  0.67886  0.49110  0.98886  1.0000
  H   H6185     1.0  0.76478  0.47755  0.15473  1.0000
  N   N195      1.0  0.69760  0.59305  0.99050  1.0000
  H   H6186     1.0  0.66884  0.61917  0.28890  1.0000
  H   H6187     1.0  0.66098  0.53909  0.05452  1.0000
  H   H6188     1.0  0.58675  0.52447  0.44027  1.0000
  H   H6189     1.0  0.76197  0.80336  0.30853  1.0000
  S   S809      1.0  0.62310  0.63024  0.31376  1.0000
  H   H6190     1.0  0.65400  0.96663  0.45470  1.0000
  H   H6191     1.0  0.63167  0.48682  0.15646  1.0000
  H   H6192     1.0  0.67778  0.94064  0.40366  1.0000
  S   S810      1.0  0.59490  0.59256  0.34735  1.0000
  C   C3484     1.0  0.64269  0.96088  0.40264  1.0000
  S   S811      1.0  0.63104  0.94936  0.99648  1.0000
  H   H6193     1.0  0.65189  0.96359  0.08575  1.0000
  H   H6194     1.0  0.61285  0.59778  0.30912  1.0000
  C   C3485     1.0  0.63552  0.54364  0.46451  1.0000
  H   H6195     1.0  0.68836  0.88841  0.00882  1.0000
  H   H6196     1.0  0.59549  0.89234  0.96849  1.0000
  C   C3486     1.0  0.70316  0.58030  0.97701  1.0000
  C   C3487     1.0  0.60102  0.59113  0.41493  1.0000
  H   H6197     1.0  0.75442  0.91829  0.30364  1.0000
  H   H6198     1.0  0.76071  0.75520  0.35152  1.0000
  H   H6199     1.0  0.60344  0.84200  0.24712  1.0000
  C   C3488     1.0  0.69571  0.85998  0.02373  1.0000
  S   S812      1.0  0.77431  0.78327  0.01736  1.0000
  C   C3489     1.0  0.64520  0.51279  0.16256  1.0000
  H   H6200     1.0  0.58788  0.58201  0.23660  1.0000
  H   H6201     1.0  0.62257  0.49233  0.46730  1.0000
  H   H6202     1.0  0.72492  0.89983  0.18794  1.0000
  H   H6203     1.0  0.63975  0.55421  0.45238  1.0000
  H   H6204     1.0  0.63599  0.54375  0.05816  1.0000
  C   C3490     1.0  0.61335  0.60293  0.40641  1.0000
  C   C3491     1.0  0.60289  0.59521  0.44489  1.0000
  H   H6205     1.0  0.64565  0.52622  0.16525  1.0000
  H   H6206     1.0  0.73494  0.90475  0.02297  1.0000
  H   H6207     1.0  0.73925  0.92189  0.27751  1.0000
  H   H6208     1.0  0.73541  0.84380  0.04121  1.0000
  S   S813      1.0  0.62277  0.61884  0.44898  1.0000
  C   C3492     1.0  0.68435  0.53343  0.99505  1.0000
  C   C3493     1.0  0.68205  0.53638  0.01287  1.0000
  C   C3494     1.0  0.69462  0.52626  0.02407  1.0000
  C   C3495     1.0  0.70951  0.51318  0.01747  1.0000
  C   C3496     1.0  0.71196  0.51043  0.99954  1.0000
  C   C3497     1.0  0.69938  0.52053  0.98833  1.0000
  H   H6209     1.0  0.67032  0.54623  0.01815  1.0000
  H   H6210     1.0  0.69267  0.52841  0.03787  1.0000
  C   C3498     1.0  0.71369  0.61577  0.24551  1.0000
  H   H6211     1.0  0.74739  0.88101  0.37786  1.0000
  H   H6212     1.0  0.71908  0.59190  0.01877  1.0000
  H   H6213     1.0  0.72437  0.55816  0.98785  1.0000
  H   H6214     1.0  0.65526  0.59715  0.31645  1.0000
  C   C3499     1.0  0.73220  0.89510  0.28626  1.0000
  C   C3500     1.0  0.73306  0.87886  0.29961  1.0000
  C   C3501     1.0  0.74173  0.87682  0.31437  1.0000
  C   C3502     1.0  0.74948  0.89102  0.31588  1.0000
  H   H6215     1.0  0.66472  0.57957  0.00537  1.0000
  C   C3503     1.0  0.73992  0.90930  0.28779  1.0000
  H   H6216     1.0  0.72715  0.86786  0.29850  1.0000
  H   H6217     1.0  0.74240  0.86426  0.32468  1.0000
  H   H6218     1.0  0.74689  0.68673  0.41314  1.0000
  C   C3504     1.0  0.69710  0.88675  0.06802  1.0000
  C   C3505     1.0  0.70486  0.90214  0.05906  1.0000
  C   C3506     1.0  0.69617  0.91584  0.04615  1.0000
  C   C3507     1.0  0.67971  0.91425  0.04217  1.0000
  C   C3508     1.0  0.67197  0.89888  0.05116  1.0000
  C   C3509     1.0  0.68058  0.88524  0.06413  1.0000
  H   H6219     1.0  0.71763  0.90339  0.06192  1.0000
  H   H6220     1.0  0.70229  0.92767  0.03913  1.0000
  H   H6221     1.0  0.65953  0.89734  0.04785  1.0000
  H   H6222     1.0  0.67458  0.87329  0.07095  1.0000
  C   C3510     1.0  0.73977  0.85123  0.16543  1.0000
  C   C3511     1.0  0.74106  0.84759  0.18393  1.0000
  C   C3512     1.0  0.72611  0.85430  0.19699  1.0000
  C   C3513     1.0  0.70973  0.86450  0.19169  1.0000
  C   C3514     1.0  0.70848  0.86831  0.17312  1.0000
  C   C3515     1.0  0.72353  0.86172  0.15996  1.0000
  H   H6223     1.0  0.75360  0.83945  0.18816  1.0000
  H   H6224     1.0  0.72722  0.85147  0.21119  1.0000
  H   H6225     1.0  0.69582  0.87622  0.16894  1.0000
  H   H6226     1.0  0.72242  0.86448  0.14568  1.0000
  C   C3516     1.0  0.66428  0.65492  0.32947  1.0000
  C   C3517     1.0  0.65511  0.64202  0.34252  1.0000
  C   C3518     1.0  0.64219  0.63462  0.33790  1.0000
  C   C3519     1.0  0.63845  0.64004  0.32017  1.0000
  C   C3520     1.0  0.64741  0.65312  0.30718  1.0000
  C   C3521     1.0  0.66023  0.66061  0.31185  1.0000
  H   H6227     1.0  0.65810  0.63766  0.35622  1.0000
  H   H6228     1.0  0.63546  0.62443  0.34798  1.0000
  H   H6229     1.0  0.64425  0.65765  0.29358  1.0000
  H   H6230     1.0  0.66678  0.67097  0.30194  1.0000
  C   C3522     1.0  0.70166  0.75831  0.27384  1.0000
  C   C3523     1.0  0.69043  0.77588  0.27298  1.0000
  C   C3524     1.0  0.69745  0.79079  0.27400  1.0000
  C   C3525     1.0  0.71588  0.78830  0.27535  1.0000
  C   C3526     1.0  0.72717  0.77076  0.27597  1.0000
  C   C3527     1.0  0.72001  0.75573  0.27553  1.0000
  H   H6231     1.0  0.67622  0.77792  0.27174  1.0000
  H   H6232     1.0  0.68855  0.80414  0.27385  1.0000
  H   H6233     1.0  0.74150  0.76877  0.27671  1.0000
  H   H6234     1.0  0.72878  0.74222  0.27613  1.0000
  C   C3528     1.0  0.75742  0.71368  0.36923  1.0000
  H   H6235     1.0  0.62131  0.96703  0.38643  1.0000
  C   C3529     1.0  0.76307  0.49832  0.12907  1.0000
  C   C3530     1.0  0.75978  0.70027  0.33750  1.0000
  C   C3531     1.0  0.74252  0.70561  0.34848  1.0000
  C   C3532     1.0  0.74135  0.71227  0.36435  1.0000
  H   H6236     1.0  0.59981  0.94537  0.15218  1.0000
  H   H6237     1.0  0.59169  0.61180  0.25022  1.0000
  H   H6238     1.0  0.73010  0.70475  0.34465  1.0000
  H   H6239     1.0  0.72799  0.71656  0.37273  1.0000
  C   C3533     1.0  0.62552  0.87582  0.28516  1.0000
  C   C3534     1.0  0.62810  0.88271  0.26618  1.0000
  C   C3535     1.0  0.61297  0.89291  0.25827  1.0000
  C   C3536     1.0  0.59528  0.89624  0.26932  1.0000
  C   C3537     1.0  0.64226  0.81654  0.28506  1.0000
  C   C3538     1.0  0.60787  0.87913  0.29616  1.0000
  H   H6240     1.0  0.64170  0.88013  0.25758  1.0000
  H   H6241     1.0  0.61498  0.89819  0.24357  1.0000
  H   H6242     1.0  0.59267  0.62214  0.29404  1.0000
  H   H6243     1.0  0.60584  0.87362  0.31081  1.0000
  N   N196      1.0  0.60893  0.48061  0.17889  1.0000
  C   C3539     1.0  0.78035  0.79329  0.03274  1.0000
  H   H6244     1.0  0.78125  0.72180  0.46780  1.0000
  C   C3540     1.0  0.70953  0.60736  0.98400  1.0000
  H   H6245     1.0  0.74172  0.87141  0.03677  1.0000
  H   H6246     1.0  0.64789  0.51883  0.45346  1.0000
  H   H6247     1.0  0.67057  0.57783  0.32723  1.0000
  H   H6248     1.0  0.74458  0.79832  0.15691  1.0000
  H   H6249     1.0  0.64071  0.69373  0.32508  1.0000
  C   C3541     1.0  0.66352  0.59079  0.99311  1.0000
  H   H6250     1.0  0.68782  0.58931  0.02019  1.0000
  H   H6251     1.0  0.61644  0.51305  0.42816  1.0000
  H   H6252     1.0  0.61703  0.54436  0.41882  1.0000
  H   H6253     1.0  0.71958  0.88366  0.00587  1.0000
  H   H6254     1.0  0.62482  0.92161  0.26571  1.0000
  H   H6255     1.0  0.66745  0.62661  0.46361  1.0000
  H   H6256     1.0  0.67717  0.61275  0.97651  1.0000
  H   H6257     1.0  0.78037  0.55791  0.12976  1.0000
  N   N197      1.0  0.65194  0.48804  0.05197  1.0000
  H   H6258     1.0  0.76574  0.83112  0.05244  1.0000
  H   H6259     1.0  0.75779  0.81642  0.03069  1.0000
  C   C3542     1.0  0.73565  0.67882  0.41684  1.0000
  C   C3543     1.0  0.63554  0.48197  0.06585  1.0000
  H   H6260     1.0  0.69474  0.56874  0.01176  1.0000
  H   H6261     1.0  0.59896  0.59215  0.45971  1.0000
  H   H6262     1.0  0.63105  0.65278  0.38133  1.0000
  C   C3544     1.0  0.76021  0.95515  0.43082  1.0000
  C   C3545     1.0  0.68311  0.96745  0.38615  1.0000
  C   C3546     1.0  0.73298  0.71163  0.98207  1.0000
  C   C3547     1.0  0.73373  0.96796  0.38258  1.0000
  H   H6263     1.0  0.74969  0.71874  0.99719  1.0000
  C   C3548     1.0  0.73768  0.56392  0.13980  1.0000
  C   C3549     1.0  0.72927  0.54957  0.13995  1.0000
  C   C3550     1.0  0.72752  0.54606  0.12341  1.0000
  C   C3551     1.0  0.73421  0.55684  0.10657  1.0000
  C   C3552     1.0  0.74266  0.57119  0.10639  1.0000
  C   C3553     1.0  0.74439  0.57475  0.12297  1.0000
  H   H6264     1.0  0.72400  0.54119  0.15293  1.0000
  H   H6265     1.0  0.72075  0.53518  0.12375  1.0000
  H   H6266     1.0  0.74790  0.57954  0.09340  1.0000
  H   H6267     1.0  0.75094  0.58580  0.12278  1.0000
  C   C3554     1.0  0.73410  0.65118  0.20679  1.0000
  C   C3555     1.0  0.72395  0.66541  0.21594  1.0000
  C   C3556     1.0  0.72755  0.66644  0.23276  1.0000
  C   C3557     1.0  0.74111  0.65305  0.24054  1.0000
  C   C3558     1.0  0.75138  0.63901  0.23127  1.0000
  C   C3559     1.0  0.74801  0.63814  0.21438  1.0000
  H   H6268     1.0  0.71323  0.67556  0.21006  1.0000
  H   H6269     1.0  0.71969  0.67739  0.23980  1.0000
  H   H6270     1.0  0.76183  0.62860  0.23725  1.0000
  H   H6271     1.0  0.75591  0.62713  0.20744  1.0000
  H   H6272     1.0  0.72466  0.81686  0.15874  1.0000
  H   H6273     1.0  0.71352  0.64694  0.99656  1.0000
  H   H6274     1.0  0.62353  0.65924  0.23767  1.0000
  H   H6275     1.0  0.66761  0.47677  0.07359  1.0000
  C   C3560     1.0  0.77217  0.68550  0.08397  1.0000
  C   C3561     1.0  0.76176  0.67703  0.10025  1.0000
  C   C3562     1.0  0.76920  0.65969  0.10977  1.0000
  C   C3563     1.0  0.75569  0.49062  0.14967  1.0000
  C   C3564     1.0  0.70199  0.93570  0.38268  1.0000
  H   H6276     1.0  0.74781  0.68375  0.10538  1.0000
  H   H6277     1.0  0.73354  0.57728  0.97212  1.0000
  C   C3565     1.0  0.75193  0.87924  0.39101  1.0000
  S   S814      1.0  0.77226  0.93994  0.31824  1.0000
  C   C3566     1.0  0.76179  0.64384  0.06685  1.0000
  C   C3567     1.0  0.73813  0.62390  0.46185  1.0000
  S   S815      1.0  0.74352  0.50524  0.07184  1.0000
  H   H6278     1.0  0.63516  0.48458  0.07957  1.0000
  H   H6279     1.0  0.75990  0.80035  0.11902  1.0000
  H   H6280     1.0  0.76317  0.60288  0.46257  1.0000
  Fe  Fe403     1.0  0.61007  0.93114  0.00624  1.0000
  C   C3568     1.0  0.76186  0.73876  0.11650  1.0000
  H   H6281     1.0  0.75910  0.89453  0.01756  1.0000
  H   H6282     1.0  0.60693  0.63419  0.24256  1.0000
  H   H6283     1.0  0.69599  0.97310  0.38146  1.0000
  C   C3569     1.0  0.76650  0.70632  0.97471  1.0000
  H   H6284     1.0  0.76954  0.65006  0.07340  1.0000
  H   H6285     1.0  0.60337  0.51231  0.14870  1.0000
  H   H6286     1.0  0.63876  0.56066  0.30425  1.0000
  H   H6287     1.0  0.75302  0.61159  0.09156  1.0000
  H   H6288     1.0  0.72974  0.83107  0.32565  1.0000
  H   H6289     1.0  0.69248  0.67788  0.46744  1.0000
  N   N198      1.0  0.71100  0.65206  0.46367  1.0000
  H   H6290     1.0  0.60413  0.90197  0.08290  1.0000
  H   H6291     1.0  0.60122  0.95018  0.34990  1.0000
  H   H6292     1.0  0.72540  0.79810  0.33642  1.0000
  H   H6293     1.0  0.60384  0.57767  0.29175  1.0000
  H   H6294     1.0  0.60523  0.96408  0.13348  1.0000
  H   H6295     1.0  0.61891  0.83654  0.29443  1.0000
  H   H6296     1.0  0.59444  0.68115  0.38443  1.0000
  H   H6297     1.0  0.66345  0.55422  0.39452  1.0000
  H   H6298     1.0  0.73087  0.79543  0.31341  1.0000
  C   C3570     1.0  0.68839  0.87427  0.00756  1.0000
  C   C3571     1.0  0.74521  0.89485  0.01526  1.0000
  C   C3572     1.0  0.71528  0.82706  0.04833  1.0000
  H   H6299     1.0  0.61330  0.97313  0.40885  1.0000
  H   H6300     1.0  0.73649  0.47680  0.14413  1.0000
  C   C3573     1.0  0.77293  0.87331  0.38828  1.0000
  H   H6301     1.0  0.74408  0.71228  0.14249  1.0000
  H   H6302     1.0  0.58772  0.49317  0.34133  1.0000
  H   H6303     1.0  0.58542  0.63460  0.41241  1.0000
  H   H6304     1.0  0.63768  0.49038  0.03012  1.0000
  C   C3574     1.0  0.59516  0.84818  0.25910  1.0000
  C   C3575     1.0  0.71592  0.62290  0.30185  1.0000
  C   C3576     1.0  0.73499  0.61675  0.30688  1.0000
  H   H6305     1.0  0.72070  0.60071  0.28716  1.0000
  S   S816      1.0  0.59261  0.58067  0.40165  1.0000
  H   H6306     1.0  0.70593  0.61749  0.31402  1.0000
  N   N199      1.0  0.60449  0.60449  0.27415  1.0000
  H   H6307     1.0  0.72789  0.61041  0.24820  1.0000
  H   H6308     1.0  0.73897  0.60151  0.30994  1.0000
  H   H6309     1.0  0.74555  0.62241  0.29546  1.0000
  H   H6310     1.0  0.73472  0.62186  0.31931  1.0000
  H   H6311     1.0  0.58839  0.69033  0.29609  1.0000
  H   H6312     1.0  0.73947  0.95412  0.38052  1.0000
  N   N200      1.0  0.76654  0.75184  0.09842  1.0000
  C   C3577     1.0  0.75178  0.75384  0.08766  1.0000
  C   C3578     1.0  0.72750  0.70446  0.03914  1.0000
  C   C3579     1.0  0.62748  0.50654  0.17388  1.0000
  H   H6313     1.0  0.59246  0.54683  0.30786  1.0000
  C   C3580     1.0  0.75291  0.76807  0.06918  1.0000
  H   H6314     1.0  0.60192  0.48743  0.24024  1.0000
  H   H6315     1.0  0.71249  0.92551  0.20510  1.0000
  C   C3581     1.0  0.76145  0.71894  0.11532  1.0000
  C   C3582     1.0  0.73709  0.76904  0.05986  1.0000
  H   H6316     1.0  0.77522  0.47941  0.08077  1.0000
  H   H6317     1.0  0.65580  0.48651  0.99556  1.0000
  H   H6318     1.0  0.77910  0.91521  0.20270  1.0000
  H   H6319     1.0  0.75188  0.77918  0.10258  1.0000
  H   H6320     1.0  0.73780  0.75753  0.09627  1.0000
  H   H6321     1.0  0.75221  0.74059  0.08401  1.0000
  C   C3583     1.0  0.59911  0.59957  0.25858  1.0000
  H   H6322     1.0  0.71641  0.55113  0.03223  1.0000
  C   C3584     1.0  0.63377  0.52608  0.45899  1.0000
  H   H6323     1.0  0.62959  0.62037  0.41041  1.0000
  H   H6324     1.0  0.64451  0.71712  0.35065  1.0000
  H   H6325     1.0  0.66009  0.50815  0.01266  1.0000
  H   H6326     1.0  0.76587  0.76406  0.05942  1.0000
  H   H6327     1.0  0.75226  0.78207  0.07119  1.0000
  H   H6328     1.0  0.60154  0.64437  0.26274  1.0000
  H   H6329     1.0  0.66530  0.95911  0.04553  1.0000
  H   H6330     1.0  0.75787  0.62669  0.10368  1.0000
  H   H6331     1.0  0.61853  0.95607  0.28171  1.0000
  C   C3585     1.0  0.77401  0.81820  0.04931  1.0000
  H   H6332     1.0  0.73446  0.62320  0.02769  1.0000
  H   H6333     1.0  0.63118  0.60920  0.25812  1.0000
  S   S817      1.0  0.71047  0.48136  0.08369  1.0000
  H   H6334     1.0  0.72351  0.77286  0.06894  1.0000
  H   H6335     1.0  0.73805  0.77953  0.04687  1.0000
  H   H6336     1.0  0.73802  0.75556  0.05638  1.0000
  H   H6337     1.0  0.76095  0.78495  0.22419  1.0000
  C   C3586     1.0  0.59578  0.58728  0.43419  1.0000
  C   C3587     1.0  0.75071  0.80676  0.32024  1.0000
  H   H6338     1.0  0.65123  0.95029  0.39479  1.0000
  C   C3588     1.0  0.65167  0.48472  0.03343  1.0000
  H   H6339     1.0  0.76151  0.76717  0.13171  1.0000
  H   H6340     1.0  0.72755  0.68386  0.44418  1.0000
  H   H6341     1.0  0.75971  0.95978  0.44361  1.0000
  H   H6342     1.0  0.76877  0.77583  0.34116  1.0000
  H   H6343     1.0  0.73021  0.56319  0.03904  1.0000
  C   C3589     1.0  0.64598  0.54041  0.41825  1.0000
  H   H6344     1.0  0.75574  0.73768  0.32239  1.0000
  N   N201      1.0  0.76447  0.89595  0.18298  1.0000
  H   H6345     1.0  0.62164  0.66717  0.35106  1.0000
  C   C3590     1.0  0.61485  0.60738  0.43628  1.0000
  C   C3591     1.0  0.77964  0.85457  0.38204  1.0000
  C   C3592     1.0  0.62268  0.96278  0.40107  1.0000
  H   H6346     1.0  0.68784  0.86474  0.03660  1.0000
  C   C3593     1.0  0.74460  0.90956  0.13794  1.0000
  C   C3594     1.0  0.62567  0.54333  0.42891  1.0000
  C   C3595     1.0  0.71719  0.56474  0.03428  1.0000
  H   H6347     1.0  0.63394  0.59299  0.99744  1.0000
  H   H6348     1.0  0.70913  0.62296  0.44716  1.0000
  C   C3596     1.0  0.60156  0.53515  0.45549  1.0000
  H   H6349     1.0  0.73294  0.81768  0.06868  1.0000
  H   H6350     1.0  0.73472  0.82783  0.30214  1.0000
  H   H6351     1.0  0.68133  0.64428  0.24735  1.0000
  H   H6352     1.0  0.70975  0.61341  0.96912  1.0000
  C   C3597     1.0  0.68145  0.61879  0.45864  1.0000
  H   H6353     1.0  0.69088  0.63311  0.98963  1.0000
  Fe  Fe404     1.0  0.76071  0.95175  0.34387  1.0000
  H   H6354     1.0  0.69811  0.61240  0.22667  1.0000
  H   H6355     1.0  0.72318  0.79627  0.15237  1.0000
  H   H6356     1.0  0.65929  0.87644  0.02087  1.0000
  H   H6357     1.0  0.70063  0.82757  0.04842  1.0000
  C   C3598     1.0  0.59757  0.48813  0.19557  1.0000
  H   H6358     1.0  0.73465  0.62317  0.10713  1.0000
  H   H6359     1.0  0.75299  0.60335  0.02912  1.0000
  H   H6360     1.0  0.77679  0.87277  0.40144  1.0000
  H   H6361     1.0  0.70955  0.73674  0.33933  1.0000
  H   H6362     1.0  0.69414  0.93409  0.37297  1.0000
  H   H6363     1.0  0.75988  0.97350  0.28845  1.0000
  H   H6364     1.0  0.69693  0.75024  0.32187  1.0000
  H   H6365     1.0  0.61824  0.94941  0.40689  1.0000
  H   H6366     1.0  0.62055  0.92277  0.13453  1.0000
  C   C3599     1.0  0.66564  0.49324  0.01697  1.0000
  N   N202      1.0  0.61246  0.93195  0.31881  1.0000
  C   C3600     1.0  0.60884  0.93196  0.30032  1.0000
  C   C3601     1.0  0.59781  0.92427  0.33419  1.0000
  C   C3602     1.0  0.61096  0.95173  0.31985  1.0000
  C   C3603     1.0  0.63163  0.92162  0.32122  1.0000
  C   C3604     1.0  0.63800  0.90231  0.31633  1.0000
  C   C3605     1.0  0.62190  0.94089  0.28325  1.0000
  C   C3606     1.0  0.74966  0.61862  0.02641  1.0000
  C   C3607     1.0  0.73462  0.82172  0.98996  1.0000
  C   C3608     1.0  0.75897  0.89453  0.16587  1.0000
  C   C3609     1.0  0.65813  0.89436  0.31802  1.0000
  C   C3610     1.0  0.61974  0.93651  0.26560  1.0000
  H   H6367     1.0  0.77557  0.92059  0.17051  1.0000
  H   H6368     1.0  0.75615  0.69486  0.02906  1.0000
  H   H6369     1.0  0.60946  0.91778  0.29878  1.0000
  H   H6370     1.0  0.60297  0.91908  0.34729  1.0000
  H   H6371     1.0  0.73168  0.48060  0.16730  1.0000
  Fe  Fe405     1.0  0.60951  0.96928  0.01153  1.0000
  H   H6372     1.0  0.73827  0.94015  0.44464  1.0000
  H   H6373     1.0  0.64214  0.92987  0.31298  1.0000
  H   H6374     1.0  0.63300  0.91973  0.33573  1.0000
  H   H6375     1.0  0.63721  0.90272  0.30198  1.0000
  H   H6376     1.0  0.62961  0.89266  0.32592  1.0000
  H   H6377     1.0  0.59445  0.93936  0.29929  1.0000
  H   H6378     1.0  0.63660  0.93591  0.28434  1.0000
  C   C3611     1.0  0.66893  0.48449  0.00028  1.0000
  H   H6379     1.0  0.62267  0.88419  0.07519  1.0000
  H   H6380     1.0  0.74581  0.92122  0.18873  1.0000
  H   H6381     1.0  0.60042  0.89739  0.32715  1.0000
  N   N203      1.0  0.75920  0.65567  0.04833  1.0000
  H   H6382     1.0  0.73590  0.65037  0.04037  1.0000
  H   H6383     1.0  0.70943  0.82831  0.07746  1.0000
  H   H6384     1.0  0.66229  0.88032  0.31496  1.0000
  H   H6385     1.0  0.66744  0.90298  0.30801  1.0000
  H   H6386     1.0  0.65995  0.89341  0.33219  1.0000
  H   H6387     1.0  0.75215  0.93264  0.42407  1.0000
  H   H6388     1.0  0.77574  0.74169  0.32794  1.0000
  H   H6389     1.0  0.60505  0.94035  0.26419  1.0000
  H   H6390     1.0  0.63825  0.47756  0.17792  1.0000
  C   C3612     1.0  0.77203  0.77144  0.11940  1.0000
  H   H6391     1.0  0.58902  0.65427  0.46102  1.0000
  H   H6392     1.0  0.67927  0.62460  0.30437  1.0000
  C   C3613     1.0  0.72929  0.80165  0.16115  1.0000
  S   S818      1.0  0.71463  0.50548  0.11189  1.0000
  C   C3614     1.0  0.71702  0.57898  0.01628  1.0000
  H   H6393     1.0  0.59320  0.88110  0.23392  1.0000
  H   H6394     1.0  0.73123  0.62674  0.99356  1.0000
  H   H6395     1.0  0.69713  0.87186  0.99410  1.0000
  H   H6396     1.0  0.76166  0.80474  0.20562  1.0000
  Fe  Fe406     1.0  0.69291  0.50418  0.09742  1.0000
  C   C3615     1.0  0.76999  0.87677  0.19373  1.0000
  H   H6397     1.0  0.70313  0.59590  0.26822  1.0000
  H   H6398     1.0  0.60348  0.85720  0.26124  1.0000
  C   C3616     1.0  0.75129  0.64677  0.03733  1.0000
  H   H6399     1.0  0.71445  0.80547  0.07291  1.0000
  H   H6400     1.0  0.77491  0.53726  0.09740  1.0000
  Fe  Fe407     1.0  0.77933  0.71678  0.04433  1.0000
  C   C3617     1.0  0.61545  0.70606  0.34281  1.0000
  H   H6401     1.0  0.72669  0.62131  0.27341  1.0000
  H   H6402     1.0  0.62200  0.95781  0.30941  1.0000
  H   H6403     1.0  0.78153  0.59902  0.24583  1.0000
  H   H6404     1.0  0.67275  0.61169  0.00058  1.0000
  C   C3618     1.0  0.67758  0.64915  0.26051  1.0000
  H   H6405     1.0  0.73913  0.92289  0.12944  1.0000
  S   S819      1.0  0.78118  0.90893  0.07959  1.0000
  H   H6406     1.0  0.64898  0.81059  0.27263  1.0000
  C   C3619     1.0  0.74849  0.90730  0.30259  1.0000
  H   H6407     1.0  0.76915  0.78263  0.37113  1.0000
  H   H6408     1.0  0.73346  0.63824  0.07450  1.0000
  H   H6409     1.0  0.68549  0.61310  0.25952  1.0000
  H   H6410     1.0  0.78130  0.84241  0.41818  1.0000
  C   C3620     1.0  0.63041  0.94296  0.10981  1.0000
  C   C3621     1.0  0.59218  0.67700  0.32396  1.0000
  C   C3622     1.0  0.74377  0.64079  0.08103  1.0000
  H   H6411     1.0  0.64138  0.94654  0.11472  1.0000
  C   C3623     1.0  0.69551  0.63139  0.45192  1.0000
  C   C3624     1.0  0.64936  0.50857  0.05023  1.0000
  C   C3625     1.0  0.61229  0.63556  0.25422  1.0000
  H   H6412     1.0  0.74026  0.66726  0.40938  1.0000
  H   H6413     1.0  0.69137  0.64175  0.43988  1.0000
  H   H6414     1.0  0.75226  0.51021  0.12462  1.0000
  H   H6415     1.0  0.72347  0.50030  0.99438  1.0000
  H   H6416     1.0  0.77616  0.68930  0.44551  1.0000
  H   H6417     1.0  0.75189  0.77095  0.30279  1.0000
  H   H6418     1.0  0.64327  0.95606  0.41741  1.0000
  C   C3626     1.0  0.62027  0.47744  0.44805  1.0000
  C   C3627     1.0  0.71835  0.63521  0.98932  1.0000
  H   H6419     1.0  0.75090  0.83581  0.31024  1.0000
  C   C3628     1.0  0.72303  0.56870  0.97507  1.0000
  H   H6420     1.0  0.75667  0.62386  0.01215  1.0000
  H   H6421     1.0  0.62248  0.49031  0.06168  1.0000
  H   H6422     1.0  0.77793  0.66217  0.27823  1.0000
  H   H6423     1.0  0.60286  0.93684  0.12259  1.0000
  H   H6424     1.0  0.73202  0.67074  0.05868  1.0000
  C   C3629     1.0  0.60811  0.67505  0.35714  1.0000
  C   C3630     1.0  0.73713  0.79334  0.32559  1.0000
  H   H6425     1.0  0.61785  0.60560  0.39162  1.0000
  H   H6426     1.0  0.78407  0.73221  0.08234  1.0000
  H   H6427     1.0  0.76305  0.76059  0.38220  1.0000
  C   C3631     1.0  0.74761  0.62456  0.09679  1.0000
  H   H6428     1.0  0.63665  0.51590  0.04480  1.0000
  H   H6429     1.0  0.68605  0.67528  0.24730  1.0000
  H   H6430     1.0  0.74066  0.83067  0.97720  1.0000
  H   H6431     1.0  0.62207  0.55712  0.43248  1.0000
  C   C3632     1.0  0.75747  0.77540  0.37751  1.0000
  C   C3633     1.0  0.59284  0.88952  0.28831  1.0000
  H   H6432     1.0  0.64476  0.72457  0.32617  1.0000
  C   C3634     1.0  0.71529  0.91096  0.21242  1.0000
  C   C3635     1.0  0.64381  0.60203  0.99582  1.0000
  H   H6433     1.0  0.61568  0.51712  0.16971  1.0000
  H   H6434     1.0  0.75105  0.96584  0.42274  1.0000
  H   H6435     1.0  0.61740  0.68592  0.37681  1.0000
  H   H6436     1.0  0.61227  0.71161  0.35560  1.0000
  N   N204      1.0  0.63898  0.92988  0.09663  1.0000
  H   H6437     1.0  0.60781  0.67111  0.29733  1.0000
  H   H6438     1.0  0.63966  0.63766  0.23723  1.0000
  C   C3636     1.0  0.64393  0.94128  0.07757  1.0000
  C   C3637     1.0  0.65655  0.91755  0.10160  1.0000
  C   C3638     1.0  0.65442  0.90356  0.12008  1.0000
  C   C3639     1.0  0.63172  0.90546  0.08273  1.0000
  H   H6439     1.0  0.77609  0.66955  0.02415  1.0000
  H   H6440     1.0  0.73752  0.65322  0.08711  1.0000
  H   H6441     1.0  0.74809  0.74454  0.12430  1.0000
  C   C3640     1.0  0.67272  0.89026  0.12219  1.0000
  C   C3641     1.0  0.58810  0.61357  0.28690  1.0000
  H   H6442     1.0  0.74092  0.68345  0.02338  1.0000
  H   H6443     1.0  0.62808  0.94422  0.25347  1.0000
  C   C3642     1.0  0.73155  0.67169  0.43767  1.0000
  H   H6444     1.0  0.63388  0.64797  0.25734  1.0000
  H   H6445     1.0  0.77174  0.73725  0.12545  1.0000
  H   H6446     1.0  0.63110  0.94950  0.07289  1.0000
  H   H6447     1.0  0.65089  0.93237  0.06739  1.0000
  H   H6448     1.0  0.66429  0.91004  0.09041  1.0000
  H   H6449     1.0  0.66616  0.92589  0.10256  1.0000
  H   H6450     1.0  0.64415  0.89515  0.12121  1.0000
  H   H6451     1.0  0.75704  0.82464  0.22871  1.0000
  H   H6452     1.0  0.63356  0.91306  0.06825  1.0000
  H   H6453     1.0  0.64483  0.89606  0.08519  1.0000
  H   H6454     1.0  0.67106  0.94682  0.07702  1.0000
  H   H6455     1.0  0.60013  0.50738  0.22185  1.0000
  H   H6456     1.0  0.75534  0.65247  0.02233  1.0000
  H   H6457     1.0  0.59475  0.79383  0.27517  1.0000
  H   H6458     1.0  0.59020  0.85243  0.29292  1.0000
  C   C3643     1.0  0.63442  0.48748  0.11745  1.0000
  H   H6459     1.0  0.77892  0.88419  0.37769  1.0000
  H   H6460     1.0  0.68387  0.89782  0.12064  1.0000
  H   H6461     1.0  0.67120  0.88113  0.13602  1.0000
  H   H6462     1.0  0.67679  0.88152  0.11169  1.0000
  C   C3644     1.0  0.76956  0.80995  0.03699  1.0000
  H   H6463     1.0  0.58612  0.57829  0.44081  1.0000
  C   C3645     1.0  0.60573  0.48111  0.21326  1.0000
  H   H6464     1.0  0.59471  0.50335  0.19265  1.0000
  H   H6465     1.0  0.60498  0.47975  0.15217  1.0000
  C   C3646     1.0  0.77347  0.79091  0.11951  1.0000
  C   C3647     1.0  0.62512  0.91908  0.09605  1.0000
  H   H6466     1.0  0.71470  0.59204  0.23414  1.0000
  C   C3648     1.0  0.71203  0.60727  0.23013  1.0000
  H   H6467     1.0  0.60829  0.64731  0.38807  1.0000
  N   N205      1.0  0.62109  0.52889  0.44581  1.0000
  H   H6468     1.0  0.71239  0.63813  0.29931  1.0000
  H   H6469     1.0  0.76188  0.52157  0.09524  1.0000
  N   N206      1.0  0.59175  0.83322  0.27593  1.0000
  C   C3649     1.0  0.76614  0.77067  0.10164  1.0000
  C   C3650     1.0  0.67354  0.67014  0.25570  1.0000
  H   H6470     1.0  0.66101  0.51383  0.04010  1.0000
  C   C3651     1.0  0.77839  0.74064  0.29968  1.0000
  H   H6471     1.0  0.74461  0.66315  0.44145  1.0000
  S   S820      1.0  0.61986  0.91708  0.03275  1.0000
  H   H6472     1.0  0.66072  0.50801  0.07409  1.0000
  H   H6473     1.0  0.63578  0.51280  0.07840  1.0000
  C   C3652     1.0  0.62847  0.57004  0.31254  1.0000
  H   H6474     1.0  0.66347  0.88438  0.99629  1.0000
  H   H6475     1.0  0.61630  0.56365  0.31943  1.0000
  C   C3653     1.0  0.61574  0.93678  0.12694  1.0000
  C   C3654     1.0  0.66849  0.87366  0.00768  1.0000
  S   S821      1.0  0.59498  0.62749  0.36546  1.0000
  H   H6476     1.0  0.72884  0.75447  0.31321  1.0000
  H   H6477     1.0  0.72841  0.81197  0.98605  1.0000
  H   H6478     1.0  0.66465  0.64470  0.26847  1.0000
  H   H6479     1.0  0.71394  0.82365  0.01450  1.0000
  H   H6480     1.0  0.72414  0.60120  0.98479  1.0000
  N   N207      1.0  0.71622  0.85697  0.02291  1.0000
  H   H6481     1.0  0.62293  0.94979  0.14573  1.0000
  H   H6482     1.0  0.75023  0.71892  0.10851  1.0000
  C   C3655     1.0  0.63653  0.69814  0.33849  1.0000
  C   C3656     1.0  0.61027  0.82114  0.27836  1.0000
  H   H6483     1.0  0.66269  0.70642  0.33430  1.0000
  C   C3657     1.0  0.69916  0.61098  0.26327  1.0000
  C   C3658     1.0  0.61769  0.89342  0.08528  1.0000
  C   C3659     1.0  0.71605  0.66031  0.44340  1.0000
  H   H6484     1.0  0.72910  0.57407  0.00602  1.0000
  N   N208      1.0  0.72543  0.79449  0.21433  1.0000
  C   C3660     1.0  0.70473  0.80012  0.22009  1.0000
  C   C3661     1.0  0.73168  0.77404  0.22113  1.0000
  C   C3662     1.0  0.73413  0.80447  0.22354  1.0000
  C   C3663     1.0  0.73199  0.79989  0.19380  1.0000
  C   C3664     1.0  0.72307  0.79307  0.18143  1.0000
  C   C3665     1.0  0.69632  0.82084  0.21449  1.0000
  C   C3666     1.0  0.75556  0.79992  0.22030  1.0000
  C   C3667     1.0  0.71832  0.76129  0.22229  1.0000
  C   C3668     1.0  0.72740  0.74103  0.22725  1.0000
  C   C3669     1.0  0.67523  0.82438  0.21956  1.0000
  H   H6485     1.0  0.77060  0.63019  0.06548  1.0000
  H   H6486     1.0  0.70057  0.79615  0.23533  1.0000
  H   H6487     1.0  0.69742  0.79260  0.21452  1.0000
  H   H6488     1.0  0.74525  0.76883  0.21263  1.0000
  H   H6489     1.0  0.73413  0.77127  0.23543  1.0000
  H   H6490     1.0  0.72863  0.80185  0.23865  1.0000
  H   H6491     1.0  0.73036  0.81952  0.21882  1.0000
  H   H6492     1.0  0.73016  0.81509  0.18951  1.0000
  Fe  Fe408     1.0  0.76908  0.88330  0.08750  1.0000
  H   H6493     1.0  0.70779  0.79679  0.18475  1.0000
  H   H6494     1.0  0.72752  0.77796  0.18287  1.0000
  H   H6495     1.0  0.70085  0.82917  0.22181  1.0000
  H   H6496     1.0  0.70029  0.82596  0.19945  1.0000
  H   H6497     1.0  0.77167  0.87714  0.20765  1.0000
  H   H6498     1.0  0.73078  0.85777  0.99449  1.0000
  H   H6499     1.0  0.70588  0.76389  0.23326  1.0000
  H   H6500     1.0  0.71367  0.76351  0.20920  1.0000
  H   H6501     1.0  0.71730  0.73230  0.22866  1.0000
  H   H6502     1.0  0.73954  0.73731  0.21637  1.0000
  H   H6503     1.0  0.73184  0.73809  0.24062  1.0000
  H   H6504     1.0  0.67047  0.81953  0.23457  1.0000
  H   H6505     1.0  0.66964  0.83938  0.21605  1.0000
  H   H6506     1.0  0.66970  0.81729  0.21177  1.0000
  C   C3670     1.0  0.61608  0.49525  0.45518  1.0000
  H   H6507     1.0  0.75798  0.69266  0.13331  1.0000
  H   H6508     1.0  0.65758  0.50263  0.16620  1.0000
  S   S822      1.0  0.76050  0.88798  0.33435  1.0000
  C   C3671     1.0  0.64770  0.71253  0.33736  1.0000
  H   H6509     1.0  0.62310  0.95625  0.10258  1.0000
  C   C3672     1.0  0.61640  0.65760  0.38771  1.0000
  C   C3673     1.0  0.58621  0.53733  0.44467  1.0000
  C   C3674     1.0  0.66887  0.59263  0.32062  1.0000
  C   C3675     1.0  0.62838  0.64565  0.24615  1.0000
  C   C3676     1.0  0.77907  0.52095  0.13239  1.0000
  H   H6510     1.0  0.69353  0.75793  0.34312  1.0000
  C   C3677     1.0  0.61239  0.95498  0.33865  1.0000
  H   H6511     1.0  0.61577  0.65856  0.40209  1.0000
  H   H6512     1.0  0.76699  0.53144  0.12840  1.0000
  H   H6513     1.0  0.62705  0.50630  0.18852  1.0000
  H   H6514     1.0  0.61585  0.88481  0.09937  1.0000
  H   H6515     1.0  0.77111  0.88796  0.15653  1.0000
  C   C3678     1.0  0.62453  0.83047  0.28197  1.0000
  H   H6516     1.0  0.63479  0.57189  0.32336  1.0000
  H   H6517     1.0  0.71110  0.88385  0.02960  1.0000
  H   H6518     1.0  0.72632  0.71548  0.02669  1.0000
  C   C3679     1.0  0.75855  0.76677  0.31497  1.0000
  H   H6519     1.0  0.66552  0.58468  0.98088  1.0000
  H   H6520     1.0  0.70745  0.92185  0.39030  1.0000
  H   H6521     1.0  0.73207  0.88500  0.20824  1.0000
  Fe  Fe409     1.0  0.71960  0.50379  0.06062  1.0000
  H   H6522     1.0  0.66907  0.60050  0.33091  1.0000
  H   H6523     1.0  0.69757  0.94746  0.40644  1.0000
  H   H6524     1.0  0.69767  0.59084  0.30894  1.0000
  H   H6525     1.0  0.59762  0.96020  0.31646  1.0000
  H   H6526     1.0  0.61925  0.68206  0.32052  1.0000
  Fe  Fe410     1.0  0.60051  0.62127  0.33729  1.0000
  C   C3680     1.0  0.61387  0.58680  0.28495  1.0000
  C   C3681     1.0  0.70338  0.62378  0.99406  1.0000
  H   H6527     1.0  0.76971  0.74371  0.28919  1.0000
  C   C3682     1.0  0.67789  0.60302  0.98995  1.0000
  H   H6528     1.0  0.72067  0.64956  0.43497  1.0000
  C   C3683     1.0  0.69845  0.58234  0.00987  1.0000
  H   H6529     1.0  0.68075  0.61268  0.44720  1.0000
  C   C3684     1.0  0.60862  0.67637  0.37688  1.0000
  C   C3685     1.0  0.76672  0.74585  0.31767  1.0000
  C   C3686     1.0  0.74072  0.87564  0.02203  1.0000
  H   H6530     1.0  0.61282  0.71833  0.33174  1.0000
  H   H6531     1.0  0.62490  0.57901  0.27554  1.0000
  H   H6532     1.0  0.72987  0.71044  0.04996  1.0000
  H   H6533     1.0  0.74511  0.86891  0.40167  1.0000
  C   C3687     1.0  0.59676  0.49350  0.22726  1.0000
  Fe  Fe411     1.0  0.73305  0.48446  0.09596  1.0000
  C   C3688     1.0  0.75256  0.93749  0.43646  1.0000
  H   H6534     1.0  0.61359  0.47945  0.43618  1.0000
  C   C3689     1.0  0.77788  0.68132  0.45900  1.0000
  S   S823      1.0  0.78454  0.85661  0.10095  1.0000
  C   C3690     1.0  0.59118  0.50635  0.15659  1.0000
  C   C3691     1.0  0.64897  0.55668  0.40230  1.0000
  H   H6535     1.0  0.71315  0.77556  0.31714  1.0000
  H   H6536     1.0  0.68026  0.48777  0.05285  1.0000
  C   C3692     1.0  0.74358  0.68880  0.03446  1.0000
  H   H6537     1.0  0.70121  0.51816  0.97458  1.0000
  C   C3693     1.0  0.65898  0.96727  0.05642  1.0000
  C   C3694     1.0  0.77467  0.70803  0.35841  1.0000
  C   C3695     1.0  0.74605  0.67339  0.05173  1.0000
  H   H6538     1.0  0.75050  0.67924  0.06140  1.0000
  C   C3696     1.0  0.71944  0.76166  0.32394  1.0000
  C   C3697     1.0  0.74865  0.90633  0.19510  1.0000
  C   C3698     1.0  0.75590  0.77019  0.34652  1.0000
  H   H6539     1.0  0.71387  0.94213  0.37467  1.0000
  H   H6540     1.0  0.70355  0.66933  0.43858  1.0000
  H   H6541     1.0  0.62315  0.62001  0.27755  1.0000
  S   S824      1.0  0.61942  0.95818  0.03794  1.0000
  H   H6542     1.0  0.77062  0.77361  0.31080  1.0000
  H   H6543     1.0  0.72324  0.68811  0.41222  1.0000
  H   H6544     1.0  0.67916  0.49171  0.02070  1.0000
  H   H6545     1.0  0.62587  0.94765  0.34229  1.0000
  C   C3699     1.0  0.71824  0.81919  0.06805  1.0000
  H   H6546     1.0  0.63954  0.55855  0.39273  1.0000
  H   H6547     1.0  0.72642  0.49961  0.14886  1.0000
  H   H6548     1.0  0.70542  0.56908  0.04525  1.0000
  C   C3700     1.0  0.72984  0.76277  0.33852  1.0000
  H   H6549     1.0  0.77157  0.84456  0.39173  1.0000
  C   C3701     1.0  0.72041  0.84625  0.04133  1.0000
  H   H6550     1.0  0.71429  0.69948  0.04400  1.0000
  H   H6551     1.0  0.62548  0.50080  0.11801  1.0000
  C   C3702     1.0  0.69338  0.64166  0.27150  1.0000
  C   C3703     1.0  0.74974  0.71274  0.98584  1.0000
  H   H6552     1.0  0.71951  0.91023  0.22549  1.0000
  H   H6553     1.0  0.60872  0.80928  0.28998  1.0000
  H   H6554     1.0  0.70000  0.61905  0.00921  1.0000
  H   H6555     1.0  0.65577  0.53916  0.42721  1.0000
  H   H6556     1.0  0.75695  0.80636  0.33197  1.0000
  H   H6557     1.0  0.73493  0.74852  0.34561  1.0000
  C   C3704     1.0  0.77583  0.70132  0.34263  1.0000
  H   H6558     1.0  0.63538  0.59451  0.29433  1.0000
  H   H6559     1.0  0.65030  0.91090  0.13170  1.0000
  H   H6560     1.0  0.71210  0.63077  0.24022  1.0000
  H   H6561     1.0  0.66762  0.86005  0.00572  1.0000
  C   C3705     1.0  0.60494  0.68924  0.32542  1.0000
  H   H6562     1.0  0.70229  0.90565  0.21588  1.0000
  C   C3706     1.0  0.62702  0.48717  0.17141  1.0000
  C   C3707     1.0  0.62331  0.51095  0.43996  1.0000
  H   H6563     1.0  0.75820  0.80407  0.24656  1.0000
  H   H6564     1.0  0.76967  0.65341  0.31194  1.0000
  H   H6565     1.0  0.63816  0.50558  0.43465  1.0000
  C   C3708     1.0  0.61067  0.94986  0.14035  1.0000
  H   H6566     1.0  0.61250  0.92872  0.09216  1.0000
  C   C3709     1.0  0.65364  0.48587  0.11402  1.0000
  Fe  Fe412     1.0  0.59899  0.93983  0.04451  1.0000
  C   C3710     1.0  0.72103  0.87563  0.01990  1.0000
  C   C3711     1.0  0.71982  0.83322  0.00234  1.0000
  C   C3712     1.0  0.76252  0.80958  0.23164  1.0000
  H   H6567     1.0  0.71333  0.85452  0.05205  1.0000
  H   H6568     1.0  0.76126  0.92652  0.44493  1.0000
  H   H6569     1.0  0.59804  0.66617  0.35892  1.0000
  C   C3713     1.0  0.75624  0.62545  0.04028  1.0000
  H   H6570     1.0  0.71926  0.76905  0.34931  1.0000
  C   C3714     1.0  0.73023  0.89932  0.20031  1.0000
  C   C3715     1.0  0.74501  0.77797  0.36388  1.0000
  H   H6571     1.0  0.75245  0.90576  0.20837  1.0000
  H   H6572     1.0  0.75641  0.90212  0.12903  1.0000
  H   H6573     1.0  0.73920  0.79287  0.36038  1.0000
  H   H6574     1.0  0.73352  0.77068  0.37106  1.0000
  H   H6575     1.0  0.75472  0.50056  0.15834  1.0000
  H   H6576     1.0  0.72235  0.61129  0.21758  1.0000
  H   H6577     1.0  0.77526  0.85683  0.36870  1.0000
  C   C3716     1.0  0.75783  0.70684  0.13452  1.0000
  C   C3717     1.0  0.64846  0.51520  0.06804  1.0000
  H   H6578     1.0  0.74753  0.89259  0.39558  1.0000
  H   H6579     1.0  0.74940  0.78109  0.38978  1.0000
  H   H6580     1.0  0.60290  0.70233  0.31514  1.0000
  H   H6581     1.0  0.70858  0.84035  0.99472  1.0000
  H   H6582     1.0  0.76866  0.70614  0.14214  1.0000
  C   C3718     1.0  0.61858  0.61665  0.26629  1.0000
  S   S825      1.0  0.75581  0.92489  0.36210  1.0000
  H   H6583     1.0  0.74711  0.79472  0.18986  1.0000
  C   C3719     1.0  0.74084  0.82654  0.31424  1.0000
  C   C3720     1.0  0.59736  0.48564  0.16435  1.0000
  H   H6584     1.0  0.64729  0.54007  0.07721  1.0000
  H   H6585     1.0  0.74893  0.88524  0.16936  1.0000
  C   C3721     1.0  0.72787  0.84753  0.00750  1.0000
  H   H6586     1.0  0.61682  0.81504  0.26593  1.0000
  H   H6587     1.0  0.73355  0.90137  0.14305  1.0000
  H   H6588     1.0  0.62856  0.84138  0.27009  1.0000
  Fe  Fe413     1.0  0.76980  0.91265  0.33726  1.0000
  C   C3722     1.0  0.62271  0.58870  0.30033  1.0000
  H   H6589     1.0  0.74941  0.61919  0.05423  1.0000
  C   C3723     1.0  0.75086  0.91296  0.15402  1.0000
  H   H6590     1.0  0.73869  0.92078  0.16214  1.0000
  C   C3724     1.0  0.58955  0.90905  0.33098  1.0000
  H   H6591     1.0  0.77785  0.80714  0.22818  1.0000
  Fe  Fe414     1.0  0.77803  0.61776  0.14057  1.0000
  H   H6592     1.0  0.77584  0.63840  0.28542  1.0000
  H   H6593     1.0  0.77126  0.62006  0.03897  1.0000
  H   H6594     1.0  0.77472  0.77841  0.08961  1.0000
  H   H6595     1.0  0.78120  0.94244  0.41065  1.0000
  H   H6596     1.0  0.77480  0.71233  0.10766  1.0000
  H   H6597     1.0  0.67908  0.96696  0.37329  1.0000
  H   H6598     1.0  0.58550  0.49879  0.31758  1.0000
  H   H6599     1.0  0.77567  0.51759  0.14768  1.0000
  C   C3725     1.0  0.69589  0.64121  0.46722  1.0000
  H   H6600     1.0  0.77304  0.96608  0.38830  1.0000
  H   H6601     1.0  0.60089  0.49883  0.45989  1.0000
  C   C3726     1.0  0.78034  0.95202  0.41971  1.0000
  H   H6602     1.0  0.59999  0.54865  0.45921  1.0000
  C   C3727     1.0  0.66985  0.47875  0.05834  1.0000
  Fe  Fe415     1.0  0.78242  0.59666  0.17901  1.0000
  H   H6603     1.0  0.59614  0.57070  0.26762  1.0000
  C   C3728     1.0  0.78025  0.90610  0.17728  1.0000
  C   C3729     1.0  0.77750  0.66051  0.03778  1.0000
  H   H6604     1.0  0.78216  0.96567  0.26016  1.0000
  H   H6605     1.0  0.77487  0.53838  0.06505  1.0000
  H   H6606     1.0  0.77263  0.67240  0.22047  1.0000
  Fe  Fe416     1.0  0.78333  0.72212  0.39488  1.0000
  H   H6607     1.0  0.78214  0.66854  0.04544  1.0000
  H   H6608     1.0  0.77769  0.79109  0.13232  1.0000
  C   C3730     1.0  0.77598  0.52418  0.09313  1.0000
  S   S826      1.0  0.77868  0.62663  0.16605  1.0000
  H   H6609     1.0  0.75042  0.67568  0.46668  1.0000
  N   N209      1.0  0.78151  0.50403  0.12464  1.0000
  H   H6610     1.0  0.72959  0.61325  0.46537  1.0000
  H   H6611     1.0  0.76340  0.48794  0.12103  1.0000
  H   H6612     1.0  0.62088  0.48034  0.21014  1.0000
  H   H6613     1.0  0.59905  0.97007  0.07537  1.0000
  H   H6614     1.0  0.78167  0.65653  0.25034  1.0000
  S   S827      1.0  0.58770  0.95225  0.01886  1.0000
  C   C3731     1.0  0.78444  0.64829  0.28495  1.0000
  S   S828      1.0  0.78433  0.58766  0.15282  1.0000
  H   H6615     1.0  0.78320  0.62491  0.25927  1.0000
  C   C3732     1.0  0.78403  0.52684  0.07248  1.0000
  C   C3733     1.0  0.78412  0.64914  0.30476  1.0000
  H   H6616     1.0  0.58561  0.93535  0.33719  1.0000
  H   H6617     1.0  0.78346  0.96204  0.23168  1.0000
  H   H6618     1.0  0.58750  0.54843  0.43226  1.0000
  Fe  Fe417     1.0  0.58681  0.59998  0.37532  1.0000
  H   H6619     1.0  0.78074  0.83850  0.20011  1.0000
  Fe  Fe418     1.0  0.78432  0.92172  0.36674  1.0000
  H   H6620     1.0  0.78395  0.79593  0.10757  1.0000
  C   C3734     1.0  0.78489  0.74453  0.08707  1.0000
  H   H6621     1.0  0.78494  0.51423  0.06736  1.0000
  H   H6622     1.0  0.78511  0.83172  0.35701  1.0000
  H   H6623     1.0  0.73848  0.52234  0.85729  1.0000
  S   S829      1.0  0.63841  0.50832  0.92740  1.0000
  S   S830      1.0  0.71070  0.67157  0.89682  1.0000
  H   H6624     1.0  0.63277  0.63454  0.89018  1.0000
  Fe  Fe419     1.0  0.73548  0.67571  0.90479  1.0000
  S   S831      1.0  0.76409  0.66386  0.89058  1.0000
  C   C3735     1.0  0.73419  0.54619  0.57570  1.0000
  H   H6625     1.0  0.67002  0.51385  0.85121  1.0000
  C   C3736     1.0  0.60419  0.81931  0.75289  1.0000
  Fe  Fe420     1.0  0.77553  0.73944  0.66829  1.0000
  H   H6626     1.0  0.59231  0.97345  0.95228  1.0000
  H   H6627     1.0  0.59535  0.49285  0.54990  1.0000
  H   H6628     1.0  0.68384  0.54184  0.83853  1.0000
  H   H6629     1.0  0.60918  0.49429  0.92248  1.0000
  C   C3737     1.0  0.68660  0.67952  0.50308  1.0000
  S   S832      1.0  0.68585  0.68975  0.93224  1.0000
  H   H6630     1.0  0.63064  0.65009  0.55147  1.0000
  H   H6631     1.0  0.59261  0.72698  0.54991  1.0000
  H   H6632     1.0  0.72632  0.56818  0.94603  1.0000
  Fe  Fe421     1.0  0.75475  0.76323  0.63907  1.0000
  S   S833      1.0  0.75574  0.73399  0.65402  1.0000
  S   S834      1.0  0.72808  0.78176  0.63283  1.0000
  C   C3738     1.0  0.73655  0.63220  0.85928  1.0000
  H   H6633     1.0  0.72347  0.63424  0.48596  1.0000
  H   H6634     1.0  0.69658  0.49019  0.88898  1.0000
  H   H6635     1.0  0.62184  0.70488  0.91625  1.0000
  S   S835      1.0  0.71169  0.70322  0.96258  1.0000
  H   H6636     1.0  0.58681  0.71446  0.57316  1.0000
  Fe  Fe422     1.0  0.71785  0.63634  0.56780  1.0000
  S   S836      1.0  0.74242  0.61974  0.55207  1.0000
  S   S837      1.0  0.69000  0.62830  0.57725  1.0000
  Fe  Fe423     1.0  0.73849  0.66655  0.56525  1.0000
  S   S838      1.0  0.73492  0.69479  0.57089  1.0000
  Fe  Fe424     1.0  0.74621  0.64691  0.53343  1.0000
  S   S839      1.0  0.74728  0.65297  0.50285  1.0000
  Fe  Fe425     1.0  0.75843  0.62694  0.56927  1.0000
  S   S840      1.0  0.72044  0.66287  0.54807  1.0000
  S   S841      1.0  0.73343  0.64143  0.58662  1.0000
  Fe  Fe426     1.0  0.60172  0.95568  0.63589  1.0000
  H   H6637     1.0  0.61350  0.65846  0.86603  1.0000
  H   H6638     1.0  0.67427  0.68709  0.49721  1.0000
  Fe  Fe427     1.0  0.62030  0.60827  0.47949  1.0000
  H   H6639     1.0  0.64655  0.74851  0.93912  1.0000
  H   H6640     1.0  0.77524  0.90094  0.56203  1.0000
  S   S842      1.0  0.59895  0.95340  0.66615  1.0000
  Fe  Fe428     1.0  0.62830  0.78006  0.68917  1.0000
  S   S843      1.0  0.62116  0.78957  0.66121  1.0000
  S   S844      1.0  0.65675  0.77394  0.69562  1.0000
  H   H6641     1.0  0.64027  0.50805  0.86398  1.0000
  H   H6642     1.0  0.63277  0.80813  0.75508  1.0000
  H   H6643     1.0  0.65859  0.94263  0.65862  1.0000
  H   H6644     1.0  0.73576  0.56242  0.88931  1.0000
  S   S845      1.0  0.61173  0.75775  0.69832  1.0000
  S   S846      1.0  0.60570  0.80095  0.70199  1.0000
  Fe  Fe429     1.0  0.64035  0.60810  0.50929  1.0000
  S   S847      1.0  0.61941  0.62927  0.49552  1.0000
  S   S848      1.0  0.66747  0.61521  0.50848  1.0000
  Fe  Fe430     1.0  0.62020  0.57743  0.51342  1.0000
  H   H6645     1.0  0.74664  0.96372  0.55600  1.0000
  S   S849      1.0  0.62346  0.54691  0.52444  1.0000
  C   C3739     1.0  0.68288  0.48675  0.89058  1.0000
  S   S850      1.0  0.59765  0.59584  0.49961  1.0000
  C   C3740     1.0  0.61230  0.48974  0.56932  1.0000
  S   S851      1.0  0.64291  0.58803  0.49159  1.0000
  S   S852      1.0  0.61918  0.59609  0.53230  1.0000
  C   C3741     1.0  0.73291  0.70424  0.96708  1.0000
  H   H6646     1.0  0.69627  0.63071  0.48021  1.0000
  H   H6647     1.0  0.58778  0.69393  0.87584  1.0000
  H   H6648     1.0  0.61878  0.67319  0.54401  1.0000
  C   C3742     1.0  0.64914  0.75034  0.92390  1.0000
  C   C3743     1.0  0.77860  0.57758  0.57048  1.0000
  C   C3744     1.0  0.58912  0.75944  0.92317  1.0000
  C   C3745     1.0  0.61216  0.53433  0.51614  1.0000
  C   C3746     1.0  0.73816  0.47648  0.89294  1.0000
  H   H6649     1.0  0.59569  0.88363  0.58407  1.0000
  H   H6650     1.0  0.60642  0.87758  0.60378  1.0000
  H   H6651     1.0  0.60627  0.81266  0.74102  1.0000
  H   H6652     1.0  0.58700  0.91702  0.91371  1.0000
  S   S853      1.0  0.75105  0.49294  0.83765  1.0000
  H   H6653     1.0  0.63723  0.97210  0.65466  1.0000
  H   H6654     1.0  0.77804  0.58724  0.55754  1.0000
  H   H6655     1.0  0.59699  0.74702  0.91759  1.0000
  H   H6656     1.0  0.77511  0.68347  0.78748  1.0000
  C   C3747     1.0  0.68332  0.62443  0.55847  1.0000
  C   C3748     1.0  0.69547  0.62544  0.54143  1.0000
  C   C3749     1.0  0.69057  0.62185  0.52650  1.0000
  C   C3750     1.0  0.67326  0.61782  0.52826  1.0000
  C   C3751     1.0  0.66092  0.61688  0.54525  1.0000
  C   C3752     1.0  0.66600  0.62015  0.56040  1.0000
  H   H6657     1.0  0.70870  0.62900  0.53966  1.0000
  H   H6658     1.0  0.70020  0.62238  0.51344  1.0000
  H   H6659     1.0  0.64749  0.61381  0.54665  1.0000
  H   H6660     1.0  0.65658  0.61923  0.57358  1.0000
  C   C3753     1.0  0.70831  0.77983  0.65039  1.0000
  C   C3754     1.0  0.70984  0.77262  0.66871  1.0000
  C   C3755     1.0  0.69387  0.77104  0.68246  1.0000
  C   C3756     1.0  0.67634  0.77634  0.67794  1.0000
  C   C3757     1.0  0.67480  0.78347  0.65958  1.0000
  C   C3758     1.0  0.69075  0.78535  0.64587  1.0000
  H   H6661     1.0  0.72333  0.76832  0.67230  1.0000
  H   H6662     1.0  0.69513  0.76553  0.69665  1.0000
  H   H6663     1.0  0.66136  0.78757  0.65597  1.0000
  H   H6664     1.0  0.68955  0.79080  0.63167  1.0000
  C   C3759     1.0  0.74977  0.69638  0.58441  1.0000
  C   C3760     1.0  0.76103  0.68068  0.59255  1.0000
  H   H6665     1.0  0.73255  0.69678  0.49369  1.0000
  C   C3761     1.0  0.70356  0.66779  0.47382  1.0000
  C   C3762     1.0  0.76107  0.71514  0.59885  1.0000
  C   C3763     1.0  0.74992  0.71360  0.58746  1.0000
  H   H6666     1.0  0.76100  0.66733  0.59026  1.0000
  C   C3764     1.0  0.61670  0.53591  0.88256  1.0000
  H   H6667     1.0  0.76122  0.72844  0.60114  1.0000
  H   H6668     1.0  0.74133  0.72573  0.58108  1.0000
  C   C3765     1.0  0.74416  0.49280  0.86125  1.0000
  C   C3766     1.0  0.73846  0.50952  0.86723  1.0000
  C   C3767     1.0  0.73257  0.50973  0.88606  1.0000
  H   H6669     1.0  0.60198  0.83948  0.68980  1.0000
  H   H6670     1.0  0.71766  0.54896  0.96198  1.0000
  C   C3768     1.0  0.61985  0.72215  0.88964  1.0000
  H   H6671     1.0  0.72815  0.52268  0.89064  1.0000
  H   H6672     1.0  0.61402  0.65656  0.92622  1.0000
  C   C3769     1.0  0.64824  0.73159  0.87173  1.0000
  S   S854      1.0  0.72344  0.70490  0.90797  1.0000
  H   H6673     1.0  0.60306  0.86641  0.70166  1.0000
  H   H6674     1.0  0.61894  0.68123  0.85942  1.0000
  C   C3770     1.0  0.74969  0.69777  0.95598  1.0000
  Fe  Fe431     1.0  0.69763  0.69980  0.90252  1.0000
  C   C3771     1.0  0.65778  0.72119  0.88560  1.0000
  S   S855      1.0  0.63027  0.95457  0.61768  1.0000
  H   H6675     1.0  0.63044  0.80180  0.85662  1.0000
  Fe  Fe432     1.0  0.70094  0.66188  0.92703  1.0000
  C   C3772     1.0  0.65474  0.62106  0.86183  1.0000
  C   C3773     1.0  0.68982  0.53858  0.85105  1.0000
  S   S856      1.0  0.59896  0.77165  0.80574  1.0000
  S   S857      1.0  0.72677  0.66365  0.93472  1.0000
  H   H6676     1.0  0.65824  0.66037  0.55250  1.0000
  H   H6677     1.0  0.68847  0.58683  0.59162  1.0000
  C   C3774     1.0  0.64970  0.68885  0.57275  1.0000
  C   C3775     1.0  0.65006  0.53905  0.47640  1.0000
  C   C3776     1.0  0.64819  0.71157  0.90166  1.0000
  H   H6678     1.0  0.65536  0.70367  0.91249  1.0000
  H   H6679     1.0  0.70293  0.54371  0.84740  1.0000
  C   C3777     1.0  0.77167  0.70559  0.84666  1.0000
  H   H6680     1.0  0.62221  0.73965  0.86270  1.0000
  N   N210      1.0  0.77458  0.71375  0.50932  1.0000
  S   S858      1.0  0.59657  0.72118  0.89211  1.0000
  C   C3778     1.0  0.76388  0.69500  0.86326  1.0000
  H   H6681     1.0  0.59366  0.59420  0.87978  1.0000
  H   H6682     1.0  0.63808  0.53826  0.89530  1.0000
  C   C3779     1.0  0.77137  0.48334  0.94859  1.0000
  H   H6683     1.0  0.75072  0.70061  0.87117  1.0000
  H   H6684     1.0  0.60716  0.79910  0.85891  1.0000
  Fe  Fe433     1.0  0.67423  0.53833  0.95373  1.0000
  C   C3780     1.0  0.60031  0.51123  0.89802  1.0000
  C   C3781     1.0  0.60375  0.77786  0.89484  1.0000
  H   H6685     1.0  0.75932  0.47860  0.75995  1.0000
  H   H6686     1.0  0.71850  0.52566  0.57581  1.0000
  C   C3782     1.0  0.69155  0.62680  0.90748  1.0000
  H   H6687     1.0  0.62543  0.63948  0.95376  1.0000
  H   H6688     1.0  0.74975  0.69208  0.94439  1.0000
  C   C3783     1.0  0.67020  0.67973  0.57355  1.0000
  S   S859      1.0  0.68167  0.72023  0.88229  1.0000
  C   C3784     1.0  0.78216  0.66070  0.49405  1.0000
  C   C3785     1.0  0.59079  0.68026  0.87207  1.0000
  H   H6689     1.0  0.76895  0.96929  0.54545  1.0000
  H   H6690     1.0  0.73011  0.66218  0.85420  1.0000
  H   H6691     1.0  0.76450  0.74320  0.50594  1.0000
  H   H6692     1.0  0.68096  0.67806  0.84742  1.0000
  H   H6693     1.0  0.65533  0.63417  0.89223  1.0000
  H   H6694     1.0  0.62215  0.70428  0.54467  1.0000
  H   H6695     1.0  0.62583  0.77915  0.85973  1.0000
  H   H6696     1.0  0.64986  0.68302  0.54170  1.0000
  S   S860      1.0  0.76472  0.65267  0.54908  1.0000
  H   H6697     1.0  0.59080  0.78374  0.88950  1.0000
  H   H6698     1.0  0.70182  0.96122  0.54336  1.0000
  C   C3786     1.0  0.58541  0.64187  0.55177  1.0000
  H   H6699     1.0  0.63117  0.78539  0.88824  1.0000
  C   C3787     1.0  0.58836  0.94607  0.90506  1.0000
  H   H6700     1.0  0.61760  0.50250  0.56241  1.0000
  C   C3788     1.0  0.69370  0.51786  0.85849  1.0000
  S   S861      1.0  0.68400  0.52827  0.90469  1.0000
  C   C3789     1.0  0.68022  0.60632  0.93531  1.0000
  C   C3790     1.0  0.67990  0.59379  0.92499  1.0000
  C   C3791     1.0  0.65198  0.64080  0.86429  1.0000
  C   C3792     1.0  0.64886  0.94699  0.67094  1.0000
  H   H6701     1.0  0.63930  0.66434  0.59926  1.0000
  H   H6702     1.0  0.60912  0.76450  0.89024  1.0000
  C   C3793     1.0  0.64256  0.97197  0.61520  1.0000
  C   C3794     1.0  0.68661  0.62255  0.92669  1.0000
  H   H6703     1.0  0.74146  0.77571  0.73387  1.0000
  H   H6704     1.0  0.76843  0.69464  0.53531  1.0000
  H   H6705     1.0  0.77936  0.59478  0.87755  1.0000
  N   N211      1.0  0.75275  0.61191  0.88559  1.0000
  H   H6706     1.0  0.68831  0.49541  0.83318  1.0000
  H   H6707     1.0  0.76712  0.60433  0.85951  1.0000
  S   S862      1.0  0.72538  0.49336  0.92246  1.0000
  H   H6708     1.0  0.75889  0.49443  0.95030  1.0000
  H   H6709     1.0  0.67553  0.60332  0.95003  1.0000
  S   S863      1.0  0.67646  0.51013  0.94911  1.0000
  C   C3795     1.0  0.61742  0.79081  0.88451  1.0000
  N   N212      1.0  0.59954  0.77495  0.91557  1.0000
  S   S864      1.0  0.58656  0.83701  0.65961  1.0000
  H   H6710     1.0  0.59462  0.52623  0.56526  1.0000
  S   S865      1.0  0.68836  0.63693  0.94051  1.0000
  C   C3796     1.0  0.73123  0.53061  0.56781  1.0000
  C   C3797     1.0  0.61138  0.67171  0.87035  1.0000
  H   H6711     1.0  0.60478  0.77470  0.74003  1.0000
  H   H6712     1.0  0.73216  0.62949  0.91626  1.0000
  H   H6713     1.0  0.63167  0.83214  0.60520  1.0000
  H   H6714     1.0  0.76044  0.51814  0.56076  1.0000
  C   C3798     1.0  0.76615  0.69026  0.77727  1.0000
  H   H6715     1.0  0.61366  0.76679  0.93842  1.0000
  N   N213      1.0  0.69851  0.71967  0.63749  1.0000
  C   C3799     1.0  0.67959  0.73184  0.64087  1.0000
  C   C3800     1.0  0.71124  0.72914  0.62124  1.0000
  C   C3801     1.0  0.69627  0.70258  0.63257  1.0000
  C   C3802     1.0  0.70695  0.71384  0.65441  1.0000
  C   C3803     1.0  0.70702  0.72928  0.66405  1.0000
  C   C3804     1.0  0.66495  0.72369  0.65679  1.0000
  C   C3805     1.0  0.71441  0.68823  0.62859  1.0000
  C   C3806     1.0  0.70759  0.75042  0.61732  1.0000
  C   C3807     1.0  0.72244  0.75806  0.60193  1.0000
  C   C3808     1.0  0.71430  0.72124  0.68187  1.0000
  C   C3809     1.0  0.64842  0.73873  0.66198  1.0000
  C   C3810     1.0  0.71149  0.67344  0.62006  1.0000
  H   H6716     1.0  0.67375  0.73569  0.62815  1.0000
  H   H6717     1.0  0.68041  0.74507  0.64374  1.0000
  H   H6718     1.0  0.72593  0.72409  0.62266  1.0000
  H   H6719     1.0  0.71065  0.72565  0.60813  1.0000
  H   H6720     1.0  0.68964  0.70642  0.62034  1.0000
  H   H6721     1.0  0.68687  0.69512  0.64388  1.0000
  H   H6722     1.0  0.70004  0.70337  0.66484  1.0000
  H   H6723     1.0  0.72163  0.70670  0.65097  1.0000
  H   H6724     1.0  0.69298  0.73750  0.66788  1.0000
  H   H6725     1.0  0.71612  0.73849  0.65492  1.0000
  H   H6726     1.0  0.65976  0.71344  0.65249  1.0000
  H   H6727     1.0  0.67054  0.71698  0.66939  1.0000
  H   H6728     1.0  0.71928  0.68128  0.64158  1.0000
  H   H6729     1.0  0.72560  0.69468  0.61903  1.0000
  H   H6730     1.0  0.69415  0.75630  0.61294  1.0000
  H   H6731     1.0  0.70727  0.75534  0.62973  1.0000
  H   H6732     1.0  0.72312  0.75371  0.58898  1.0000
  H   H6733     1.0  0.71907  0.77332  0.59938  1.0000
  H   H6734     1.0  0.73610  0.75346  0.60599  1.0000
  H   H6735     1.0  0.70463  0.71319  0.69210  1.0000
  H   H6736     1.0  0.72815  0.71221  0.67924  1.0000
  H   H6737     1.0  0.71555  0.73253  0.68786  1.0000
  H   H6738     1.0  0.63736  0.73245  0.67212  1.0000
  H   H6739     1.0  0.65248  0.74832  0.66827  1.0000
  H   H6740     1.0  0.64278  0.74664  0.64964  1.0000
  H   H6741     1.0  0.70062  0.66623  0.62929  1.0000
  H   H6742     1.0  0.70755  0.67961  0.60650  1.0000
  H   H6743     1.0  0.72460  0.66322  0.61785  1.0000
  C   C3811     1.0  0.73256  0.49319  0.89892  1.0000
  H   H6744     1.0  0.62544  0.74024  0.92379  1.0000
  Fe  Fe434     1.0  0.58854  0.77945  0.70873  1.0000
  C   C3812     1.0  0.76225  0.52146  0.78980  1.0000
  H   H6745     1.0  0.60350  0.57227  0.89236  1.0000
  H   H6746     1.0  0.75086  0.68556  0.51847  1.0000
  H   H6747     1.0  0.68155  0.70455  0.56143  1.0000
  H   H6748     1.0  0.69541  0.68679  0.57540  1.0000
  C   C3813     1.0  0.59678  0.54280  0.50814  1.0000
  C   C3814     1.0  0.74851  0.51796  0.77987  1.0000
  C   C3815     1.0  0.73000  0.51618  0.79302  1.0000
  H   H6749     1.0  0.64156  0.62353  0.60490  1.0000
  H   H6750     1.0  0.66897  0.95464  0.60744  1.0000
  C   C3816     1.0  0.59712  0.87353  0.59712  1.0000
  H   H6751     1.0  0.64902  0.63814  0.94167  1.0000
  C   C3817     1.0  0.78327  0.95501  0.59977  1.0000
  H   H6752     1.0  0.75395  0.50470  0.77525  1.0000
  H   H6753     1.0  0.75502  0.53271  0.79742  1.0000
  C   C3818     1.0  0.62436  0.64819  0.59175  1.0000
  H   H6754     1.0  0.70642  0.48088  0.86020  1.0000
  H   H6755     1.0  0.68011  0.54583  0.86166  1.0000
  C   C3819     1.0  0.58821  0.79262  0.92107  1.0000
  H   H6756     1.0  0.60303  0.92384  0.92307  1.0000
  H   H6757     1.0  0.60921  0.65850  0.89856  1.0000
  H   H6758     1.0  0.61164  0.48758  0.58431  1.0000
  H   H6759     1.0  0.68553  0.60744  0.47002  1.0000
  S   S866      1.0  0.65504  0.55209  0.93416  1.0000
  H   H6760     1.0  0.58988  0.50360  0.89883  1.0000
  H   H6761     1.0  0.74572  0.52920  0.76802  1.0000
  H   H6762     1.0  0.77937  0.69382  0.95116  1.0000
  H   H6763     1.0  0.72354  0.52905  0.79824  1.0000
  H   H6764     1.0  0.72046  0.51339  0.78569  1.0000
  H   H6765     1.0  0.73194  0.50458  0.80488  1.0000
  H   H6766     1.0  0.71455  0.67542  0.47273  1.0000
  H   H6767     1.0  0.73945  0.70519  0.52831  1.0000
  H   H6768     1.0  0.77427  0.63603  0.85898  1.0000
  H   H6769     1.0  0.72906  0.75353  0.82522  1.0000
  C   C3820     1.0  0.74465  0.70042  0.51516  1.0000
  C   C3821     1.0  0.76192  0.75192  0.74335  1.0000
  H   H6770     1.0  0.58611  0.58802  0.90454  1.0000
  H   H6771     1.0  0.65586  0.94197  0.68286  1.0000
  S   S867      1.0  0.77256  0.76940  0.65518  1.0000
  N   N214      1.0  0.72026  0.56397  0.57328  1.0000
  C   C3822     1.0  0.72560  0.57778  0.58096  1.0000
  C   C3823     1.0  0.70140  0.56022  0.58316  1.0000
  C   C3824     1.0  0.71981  0.57187  0.55321  1.0000
  C   C3825     1.0  0.73885  0.57292  0.54007  1.0000
  C   C3826     1.0  0.72498  0.57319  0.60197  1.0000
  C   C3827     1.0  0.72761  0.58957  0.60833  1.0000
  C   C3828     1.0  0.73651  0.58372  0.52083  1.0000
  H   H6772     1.0  0.74840  0.54862  0.56960  1.0000
  H   H6773     1.0  0.73995  0.57947  0.57439  1.0000
  H   H6774     1.0  0.71695  0.59169  0.57739  1.0000
  H   H6775     1.0  0.71262  0.56407  0.54774  1.0000
  H   H6776     1.0  0.71140  0.58610  0.55158  1.0000
  H   H6777     1.0  0.74687  0.55894  0.53869  1.0000
  H   H6778     1.0  0.74721  0.57979  0.54510  1.0000
  H   H6779     1.0  0.68397  0.58486  0.57024  1.0000
  H   H6780     1.0  0.71163  0.56975  0.61005  1.0000
  H   H6781     1.0  0.73627  0.56141  0.60542  1.0000
  H   H6782     1.0  0.72820  0.58571  0.62318  1.0000
  H   H6783     1.0  0.74067  0.59395  0.60050  1.0000
  H   H6784     1.0  0.71590  0.60137  0.60633  1.0000
  H   H6785     1.0  0.72801  0.57756  0.51510  1.0000
  H   H6786     1.0  0.72982  0.59828  0.52129  1.0000
  H   H6787     1.0  0.75028  0.58347  0.51153  1.0000
  H   H6788     1.0  0.77981  0.76513  0.76964  1.0000
  C   C3829     1.0  0.62034  0.79278  0.86368  1.0000
  H   H6789     1.0  0.59450  0.73288  0.62744  1.0000
  H   H6790     1.0  0.67584  0.65801  0.87809  1.0000
  H   H6791     1.0  0.75259  0.57822  0.91301  1.0000
  H   H6792     1.0  0.66970  0.67748  0.88900  1.0000
  H   H6793     1.0  0.76301  0.76748  0.79964  1.0000
  H   H6794     1.0  0.65557  0.73910  0.85928  1.0000
  H   H6795     1.0  0.59638  0.80371  0.91613  1.0000
  H   H6796     1.0  0.70022  0.51552  0.87041  1.0000
  C   C3830     1.0  0.67936  0.68388  0.85975  1.0000
  C   C3831     1.0  0.77228  0.68224  0.60384  1.0000
  C   C3832     1.0  0.77993  0.57105  0.60276  1.0000
  S   S868      1.0  0.58762  0.93218  0.63926  1.0000
  C   C3833     1.0  0.78370  0.74991  0.77385  1.0000
  C   C3834     1.0  0.74699  0.76129  0.73207  1.0000
  H   H6797     1.0  0.59902  0.95437  0.90297  1.0000
  H   H6798     1.0  0.64155  0.68942  0.87776  1.0000
  H   H6799     1.0  0.65004  0.70088  0.56108  1.0000
  H   H6800     1.0  0.65579  0.76239  0.91743  1.0000
  C   C3835     1.0  0.59456  0.71318  0.55902  1.0000
  C   C3836     1.0  0.61744  0.66838  0.88896  1.0000
  C   C3837     1.0  0.68546  0.59763  0.90587  1.0000
  H   H6801     1.0  0.65080  0.48620  0.88929  1.0000
  H   H6802     1.0  0.58745  0.50872  0.59501  1.0000
  H   H6803     1.0  0.70385  0.51136  0.84762  1.0000
  Fe  Fe435     1.0  0.60273  0.76886  0.67121  1.0000
  C   C3838     1.0  0.64419  0.64232  0.88475  1.0000
  H   H6804     1.0  0.61783  0.82797  0.62806  1.0000
  C   C3839     1.0  0.75335  0.73210  0.53381  1.0000
  H   H6805     1.0  0.70128  0.58830  0.96308  1.0000
  H   H6806     1.0  0.76446  0.71934  0.84190  1.0000
  H   H6807     1.0  0.73426  0.54048  0.59055  1.0000
  C   C3840     1.0  0.62489  0.51568  0.91046  1.0000
  H   H6808     1.0  0.74943  0.70972  0.79332  1.0000
  H   H6809     1.0  0.73967  0.59496  0.87614  1.0000
  H   H6810     1.0  0.71088  0.96278  0.56238  1.0000
  H   H6811     1.0  0.67723  0.97288  0.56843  1.0000
  H   H6812     1.0  0.64785  0.67570  0.86118  1.0000
  H   H6813     1.0  0.76397  0.57217  0.89108  1.0000
  H   H6814     1.0  0.77966  0.55413  0.55926  1.0000
  H   H6815     1.0  0.68217  0.67528  0.51822  1.0000
  H   H6816     1.0  0.73699  0.77371  0.82544  1.0000
  C   C3841     1.0  0.77326  0.67731  0.86967  1.0000
  C   C3842     1.0  0.60229  0.77291  0.76908  1.0000
  H   H6817     1.0  0.78364  0.79338  0.70146  1.0000
  H   H6818     1.0  0.73753  0.64883  0.47062  1.0000
  H   H6819     1.0  0.65626  0.58462  0.59496  1.0000
  H   H6820     1.0  0.58635  0.83151  0.87791  1.0000
  H   H6821     1.0  0.61215  0.80474  0.88768  1.0000
  H   H6822     1.0  0.67195  0.69843  0.85725  1.0000
  H   H6823     1.0  0.74477  0.50307  0.56351  1.0000
  H   H6824     1.0  0.63794  0.67465  0.91082  1.0000
  H   H6825     1.0  0.70688  0.65472  0.50224  1.0000
  C   C3843     1.0  0.66723  0.57203  0.59449  1.0000
  C   C3844     1.0  0.60874  0.50458  0.51315  1.0000
  C   C3845     1.0  0.63205  0.82876  0.62008  1.0000
  H   H6826     1.0  0.66334  0.56309  0.58729  1.0000
  H   H6827     1.0  0.63240  0.65577  0.51884  1.0000
  H   H6828     1.0  0.66803  0.56472  0.60884  1.0000
  C   C3846     1.0  0.74187  0.59696  0.88926  1.0000
  H   H6829     1.0  0.65035  0.55151  0.48110  1.0000
  H   H6830     1.0  0.60196  0.71873  0.78263  1.0000
  C   C3847     1.0  0.62923  0.71223  0.90374  1.0000
  H   H6831     1.0  0.75119  0.75135  0.83104  1.0000
  H   H6832     1.0  0.77302  0.69692  0.68311  1.0000
  H   H6833     1.0  0.77968  0.57539  0.73796  1.0000
  C   C3848     1.0  0.63947  0.65991  0.58640  1.0000
  C   C3849     1.0  0.72756  0.64028  0.47111  1.0000
  H   H6834     1.0  0.73917  0.75012  0.55298  1.0000
  S   S869      1.0  0.58553  0.76892  0.85884  1.0000
  C   C3850     1.0  0.62776  0.63246  0.60811  1.0000
  S   S870      1.0  0.60329  0.75047  0.65214  1.0000
  C   C3851     1.0  0.75781  0.71019  0.77917  1.0000
  C   C3852     1.0  0.78065  0.55235  0.60380  1.0000
  H   H6835     1.0  0.59656  0.84625  0.73700  1.0000
  H   H6836     1.0  0.72407  0.56921  0.91091  1.0000
  H   H6837     1.0  0.73551  0.75366  0.73619  1.0000
  H   H6838     1.0  0.72744  0.63215  0.88821  1.0000
  H   H6839     1.0  0.67714  0.67357  0.56131  1.0000
  C   C3853     1.0  0.59047  0.77172  0.78643  1.0000
  H   H6840     1.0  0.76478  0.62509  0.90021  1.0000
  C   C3854     1.0  0.76163  0.95929  0.55608  1.0000
  C   C3855     1.0  0.72739  0.55839  0.95932  1.0000
  C   C3856     1.0  0.74731  0.51413  0.56899  1.0000
  C   C3857     1.0  0.69060  0.48078  0.84021  1.0000
  C   C3858     1.0  0.63113  0.75286  0.91742  1.0000
  C   C3859     1.0  0.64313  0.96795  0.66723  1.0000
  C   C3860     1.0  0.61814  0.51523  0.51855  1.0000
  C   C3861     1.0  0.62934  0.73198  0.87368  1.0000
  H   H6841     1.0  0.77449  0.68963  0.76322  1.0000
  N   N215      1.0  0.63781  0.66145  0.88894  1.0000
  C   C3862     1.0  0.63008  0.48407  0.86513  1.0000
  C   C3863     1.0  0.66884  0.67266  0.87677  1.0000
  H   H6842     1.0  0.69582  0.63963  0.90074  1.0000
  H   H6843     1.0  0.61042  0.65647  0.59597  1.0000
  C   C3864     1.0  0.69093  0.61435  0.89702  1.0000
  C   C3865     1.0  0.72808  0.70230  0.50655  1.0000
  H   H6844     1.0  0.59261  0.78932  0.94914  1.0000
  H   H6845     1.0  0.58592  0.52459  0.54663  1.0000
  H   H6846     1.0  0.62883  0.83136  0.74205  1.0000
  H   H6847     1.0  0.62688  0.63797  0.62047  1.0000
  Fe  Fe436     1.0  0.59705  0.80855  0.67471  1.0000
  H   H6848     1.0  0.61665  0.77328  0.76779  1.0000
  H   H6849     1.0  0.76461  0.50870  0.80038  1.0000
  C   C3866     1.0  0.76551  0.66309  0.48845  1.0000
  C   C3867     1.0  0.59593  0.86828  0.69059  1.0000
  C   C3868     1.0  0.61509  0.70566  0.55894  1.0000
  C   C3869     1.0  0.77710  0.54274  0.76371  1.0000
  C   C3870     1.0  0.60306  0.52616  0.88354  1.0000
  N   N216      1.0  0.67760  0.48983  0.87212  1.0000
  Fe  Fe437     1.0  0.68128  0.55493  0.91323  1.0000
  H   H6850     1.0  0.69499  0.61749  0.88217  1.0000
  H   H6851     1.0  0.63015  0.50865  0.52458  1.0000
  H   H6852     1.0  0.71035  0.65130  0.86417  1.0000
  C   C3871     1.0  0.75636  0.74199  0.79647  1.0000
  H   H6853     1.0  0.61377  0.48994  0.51461  1.0000
  C   C3872     1.0  0.74145  0.75978  0.82211  1.0000
  H   H6854     1.0  0.58565  0.47452  0.60103  1.0000
  H   H6855     1.0  0.78255  0.71404  0.78537  1.0000
  H   H6856     1.0  0.75725  0.62673  0.93326  1.0000
  C   C3873     1.0  0.75083  0.76119  0.80181  1.0000
  H   H6857     1.0  0.58589  0.56016  0.55715  1.0000
  C   C3874     1.0  0.66187  0.96819  0.60982  1.0000
  H   H6858     1.0  0.65888  0.73793  0.91984  1.0000
  H   H6859     1.0  0.66565  0.64486  0.85950  1.0000
  H   H6860     1.0  0.77723  0.74155  0.47780  1.0000
  H   H6861     1.0  0.77324  0.75972  0.73803  1.0000
  H   H6862     1.0  0.73342  0.60509  0.92331  1.0000
  H   H6863     1.0  0.63466  0.75398  0.90229  1.0000
  H   H6864     1.0  0.62441  0.64188  0.58033  1.0000
  H   H6865     1.0  0.60891  0.67867  0.57143  1.0000
  H   H6866     1.0  0.64679  0.52829  0.48876  1.0000
  H   H6867     1.0  0.78094  0.67005  0.61016  1.0000
  H   H6868     1.0  0.61259  0.68148  0.89417  1.0000
  H   H6869     1.0  0.72107  0.65219  0.84023  1.0000
  C   C3875     1.0  0.61699  0.76991  0.92311  1.0000
  H   H6870     1.0  0.64284  0.64971  0.85506  1.0000
  H   H6871     1.0  0.72102  0.71692  0.50347  1.0000
  C   C3876     1.0  0.63490  0.64665  0.94229  1.0000
  H   H6872     1.0  0.77008  0.54063  0.75360  1.0000
  C   C3877     1.0  0.74159  0.61606  0.91949  1.0000
  C   C3878     1.0  0.76907  0.73132  0.51662  1.0000
  H   H6873     1.0  0.78424  0.54347  0.79440  1.0000
  C   C3879     1.0  0.76644  0.69878  0.95983  1.0000
  H   H6874     1.0  0.65514  0.65448  0.52245  1.0000
  Fe  Fe438     1.0  0.65957  0.52415  0.92757  1.0000
  H   H6875     1.0  0.74880  0.50856  0.58352  1.0000
  H   H6876     1.0  0.76125  0.93052  0.56357  1.0000
  H   H6877     1.0  0.77983  0.57581  0.61493  1.0000
  H   H6878     1.0  0.69325  0.68373  0.86188  1.0000
  C   C3880     1.0  0.68566  0.57738  0.58427  1.0000
  H   H6879     1.0  0.74387  0.55056  0.91017  1.0000
  C   C3881     1.0  0.64084  0.66264  0.52386  1.0000
  C   C3882     1.0  0.59532  0.85303  0.68389  1.0000
  S   S871      1.0  0.76092  0.96379  0.61111  1.0000
  N   N217      1.0  0.64833  0.85184  0.65184  1.0000
  C   C3883     1.0  0.63961  0.83938  0.64568  1.0000
  C   C3884     1.0  0.64687  0.84677  0.67254  1.0000
  C   C3885     1.0  0.63754  0.87125  0.64722  1.0000
  C   C3886     1.0  0.66815  0.85162  0.64197  1.0000
  C   C3887     1.0  0.68113  0.83258  0.64216  1.0000
  C   C3888     1.0  0.63915  0.84357  0.62490  1.0000
  C   C3889     1.0  0.64315  0.88609  0.65414  1.0000
  C   C3890     1.0  0.64728  0.82628  0.68207  1.0000
  C   C3891     1.0  0.64646  0.82349  0.70270  1.0000
  C   C3892     1.0  0.70032  0.83444  0.63061  1.0000
  C   C3893     1.0  0.63117  0.90499  0.64886  1.0000
  H   H6880     1.0  0.62509  0.83991  0.65338  1.0000
  H   H6881     1.0  0.64660  0.82479  0.64918  1.0000
  H   H6882     1.0  0.65780  0.85137  0.67652  1.0000
  H   H6883     1.0  0.63359  0.85425  0.67959  1.0000
  H   H6884     1.0  0.62247  0.87169  0.65284  1.0000
  H   H6885     1.0  0.63895  0.87606  0.63207  1.0000
  H   H6886     1.0  0.66881  0.85886  0.62734  1.0000
  H   H6887     1.0  0.67468  0.85954  0.64798  1.0000
  H   H6888     1.0  0.67583  0.82360  0.63630  1.0000
  H   H6889     1.0  0.68295  0.82584  0.65634  1.0000
  H   H6890     1.0  0.62968  0.85682  0.62116  1.0000
  H   H6891     1.0  0.65311  0.84415  0.61625  1.0000
  H   H6892     1.0  0.65769  0.88726  0.64792  1.0000
  H   H6893     1.0  0.64148  0.88292  0.66935  1.0000
  H   H6894     1.0  0.63509  0.82178  0.68058  1.0000
  H   H6895     1.0  0.65980  0.81707  0.67622  1.0000
  H   H6896     1.0  0.65869  0.82715  0.70519  1.0000
  H   H6897     1.0  0.63363  0.83202  0.70920  1.0000
  H   H6898     1.0  0.64636  0.80885  0.70929  1.0000
  H   H6899     1.0  0.70657  0.84311  0.63599  1.0000
  H   H6900     1.0  0.70948  0.82066  0.63123  1.0000
  H   H6901     1.0  0.69957  0.84052  0.61598  1.0000
  H   H6902     1.0  0.63522  0.91537  0.65407  1.0000
  H   H6903     1.0  0.63280  0.90933  0.63366  1.0000
  H   H6904     1.0  0.61645  0.90467  0.65507  1.0000
  H   H6905     1.0  0.71808  0.69437  0.51633  1.0000
  C   C3894     1.0  0.64833  0.67527  0.87561  1.0000
  H   H6906     1.0  0.70178  0.55203  0.59733  1.0000
  C   C3895     1.0  0.61827  0.68705  0.57272  1.0000
  C   C3896     1.0  0.62760  0.53071  0.89605  1.0000
  C   C3897     1.0  0.75049  0.57774  0.89935  1.0000
  S   S872      1.0  0.70018  0.54300  0.93329  1.0000
  C   C3898     1.0  0.63252  0.66401  0.54396  1.0000
  H   H6907     1.0  0.75040  0.76662  0.76514  1.0000
  H   H6908     1.0  0.66539  0.51816  0.87367  1.0000
  H   H6909     1.0  0.59295  0.71003  0.80655  1.0000
  H   H6910     1.0  0.60883  0.92156  0.89929  1.0000
  H   H6911     1.0  0.67275  0.49608  0.89914  1.0000
  H   H6912     1.0  0.76238  0.97038  0.65015  1.0000
  H   H6913     1.0  0.76518  0.70265  0.49070  1.0000
  H   H6914     1.0  0.62044  0.71606  0.56283  1.0000
  C   C3899     1.0  0.77025  0.60751  0.87167  1.0000
  C   C3900     1.0  0.65928  0.48391  0.87556  1.0000
  C   C3901     1.0  0.77894  0.58367  0.58610  1.0000
  H   H6915     1.0  0.64101  0.67655  0.51509  1.0000
  C   C3902     1.0  0.59557  0.77379  0.75337  1.0000
  C   C3903     1.0  0.58774  0.88600  0.68262  1.0000
  H   H6916     1.0  0.76438  0.73247  0.80658  1.0000
  C   C3904     1.0  0.59060  0.58277  0.89153  1.0000
  H   H6917     1.0  0.74716  0.64170  0.87824  1.0000
  H   H6918     1.0  0.59209  0.55752  0.50624  1.0000
  H   H6919     1.0  0.61707  0.62396  0.61134  1.0000
  H   H6920     1.0  0.61305  0.68996  0.58688  1.0000
  H   H6921     1.0  0.59914  0.80987  0.76567  1.0000
  C   C3905     1.0  0.64542  0.67113  0.55217  1.0000
  C   C3906     1.0  0.75786  0.61326  0.90292  1.0000
  H   H6922     1.0  0.65296  0.65038  0.58345  1.0000
  H   H6923     1.0  0.69652  0.68876  0.50031  1.0000
  H   H6924     1.0  0.73001  0.53527  0.55318  1.0000
  H   H6925     1.0  0.74932  0.63174  0.84845  1.0000
  H   H6926     1.0  0.74092  0.77068  0.79363  1.0000
  H   H6927     1.0  0.62403  0.78181  0.91936  1.0000
  H   H6928     1.0  0.64353  0.69466  0.58543  1.0000
  H   H6929     1.0  0.65532  0.65460  0.90907  1.0000
  C   C3907     1.0  0.62307  0.82165  0.75427  1.0000
  Fe  Fe439     1.0  0.71269  0.69242  0.93743  1.0000
  C   C3908     1.0  0.69567  0.66247  0.49481  1.0000
  H   H6930     1.0  0.75607  0.72019  0.54507  1.0000
  N   N218      1.0  0.76702  0.74128  0.77704  1.0000
  C   C3909     1.0  0.73777  0.56418  0.90260  1.0000
  H   H6931     1.0  0.75298  0.76146  0.71723  1.0000
  S   S873      1.0  0.68591  0.58128  0.89325  1.0000
  C   C3910     1.0  0.68102  0.69378  0.57421  1.0000
  C   C3911     1.0  0.64065  0.66058  0.90802  1.0000
  N   N219      1.0  0.78051  0.52559  0.77825  1.0000
  H   H6932     1.0  0.75719  0.60237  0.94112  1.0000
  H   H6933     1.0  0.72952  0.62128  0.85900  1.0000
  H   H6934     1.0  0.67530  0.58113  0.93193  1.0000
  H   H6935     1.0  0.72775  0.60107  0.89733  1.0000
  H   H6936     1.0  0.61887  0.54744  0.87133  1.0000
  C   C3912     1.0  0.72374  0.65063  0.85419  1.0000
  C   C3913     1.0  0.59738  0.92587  0.91052  1.0000
  C   C3914     1.0  0.75431  0.75191  0.76406  1.0000
  H   H6937     1.0  0.58670  0.68221  0.85867  1.0000
  H   H6938     1.0  0.62193  0.82684  0.76690  1.0000
  H   H6939     1.0  0.69699  0.55146  0.57614  1.0000
  C   C3915     1.0  0.67567  0.51015  0.86392  1.0000
  C   C3916     1.0  0.77952  0.55886  0.57148  1.0000
  H   H6940     1.0  0.68506  0.65398  0.49770  1.0000
  N   N220      1.0  0.63795  0.67648  0.57079  1.0000
  C   C3917     1.0  0.61127  0.50595  0.91138  1.0000
  Fe  Fe440     1.0  0.70062  0.51606  0.92667  1.0000
  H   H6941     1.0  0.64135  0.61643  0.86578  1.0000
  H   H6942     1.0  0.76687  0.73779  0.74081  1.0000
  Fe  Fe441     1.0  0.59829  0.61552  0.51667  1.0000
  H   H6943     1.0  0.67119  0.66877  0.58607  1.0000
  H   H6944     1.0  0.64126  0.81512  0.62309  1.0000
  H   H6945     1.0  0.61689  0.97006  0.95039  1.0000
  S   S874      1.0  0.78103  0.52297  0.58913  1.0000
  C   C3918     1.0  0.74092  0.62997  0.87853  1.0000
  H   H6946     1.0  0.77421  0.51052  0.75053  1.0000
  H   H6947     1.0  0.67465  0.70031  0.58633  1.0000
  C   C3919     1.0  0.77321  0.72130  0.77560  1.0000
  C   C3920     1.0  0.74876  0.61604  0.93641  1.0000
  H   H6948     1.0  0.74321  0.73712  0.79905  1.0000
  H   H6949     1.0  0.73693  0.61922  0.94773  1.0000
  C   C3921     1.0  0.59315  0.49086  0.56508  1.0000
  H   H6950     1.0  0.74105  0.74696  0.76811  1.0000
  H   H6951     1.0  0.74874  0.76195  0.53047  1.0000
  H   H6952     1.0  0.75193  0.72436  0.49479  1.0000
  H   H6953     1.0  0.74859  0.71624  0.76913  1.0000
  H   H6954     1.0  0.76832  0.60102  0.90739  1.0000
  H   H6955     1.0  0.78091  0.91557  0.58553  1.0000
  C   C3922     1.0  0.75118  0.74941  0.54128  1.0000
  H   H6956     1.0  0.62950  0.63545  0.92154  1.0000
  H   H6957     1.0  0.76425  0.94002  0.53924  1.0000
  C   C3923     1.0  0.59295  0.51291  0.50585  1.0000
  H   H6958     1.0  0.77523  0.79060  0.68260  1.0000
  C   C3924     1.0  0.75926  0.71092  0.50166  1.0000
  H   H6959     1.0  0.74001  0.73267  0.53018  1.0000
  C   C3925     1.0  0.75603  0.61501  0.46885  1.0000
  C   C3926     1.0  0.77219  0.69944  0.60716  1.0000
  H   H6960     1.0  0.75307  0.61044  0.48406  1.0000
  H   H6961     1.0  0.66437  0.61165  0.87040  1.0000
  H   H6962     1.0  0.78305  0.89379  0.50795  1.0000
  C   C3927     1.0  0.76847  0.93990  0.55212  1.0000
  C   C3928     1.0  0.62868  0.64925  0.92418  1.0000
  H   H6963     1.0  0.66074  0.62024  0.84719  1.0000
  H   H6964     1.0  0.60343  0.85965  0.59403  1.0000
  H   H6965     1.0  0.63668  0.94052  0.67375  1.0000
  C   C3929     1.0  0.58653  0.85552  0.66922  1.0000
  S   S875      1.0  0.77898  0.60683  0.58486  1.0000
  H   H6966     1.0  0.77843  0.51629  0.81847  1.0000
  C   C3930     1.0  0.64620  0.49376  0.86191  1.0000
  S   S876      1.0  0.77308  0.72819  0.69872  1.0000
  H   H6967     1.0  0.63479  0.66014  0.94526  1.0000
  C   C3931     1.0  0.78056  0.54621  0.58813  1.0000
  H   H6968     1.0  0.59100  0.84531  0.76121  1.0000
  C   C3932     1.0  0.78020  0.69718  0.52373  1.0000
  H   H6969     1.0  0.65336  0.49447  0.84737  1.0000
  S   S877      1.0  0.58954  0.90510  0.69022  1.0000
  H   H6970     1.0  0.76730  0.55395  0.77009  1.0000
  S   S878      1.0  0.77813  0.75613  0.61571  1.0000
  H   H6971     1.0  0.72022  0.47626  0.82864  1.0000
  C   C3933     1.0  0.76337  0.67350  0.47096  1.0000
  C   C3934     1.0  0.58705  0.53207  0.50322  1.0000
  H   H6972     1.0  0.59588  0.64880  0.57220  1.0000
  H   H6973     1.0  0.76373  0.74907  0.54632  1.0000
  H   H6974     1.0  0.78114  0.54271  0.61677  1.0000
  Fe  Fe442     1.0  0.78051  0.72726  0.63211  1.0000
  C   C3935     1.0  0.78224  0.62252  0.86473  1.0000
  H   H6975     1.0  0.59695  0.63070  0.54918  1.0000
  H   H6976     1.0  0.59301  0.94911  0.87550  1.0000
  H   H6977     1.0  0.78163  0.71976  0.76184  1.0000
  C   C3936     1.0  0.59054  0.83812  0.75039  1.0000
  H   H6978     1.0  0.78271  0.70761  0.73255  1.0000
  H   H6979     1.0  0.74164  0.55005  0.95822  1.0000
  C   C3937     1.0  0.58920  0.71860  0.79350  1.0000
  H   H6980     1.0  0.76822  0.88683  0.59622  1.0000
  H   H6981     1.0  0.58798  0.75507  0.93834  1.0000
  H   H6982     1.0  0.78396  0.65258  0.50746  1.0000
  H   H6983     1.0  0.75492  0.68255  0.77982  1.0000
  H   H6984     1.0  0.76366  0.95955  0.56984  1.0000
  H   H6985     1.0  0.63660  0.96985  0.69549  1.0000
  H   H6986     1.0  0.61774  0.96687  0.68760  1.0000
  C   C3938     1.0  0.78263  0.88682  0.59675  1.0000
  H   H6987     1.0  0.77128  0.67374  0.68335  1.0000
  H   H6988     1.0  0.78284  0.88853  0.61067  1.0000
  H   H6989     1.0  0.62840  0.47567  0.54715  1.0000
  H   H6990     1.0  0.62019  0.49227  0.85625  1.0000
  H   H6991     1.0  0.59694  0.66620  0.48420  1.0000
  H   H6992     1.0  0.78430  0.68460  0.51769  1.0000
  S   S879      1.0  0.58971  0.53259  0.86648  1.0000
  H   H6993     1.0  0.65596  0.97327  0.66468  1.0000
  H   H6994     1.0  0.62220  0.54980  0.47260  1.0000
  H   H6995     1.0  0.77859  0.91298  0.53126  1.0000
  H   H6996     1.0  0.76930  0.48343  0.92121  1.0000
  H   H6997     1.0  0.62259  0.48267  0.87970  1.0000
  C   C3939     1.0  0.58697  0.90599  0.96678  1.0000
  C   C3940     1.0  0.70400  0.97089  0.55088  1.0000
  H   H6998     1.0  0.62899  0.51681  0.47215  1.0000
  H   H6999     1.0  0.78125  0.73458  0.51972  1.0000
  H   H7000     1.0  0.58875  0.70396  0.55388  1.0000
  H   H7001     1.0  0.67894  0.47469  0.83996  1.0000
  H   H7002     1.0  0.77901  0.68860  0.66200  1.0000
  H   H7003     1.0  0.68197  0.65032  0.46952  1.0000
  H   H7004     1.0  0.76736  0.96625  0.67279  1.0000
  C   C3941     1.0  0.77946  0.68465  0.67687  1.0000
  H   H7005     1.0  0.58934  0.47713  0.57041  1.0000
  C   C3942     1.0  0.74404  0.47626  0.87411  1.0000
  C   C3943     1.0  0.69261  0.47836  0.86033  1.0000
  S   S880      1.0  0.78494  0.48305  0.63394  1.0000
  H   H7006     1.0  0.78377  0.48970  0.94415  1.0000
  H   H7007     1.0  0.78510  0.47622  0.86155  1.0000
  H   H7008     1.0  0.67540  0.47518  0.92886  1.0000
  H   H7009     1.0  0.74299  0.47567  0.74787  1.0000
  H   H7010     1.0  0.66398  0.53419  0.46839  1.0000
  H   H7011     1.0  0.59832  0.52555  0.46874  1.0000
  H   H7012     1.0  0.83387  0.98389  0.23926  1.0000
  H   H7013     1.0  0.79700  0.01103  0.24864  1.0000
  C   C3944     1.0  0.84230  0.29226  0.04301  1.0000
  C   C3945     1.0  0.83210  0.20994  0.97088  1.0000
  H   H7014     1.0  0.78986  0.21043  0.02134  1.0000
  Fe  Fe443     1.0  0.93949  0.44746  0.14752  1.0000
  S   S881      1.0  0.91273  0.43714  0.15511  1.0000
  H   H7015     1.0  0.97495  0.97861  0.35087  1.0000
  H   H7016     1.0  0.90312  0.33231  0.03033  1.0000
  H   H7017     1.0  0.83895  0.09823  0.03658  1.0000
  H   H7018     1.0  0.83045  0.30814  0.97837  1.0000
  S   S882      1.0  0.94210  0.47094  0.12348  1.0000
  H   H7019     1.0  0.97844  0.98694  0.26824  1.0000
  C   C3946     1.0  0.80590  0.17122  0.08728  1.0000
  Fe  Fe444     1.0  0.79475  0.12618  0.01709  1.0000
  H   H7020     1.0  0.91773  0.42329  0.06731  1.0000
  Fe  Fe445     1.0  0.84351  0.19670  0.28570  1.0000
  S   S883      1.0  0.85884  0.21504  0.26244  1.0000
  S   S884      1.0  0.81681  0.20994  0.30214  1.0000
  Fe  Fe446     1.0  0.87256  0.16269  0.28010  1.0000
  S   S885      1.0  0.89064  0.17831  0.25691  1.0000
  S   S886      1.0  0.88106  0.13197  0.28978  1.0000
  Fe  Fe447     1.0  0.88386  0.19973  0.27412  1.0000
  S   S887      1.0  0.90396  0.21748  0.27287  1.0000
  Fe  Fe448     1.0  0.86435  0.19240  0.24701  1.0000
  S   S888      1.0  0.86681  0.19606  0.21632  1.0000
  S   S889      1.0  0.86812  0.18287  0.29852  1.0000
  S   S890      1.0  0.84658  0.17529  0.26913  1.0000
  Fe  Fe449     1.0  0.89647  0.01993  0.22106  1.0000
  S   S891      1.0  0.89681  0.99989  0.24800  1.0000
  S   S892      1.0  0.90136  0.01135  0.19377  1.0000
  Fe  Fe450     1.0  0.89261  0.05285  0.23848  1.0000
  S   S893      1.0  0.89324  0.03543  0.26665  1.0000
  S   S894      1.0  0.88694  0.08393  0.23147  1.0000
  Fe  Fe451     1.0  0.91593  0.01583  0.25223  1.0000
  Fe  Fe452     1.0  0.87406  0.02111  0.26009  1.0000
  S   S895      1.0  0.84758  0.01805  0.28099  1.0000
  S   S896      1.0  0.91714  0.03456  0.22447  1.0000
  S   S897      1.0  0.87202  0.03977  0.23265  1.0000
  H   H7021     1.0  0.98399  0.03850  0.32992  1.0000
  C   C3947     1.0  0.89915  0.24594  0.44245  1.0000
  H   H7022     1.0  0.83553  0.13917  0.31573  1.0000
  C   C3948     1.0  0.91232  0.25157  0.42391  1.0000
  H   H7023     1.0  0.84176  0.13701  0.00177  1.0000
  H   H7024     1.0  0.95151  0.40232  0.30038  1.0000
  S   S898      1.0  0.84988  0.99375  0.12301  1.0000
  H   H7025     1.0  0.83977  0.25749  0.06479  1.0000
  H   H7026     1.0  0.93364  0.42002  0.37350  1.0000
  H   H7027     1.0  0.79782  0.18981  0.27770  1.0000
  C   C3949     1.0  0.80433  0.43278  0.10060  1.0000
  H   H7028     1.0  0.85865  0.32235  0.00381  1.0000
  C   C3950     1.0  0.96448  0.98599  0.31808  1.0000
  S   S899      1.0  0.94721  0.46129  0.16644  1.0000
  Fe  Fe453     1.0  0.84739  0.37088  0.09838  1.0000
  C   C3951     1.0  0.78941  0.97704  0.25871  1.0000
  Fe  Fe454     1.0  0.88174  0.38332  0.09982  1.0000
  S   S900      1.0  0.88126  0.40335  0.07296  1.0000
  S   S901      1.0  0.90616  0.37816  0.11338  1.0000
  H   H7029     1.0  0.83401  0.21889  0.04416  1.0000
  Fe  Fe455     1.0  0.87478  0.38106  0.06297  1.0000
  S   S902      1.0  0.89062  0.37502  0.03526  1.0000
  S   S903      1.0  0.85158  0.39240  0.11147  1.0000
  S   S904      1.0  0.87764  0.36021  0.08904  1.0000
  H   H7030     1.0  0.80198  0.16559  0.27783  1.0000
  H   H7031     1.0  0.80737  0.97486  0.31585  1.0000
  H   H7032     1.0  0.83963  0.99705  0.20746  1.0000
  C   C3952     1.0  0.85546  0.99019  0.18180  1.0000
  C   C3953     1.0  0.87072  0.01236  0.06877  1.0000
  H   H7033     1.0  0.95236  0.39432  0.19649  1.0000
  C   C3954     1.0  0.79728  0.06665  0.08245  1.0000
  H   H7034     1.0  0.92667  0.24401  0.42440  1.0000
  C   C3955     1.0  0.85529  0.29842  0.15166  1.0000
  C   C3956     1.0  0.79738  0.16834  0.07426  1.0000
  H   H7035     1.0  0.82512  0.07019  0.02147  1.0000
  S   S905      1.0  0.83869  0.27388  0.09690  1.0000
  H   H7036     1.0  0.82516  0.02792  0.16397  1.0000
  C   C3957     1.0  0.83342  0.27856  0.16847  1.0000
  S   S906      1.0  0.93734  0.30962  0.44597  1.0000
  H   H7037     1.0  0.97162  0.35412  0.27214  1.0000
  H   H7038     1.0  0.93349  0.98129  0.20146  1.0000
  H   H7039     1.0  0.86994  0.02165  0.98686  1.0000
  H   H7040     1.0  0.88146  0.29587  0.13125  1.0000
  H   H7041     1.0  0.81154  0.42305  0.02026  1.0000
  C   C3958     1.0  0.81108  0.14409  0.97275  1.0000
  H   H7042     1.0  0.85757  0.07313  0.00882  1.0000
  S   S907      1.0  0.78934  0.16759  0.38280  1.0000
  H   H7043     1.0  0.80460  0.41487  0.07207  1.0000
  C   C3959     1.0  0.84482  0.19623  0.02936  1.0000
  C   C3960     1.0  0.81258  0.45566  0.13814  1.0000
  C   C3961     1.0  0.95156  0.98308  0.21869  1.0000
  C   C3962     1.0  0.83948  0.17322  0.00564  1.0000
  H   H7044     1.0  0.83785  0.06601  0.19636  1.0000
  H   H7045     1.0  0.96130  0.99628  0.19110  1.0000
  C   C3963     1.0  0.95801  0.26339  0.41350  1.0000
  C   C3964     1.0  0.94004  0.29369  0.41691  1.0000
  C   C3965     1.0  0.94545  0.29173  0.43362  1.0000
  C   C3966     1.0  0.95712  0.27554  0.44023  1.0000
  C   C3967     1.0  0.96331  0.26139  0.43023  1.0000
  H   H7046     1.0  0.83965  0.13783  0.29187  1.0000
  H   H7047     1.0  0.87131  0.43235  0.09876  1.0000
  H   H7048     1.0  0.81764  0.21755  0.97116  1.0000
  C   C3968     1.0  0.87876  0.32321  0.02923  1.0000
  H   H7049     1.0  0.96334  0.97616  0.04446  1.0000
  C   C3969     1.0  0.80872  0.19234  0.00354  1.0000
  C   C3970     1.0  0.87511  0.32256  0.13777  1.0000
  C   C3971     1.0  0.79779  0.17985  0.36086  1.0000
  H   H7050     1.0  0.84583  0.32321  0.97629  1.0000
  H   H7051     1.0  0.90627  0.30779  0.03283  1.0000
  H   H7052     1.0  0.84612  0.03310  0.17738  1.0000
  H   H7053     1.0  0.91221  0.26650  0.42060  1.0000
  C   C3972     1.0  0.87885  0.37223  0.01945  1.0000
  C   C3973     1.0  0.88903  0.36659  0.00312  1.0000
  C   C3974     1.0  0.88001  0.36337  0.99068  1.0000
  C   C3975     1.0  0.86075  0.36602  0.99447  1.0000
  C   C3976     1.0  0.85056  0.37210  0.01054  1.0000
  C   C3977     1.0  0.85957  0.37505  0.02310  1.0000
  H   H7054     1.0  0.90396  0.36437  0.00026  1.0000
  H   H7055     1.0  0.88796  0.35865  0.97831  1.0000
  H   H7056     1.0  0.83568  0.37415  0.01342  1.0000
  H   H7057     1.0  0.85169  0.37928  0.03568  1.0000
  H   H7058     1.0  0.93446  0.40529  0.28672  1.0000
  H   H7059     1.0  0.84087  0.01136  0.02153  1.0000
  H   H7060     1.0  0.86790  0.23730  0.21472  1.0000
  C   C3978     1.0  0.79095  0.03215  0.04296  1.0000
  Fe  Fe456     1.0  0.95218  0.23881  0.34215  1.0000
  C   C3979     1.0  0.82561  0.08887  0.12959  1.0000
  C   C3980     1.0  0.87522  0.30194  0.14367  1.0000
  H   H7061     1.0  0.95364  0.41705  0.27795  1.0000
  H   H7062     1.0  0.79577  0.00479  0.43757  1.0000
  H   H7063     1.0  0.82360  0.07228  0.16784  1.0000
  C   C3981     1.0  0.84177  0.99615  0.28799  1.0000
  C   C3982     1.0  0.82516  0.99385  0.30049  1.0000
  H   H7064     1.0  0.97226  0.24883  0.43548  1.0000
  H   H7065     1.0  0.82212  0.02631  0.13309  1.0000
  H   H7066     1.0  0.93661  0.46267  0.38597  1.0000
  H   H7067     1.0  0.86852  0.44070  0.11961  1.0000
  H   H7068     1.0  0.81611  0.00550  0.30574  1.0000
  H   H7069     1.0  0.82372  0.04315  0.18870  1.0000
  C   C3983     1.0  0.78524  0.43710  0.10755  1.0000
  C   C3984     1.0  0.84732  0.20649  0.20643  1.0000
  C   C3985     1.0  0.83076  0.21459  0.21669  1.0000
  C   C3986     1.0  0.81550  0.22291  0.20828  1.0000
  H   H7070     1.0  0.83106  0.09287  0.13982  1.0000
  C   C3987     1.0  0.83328  0.21497  0.17943  1.0000
  C   C3988     1.0  0.84857  0.20679  0.18778  1.0000
  H   H7071     1.0  0.82972  0.21444  0.23107  1.0000
  H   H7072     1.0  0.85468  0.20365  0.05025  1.0000
  C   C3989     1.0  0.86892  0.44481  0.10460  1.0000
  H   H7073     1.0  0.86135  0.20051  0.17980  1.0000
  C   C3990     1.0  0.91297  0.21729  0.29201  1.0000
  C   C3991     1.0  0.91227  0.20290  0.30736  1.0000
  C   C3992     1.0  0.91938  0.20329  0.32248  1.0000
  C   C3993     1.0  0.92733  0.21803  0.32232  1.0000
  C   C3994     1.0  0.92824  0.23232  0.30686  1.0000
  C   C3995     1.0  0.92111  0.23191  0.29175  1.0000
  H   H7074     1.0  0.90647  0.19136  0.30746  1.0000
  H   H7075     1.0  0.91873  0.19216  0.33437  1.0000
  H   H7076     1.0  0.93434  0.24371  0.30660  1.0000
  H   H7077     1.0  0.92184  0.24302  0.27983  1.0000
  C   C3996     1.0  0.88184  0.11830  0.27413  1.0000
  C   C3997     1.0  0.87384  0.12576  0.25868  1.0000
  C   C3998     1.0  0.87497  0.11482  0.24609  1.0000
  C   C3999     1.0  0.88435  0.09646  0.24865  1.0000
  C   C4000     1.0  0.89208  0.08884  0.26428  1.0000
  C   C4001     1.0  0.89071  0.09973  0.27706  1.0000
  H   H7078     1.0  0.86687  0.14000  0.25636  1.0000
  H   H7079     1.0  0.86874  0.12066  0.23418  1.0000
  H   H7080     1.0  0.89946  0.07471  0.26630  1.0000
  H   H7081     1.0  0.89696  0.09390  0.28899  1.0000
  H   H7082     1.0  0.78880  0.24303  0.37254  1.0000
  S   S908      1.0  0.80501  0.01161  0.10038  1.0000
  H   H7083     1.0  0.80113  0.05697  0.03075  1.0000
  H   H7084     1.0  0.78591  0.02536  0.16186  1.0000
  H   H7085     1.0  0.82924  0.28601  0.18010  1.0000
  H   H7086     1.0  0.78834  0.44678  0.03441  1.0000
  H   H7087     1.0  0.88463  0.25203  0.44088  1.0000
  H   H7088     1.0  0.86482  0.01118  0.02081  1.0000
  C   C4002     1.0  0.81703  0.07144  0.13784  1.0000
  H   H7089     1.0  0.79584  0.01699  0.04541  1.0000
  C   C4003     1.0  0.81267  0.17104  0.34907  1.0000
  C   C4004     1.0  0.81890  0.18026  0.33108  1.0000
  C   C4005     1.0  0.91704  0.43661  0.03930  1.0000
  C   C4006     1.0  0.96078  0.41150  0.09342  1.0000
  C   C4007     1.0  0.85418  0.03711  0.04608  1.0000
  H   H7090     1.0  0.81916  0.15694  0.35376  1.0000
  H   H7091     1.0  0.83014  0.17327  0.32193  1.0000
  C   C4008     1.0  0.83727  0.04617  0.18050  1.0000
  C   C4009     1.0  0.78722  0.01221  0.42717  1.0000
  C   C4010     1.0  0.80838  0.03435  0.09467  1.0000
  H   H7092     1.0  0.92392  0.22551  0.46073  1.0000
  S   S909      1.0  0.82583  0.22869  0.12811  1.0000
  H   H7093     1.0  0.84859  0.30709  0.16218  1.0000
  C   C4011     1.0  0.82800  0.05648  0.08909  1.0000
  C   C4012     1.0  0.82516  0.03837  0.09502  1.0000
  H   H7094     1.0  0.87814  0.25741  0.20710  1.0000
  Fe  Fe457     1.0  0.79869  0.11127  0.05685  1.0000
  H   H7095     1.0  0.84113  0.05951  0.08901  1.0000
  H   H7096     1.0  0.83613  0.02747  0.09940  1.0000
  H   H7097     1.0  0.98104  0.00634  0.34342  1.0000
  C   C4013     1.0  0.87242  0.98996  0.16942  1.0000
  C   C4014     1.0  0.88650  0.99642  0.17323  1.0000
  C   C4015     1.0  0.88374  0.00288  0.18951  1.0000
  C   C4016     1.0  0.86690  0.00281  0.20200  1.0000
  H   H7098     1.0  0.80871  0.18975  0.99000  1.0000
  H   H7099     1.0  0.91551  0.47187  0.10094  1.0000
  H   H7100     1.0  0.89954  0.99642  0.16354  1.0000
  H   H7101     1.0  0.86475  0.00772  0.21457  1.0000
  H   H7102     1.0  0.88426  0.01113  0.05901  1.0000
  C   C4017     1.0  0.91094  0.41988  0.14460  1.0000
  C   C4018     1.0  0.92660  0.40772  0.13772  1.0000
  C   C4019     1.0  0.92485  0.39449  0.12881  1.0000
  C   C4020     1.0  0.90755  0.39389  0.12601  1.0000
  C   C4021     1.0  0.89183  0.40585  0.13315  1.0000
  C   C4022     1.0  0.89350  0.41855  0.14278  1.0000
  H   H7103     1.0  0.94002  0.40836  0.13949  1.0000
  H   H7104     1.0  0.93700  0.38503  0.12358  1.0000
  H   H7105     1.0  0.87840  0.40520  0.13139  1.0000
  H   H7106     1.0  0.88131  0.42774  0.14840  1.0000
  H   H7107     1.0  0.86131  0.04373  0.00902  1.0000
  C   C4023     1.0  0.98209  0.01117  0.32836  1.0000
  C   C4024     1.0  0.86022  0.26816  0.14431  1.0000
  C   C4025     1.0  0.79729  0.17602  0.28667  1.0000
  H   H7108     1.0  0.81856  0.18783  0.03494  1.0000
  C   C4026     1.0  0.78541  0.20104  0.06678  1.0000
  Fe  Fe458     1.0  0.80033  0.23648  0.14889  1.0000
  H   H7109     1.0  0.97887  0.31393  0.35371  1.0000
  C   C4027     1.0  0.85943  0.03135  0.14086  1.0000
  H   H7110     1.0  0.86962  0.02268  0.07710  1.0000
  H   H7111     1.0  0.79146  0.02559  0.42066  1.0000
  H   H7112     1.0  0.90036  0.23084  0.44443  1.0000
  C   C4028     1.0  0.85424  0.30928  0.01162  1.0000
  H   H7113     1.0  0.85395  0.05971  0.12810  1.0000
  C   C4029     1.0  0.96936  0.46946  0.35442  1.0000
  C   C4030     1.0  0.85277  0.99661  0.19806  1.0000
  C   C4031     1.0  0.97658  0.44088  0.22305  1.0000
  H   H7114     1.0  0.80515  0.04555  0.16618  1.0000
  H   H7115     1.0  0.88272  0.46136  0.08060  1.0000
  H   H7116     1.0  0.96329  0.01196  0.22339  1.0000
  N   N221      1.0  0.82798  0.19240  0.00528  1.0000
  C   C4032     1.0  0.83703  0.20626  0.99018  1.0000
  H   H7117     1.0  0.95674  0.34561  0.31583  1.0000
  H   H7118     1.0  0.88225  0.12737  0.19412  1.0000
  S   S910      1.0  0.84894  0.36118  0.97986  1.0000
  H   H7119     1.0  0.80360  0.07540  0.14723  1.0000
  C   C4033     1.0  0.80681  0.04198  0.03245  1.0000
  H   H7120     1.0  0.85350  0.17255  0.00781  1.0000
  H   H7121     1.0  0.82371  0.32610  0.03401  1.0000
  H   H7122     1.0  0.85234  0.20213  0.98841  1.0000
  H   H7123     1.0  0.93226  0.43347  0.03445  1.0000
  S   S911      1.0  0.80805  0.13491  0.03557  1.0000
  H   H7124     1.0  0.93372  0.45272  0.05534  1.0000
  H   H7125     1.0  0.85399  0.20399  0.01815  1.0000
  C   C4034     1.0  0.82277  0.03630  0.04313  1.0000
  H   H7126     1.0  0.78812  0.15963  0.98893  1.0000
  H   H7127     1.0  0.82697  0.35880  0.04903  1.0000
  H   H7128     1.0  0.95194  0.10426  0.17533  1.0000
  H   H7129     1.0  0.97993  0.31020  0.25635  1.0000
  S   S912      1.0  0.80067  0.24713  0.09627  1.0000
  C   C4035     1.0  0.80394  0.18897  0.09031  1.0000
  C   C4036     1.0  0.78902  0.08170  0.33930  1.0000
  C   C4037     1.0  0.79964  0.28660  0.16634  1.0000
  N   N222      1.0  0.91799  0.14816  0.21207  1.0000
  C   C4038     1.0  0.90021  0.14270  0.21239  1.0000
  C   C4039     1.0  0.92318  0.14059  0.23070  1.0000
  C   C4040     1.0  0.91410  0.16890  0.20914  1.0000
  C   C4041     1.0  0.93360  0.14209  0.19689  1.0000
  C   C4042     1.0  0.93382  0.12378  0.19143  1.0000
  C   C4043     1.0  0.89132  0.15185  0.19530  1.0000
  C   C4044     1.0  0.92969  0.17777  0.21070  1.0000
  C   C4045     1.0  0.92804  0.11944  0.23670  1.0000
  C   C4046     1.0  0.93219  0.11389  0.25609  1.0000
  C   C4047     1.0  0.95240  0.11699  0.17951  1.0000
  C   C4048     1.0  0.96222  0.46622  0.40701  1.0000
  C   C4049     1.0  0.92515  0.19866  0.20438  1.0000
  H   H7130     1.0  0.88962  0.14644  0.22455  1.0000
  H   H7131     1.0  0.90199  0.12759  0.21434  1.0000
  H   H7132     1.0  0.93560  0.14532  0.23129  1.0000
  H   H7133     1.0  0.91181  0.14588  0.24159  1.0000
  H   H7134     1.0  0.90160  0.17373  0.21918  1.0000
  H   H7135     1.0  0.91081  0.17522  0.19530  1.0000
  H   H7136     1.0  0.93359  0.15271  0.18394  1.0000
  H   H7137     1.0  0.94712  0.14103  0.20055  1.0000
  H   H7138     1.0  0.92304  0.12579  0.18334  1.0000
  H   H7139     1.0  0.93106  0.11261  0.20343  1.0000
  H   H7140     1.0  0.88452  0.16633  0.19597  1.0000
  H   H7141     1.0  0.90174  0.15201  0.18228  1.0000
  H   H7142     1.0  0.94310  0.17236  0.20221  1.0000
  H   H7143     1.0  0.93115  0.17510  0.22525  1.0000
  H   H7144     1.0  0.91657  0.11298  0.23675  1.0000
  H   H7145     1.0  0.94073  0.11373  0.22747  1.0000
  H   H7146     1.0  0.94481  0.11851  0.25631  1.0000
  H   H7147     1.0  0.92048  0.12003  0.26608  1.0000
  H   H7148     1.0  0.93450  0.09870  0.26056  1.0000
  H   H7149     1.0  0.95552  0.12753  0.16688  1.0000
  H   H7150     1.0  0.88787  0.30661  0.46125  1.0000
  H   H7151     1.0  0.95990  0.45547  0.41969  1.0000
  H   H7152     1.0  0.83736  0.01597  0.23777  1.0000
  H   H7153     1.0  0.83351  0.21993  0.99415  1.0000
  S   S913      1.0  0.81841  0.09290  0.07442  1.0000
  H   H7154     1.0  0.92423  0.20244  0.18961  1.0000
  S   S914      1.0  0.98173  0.47122  0.13219  1.0000
  H   H7155     1.0  0.93616  0.20477  0.20621  1.0000
  N   N223      1.0  0.84831  0.22830  0.33527  1.0000
  C   C4050     1.0  0.85664  0.23103  0.31491  1.0000
  C   C4051     1.0  0.84974  0.20798  0.34313  1.0000
  C   C4052     1.0  0.82797  0.23692  0.33733  1.0000
  C   C4053     1.0  0.85704  0.23707  0.34569  1.0000
  C   C4054     1.0  0.87771  0.23827  0.33819  1.0000
  C   C4055     1.0  0.85302  0.25120  0.30412  1.0000
  C   C4056     1.0  0.81618  0.23364  0.35716  1.0000
  C   C4057     1.0  0.86940  0.19608  0.34228  1.0000
  C   C4058     1.0  0.86870  0.17570  0.34922  1.0000
  C   C4059     1.0  0.88541  0.24465  0.35158  1.0000
  C   C4060     1.0  0.86691  0.25410  0.28595  1.0000
  H   H7156     1.0  0.80764  0.34702  0.05612  1.0000
  H   H7157     1.0  0.85113  0.22279  0.30819  1.0000
  H   H7158     1.0  0.87177  0.22560  0.31235  1.0000
  H   H7159     1.0  0.84310  0.20549  0.35796  1.0000
  H   H7160     1.0  0.84212  0.20211  0.33609  1.0000
  H   H7161     1.0  0.82156  0.23194  0.32841  1.0000
  H   H7162     1.0  0.82605  0.25208  0.33239  1.0000
  H   H7163     1.0  0.84957  0.25147  0.34618  1.0000
  H   H7164     1.0  0.85558  0.22979  0.36037  1.0000
  H   H7165     1.0  0.87947  0.24826  0.32492  1.0000
  H   H7166     1.0  0.88638  0.22494  0.33574  1.0000
  H   H7167     1.0  0.83899  0.25472  0.30088  1.0000
  H   H7168     1.0  0.85366  0.26102  0.31227  1.0000
  H   H7169     1.0  0.82310  0.23598  0.36725  1.0000
  H   H7170     1.0  0.81383  0.21932  0.36129  1.0000
  H   H7171     1.0  0.87751  0.19766  0.32804  1.0000
  H   H7172     1.0  0.87668  0.19980  0.35125  1.0000
  H   H7173     1.0  0.86138  0.17314  0.36383  1.0000
  H   H7174     1.0  0.86153  0.17105  0.34079  1.0000
  H   H7175     1.0  0.88299  0.16743  0.34821  1.0000
  H   H7176     1.0  0.89981  0.24647  0.34532  1.0000
  H   H7177     1.0  0.87705  0.25802  0.35465  1.0000
  H   H7178     1.0  0.88565  0.23422  0.36458  1.0000
  H   H7179     1.0  0.86343  0.26843  0.27829  1.0000
  H   H7180     1.0  0.88109  0.25169  0.28852  1.0000
  H   H7181     1.0  0.86662  0.24460  0.27726  1.0000
  H   H7182     1.0  0.92268  0.42894  0.39410  1.0000
  H   H7183     1.0  0.97738  0.39114  0.19088  1.0000
  H   H7184     1.0  0.87907  0.29452  0.03285  1.0000
  H   H7185     1.0  0.94110  0.44624  0.40589  1.0000
  C   C4061     1.0  0.84305  0.16535  0.98806  1.0000
  H   H7186     1.0  0.80646  0.38641  0.03025  1.0000
  H   H7187     1.0  0.95840  0.97839  0.10553  1.0000
  H   H7188     1.0  0.86610  0.98269  0.27149  1.0000
  H   H7189     1.0  0.82105  0.01912  0.25893  1.0000
  H   H7190     1.0  0.81720  0.04062  0.05659  1.0000
  C   C4062     1.0  0.88397  0.45594  0.09517  1.0000
  S   S915      1.0  0.97528  0.22645  0.35764  1.0000
  C   C4063     1.0  0.81987  0.98662  0.24802  1.0000
  H   H7191     1.0  0.83288  0.29496  0.01038  1.0000
  H   H7192     1.0  0.82160  0.40413  0.03594  1.0000
  H   H7193     1.0  0.97550  0.38633  0.27835  1.0000
  H   H7194     1.0  0.91113  0.44998  0.03116  1.0000
  C   C4064     1.0  0.81937  0.28720  0.15567  1.0000
  H   H7195     1.0  0.79992  0.10906  0.13405  1.0000
  H   H7196     1.0  0.81492  0.44239  0.13370  1.0000
  C   C4065     1.0  0.79710  0.40762  0.06638  1.0000
  H   H7197     1.0  0.79881  0.97831  0.36747  1.0000
  H   H7198     1.0  0.85417  0.24536  0.18724  1.0000
  H   H7199     1.0  0.91119  0.42569  0.03695  1.0000
  H   H7200     1.0  0.93289  0.99460  0.30375  1.0000
  H   H7201     1.0  0.86565  0.03382  0.15140  1.0000
  H   H7202     1.0  0.86194  0.07000  0.03157  1.0000
  C   C4066     1.0  0.83487  0.06447  0.03106  1.0000
  C   C4067     1.0  0.97728  0.04442  0.21300  1.0000
  N   N224      1.0  0.84008  0.04374  0.03379  1.0000
  C   C4068     1.0  0.87543  0.02627  0.12521  1.0000
  H   H7203     1.0  0.87025  0.02430  0.11366  1.0000
  H   H7204     1.0  0.88373  0.03720  0.11999  1.0000
  H   H7205     1.0  0.88459  0.01324  0.13035  1.0000
  N   N225      1.0  0.90289  0.25056  0.45900  1.0000
  C   C4069     1.0  0.97739  0.43850  0.04243  1.0000
  C   C4070     1.0  0.90266  0.27082  0.45615  1.0000
  H   H7206     1.0  0.81134  0.00986  0.22625  1.0000
  H   H7207     1.0  0.85617  0.10268  0.01603  1.0000
  C   C4071     1.0  0.88558  0.28421  0.44958  1.0000
  C   C4072     1.0  0.88688  0.30417  0.44786  1.0000
  H   H7208     1.0  0.79169  0.18977  0.46468  1.0000
  H   H7209     1.0  0.80622  0.00712  0.16091  1.0000
  N   N226      1.0  0.98267  0.99440  0.20604  1.0000
  C   C4073     1.0  0.97921  0.44175  0.20405  1.0000
  H   H7210     1.0  0.91516  0.27449  0.44615  1.0000
  H   H7211     1.0  0.93268  0.24574  0.45099  1.0000
  H   H7212     1.0  0.84707  0.04241  0.20565  1.0000
  H   H7213     1.0  0.93101  0.33794  0.36984  1.0000
  H   H7214     1.0  0.88457  0.28267  0.43588  1.0000
  C   C4074     1.0  0.79438  0.04856  0.08856  1.0000
  C   C4075     1.0  0.79414  0.21010  0.00644  1.0000
  H   H7215     1.0  0.96383  0.04537  0.22289  1.0000
  N   N227      1.0  0.96448  0.45853  0.39005  1.0000
  H   H7216     1.0  0.98439  0.43744  0.37715  1.0000
  H   H7217     1.0  0.85053  0.24454  0.04696  1.0000
  H   H7218     1.0  0.96398  0.99845  0.30677  1.0000
  C   C4076     1.0  0.94744  0.45127  0.39126  1.0000
  C   C4077     1.0  0.81412  0.07060  0.08268  1.0000
  C   C4078     1.0  0.96786  0.98673  0.20227  1.0000
  H   H7219     1.0  0.96158  0.27396  0.45291  1.0000
  C   C4079     1.0  0.84811  0.03884  0.01512  1.0000
  S   S916      1.0  0.98237  0.26795  0.35133  1.0000
  H   H7220     1.0  0.79611  0.29424  0.17771  1.0000
  H   H7221     1.0  0.85164  0.04645  0.05592  1.0000
  S   S917      1.0  0.81463  0.19204  0.10686  1.0000
  C   C4080     1.0  0.79862  0.16012  0.97649  1.0000
  H   H7222     1.0  0.88180  0.23870  0.12818  1.0000
  C   C4081     1.0  0.86532  0.27100  0.17428  1.0000
  C   C4082     1.0  0.91725  0.47168  0.08607  1.0000
  H   H7223     1.0  0.81149  0.03828  0.01870  1.0000
  C   C4083     1.0  0.93139  0.43194  0.38014  1.0000
  H   H7224     1.0  0.79871  0.15456  0.07223  1.0000
  C   C4084     1.0  0.97188  0.31787  0.31554  1.0000
  H   H7225     1.0  0.95496  0.99059  0.33044  1.0000
  H   H7226     1.0  0.86653  0.28221  0.18051  1.0000
  C   C4085     1.0  0.81671  0.22309  0.18964  1.0000
  H   H7227     1.0  0.81968  0.30188  0.14973  1.0000
  C   C4086     1.0  0.84384  0.42843  0.02598  1.0000
  C   C4087     1.0  0.96464  0.39849  0.21762  1.0000
  N   N228      1.0  0.85351  0.27864  0.15976  1.0000
  H   H7228     1.0  0.82222  0.27961  0.14436  1.0000
  H   H7229     1.0  0.84193  0.01709  0.06901  1.0000
  H   H7230     1.0  0.86835  0.03778  0.03778  1.0000
  H   H7231     1.0  0.97662  0.31972  0.40133  1.0000
  H   H7232     1.0  0.78609  0.46495  0.13059  1.0000
  H   H7233     1.0  0.97518  0.47037  0.40698  1.0000
  C   C4088     1.0  0.96705  0.03995  0.26153  1.0000
  H   H7234     1.0  0.92400  0.44421  0.37171  1.0000
  H   H7235     1.0  0.82679  0.42620  0.05284  1.0000
  H   H7236     1.0  0.89311  0.31897  0.05170  1.0000
  Fe  Fe459     1.0  0.97147  0.45655  0.11610  1.0000
  C   C4089     1.0  0.85854  0.24776  0.14936  1.0000
  C   C4090     1.0  0.83749  0.30817  0.00416  1.0000
  H   H7237     1.0  0.79404  0.99114  0.27867  1.0000
  H   H7238     1.0  0.97979  0.29568  0.40258  1.0000
  C   C4091     1.0  0.97390  0.01315  0.21043  1.0000
  H   H7239     1.0  0.88433  0.29609  0.15382  1.0000
  H   H7240     1.0  0.87508  0.26823  0.13842  1.0000
  H   H7241     1.0  0.95237  0.32144  0.38979  1.0000
  C   C4092     1.0  0.81128  0.10527  0.12253  1.0000
  H   H7242     1.0  0.86153  0.00047  0.99445  1.0000
  H   H7243     1.0  0.95646  0.46612  0.35316  1.0000
  C   C4093     1.0  0.87644  0.14212  0.19447  1.0000
  H   H7244     1.0  0.80269  0.22914  0.21625  1.0000
  H   H7245     1.0  0.81682  0.13755  0.30614  1.0000
  N   N229      1.0  0.91938  0.45226  0.08357  1.0000
  C   C4094     1.0  0.90361  0.44444  0.09683  1.0000
  C   C4095     1.0  0.93737  0.44135  0.08887  1.0000
  H   H7246     1.0  0.80690  0.45352  0.15319  1.0000
  H   H7247     1.0  0.97673  0.40378  0.21800  1.0000
  S   S918      1.0  0.81012  0.12311  0.98843  1.0000
  H   H7248     1.0  0.81792  0.11730  0.11591  1.0000
  C   C4096     1.0  0.94308  0.42120  0.08630  1.0000
  S   S919      1.0  0.83714  0.98303  0.17728  1.0000
  C   C4097     1.0  0.86904  0.30658  0.03740  1.0000
  H   H7249     1.0  0.90495  0.44326  0.11124  1.0000
  H   H7250     1.0  0.90415  0.43014  0.09576  1.0000
  C   C4098     1.0  0.92180  0.24006  0.46204  1.0000
  H   H7251     1.0  0.93710  0.44144  0.10349  1.0000
  C   C4099     1.0  0.78753  0.97977  0.27857  1.0000
  C   C4100     1.0  0.82022  0.97651  0.30627  1.0000
  Fe  Fe460     1.0  0.81707  0.25674  0.11134  1.0000
  H   H7252     1.0  0.79975  0.22263  0.99929  1.0000
  H   H7253     1.0  0.97151  0.29788  0.37339  1.0000
  H   H7254     1.0  0.95715  0.42215  0.38902  1.0000
  H   H7255     1.0  0.93217  0.41330  0.09364  1.0000
  H   H7256     1.0  0.94606  0.42075  0.07147  1.0000
  C   C4101     1.0  0.79907  0.47011  0.12766  1.0000
  C   C4102     1.0  0.85158  0.14483  0.99148  1.0000
  H   H7257     1.0  0.97390  0.32014  0.27650  1.0000
  H   H7258     1.0  0.98001  0.44013  0.05551  1.0000
  H   H7259     1.0  0.84797  0.30417  0.13998  1.0000
  H   H7260     1.0  0.80633  0.39396  0.06560  1.0000
  H   H7261     1.0  0.96434  0.39695  0.09184  1.0000
  N   N230      1.0  0.83481  0.08234  0.30194  1.0000
  C   C4103     1.0  0.82995  0.07606  0.28690  1.0000
  C   C4104     1.0  0.82140  0.07721  0.31967  1.0000
  C   C4105     1.0  0.83378  0.10285  0.29658  1.0000
  C   C4106     1.0  0.85411  0.07317  0.30462  1.0000
  C   C4107     1.0  0.85859  0.05188  0.30794  1.0000
  C   C4108     1.0  0.84329  0.07853  0.26788  1.0000
  C   C4109     1.0  0.83685  0.11198  0.31123  1.0000
  H   H7262     1.0  0.79857  0.26096  0.35569  1.0000
  N   N231      1.0  0.79414  0.41793  0.04747  1.0000
  C   C4110     1.0  0.87795  0.04427  0.31210  1.0000
  C   C4111     1.0  0.83651  0.07221  0.25380  1.0000
  C   C4112     1.0  0.83186  0.13292  0.30586  1.0000
  H   H7263     1.0  0.81606  0.08367  0.28447  1.0000
  H   H7264     1.0  0.82881  0.06131  0.29116  1.0000
  H   H7265     1.0  0.82050  0.06250  0.32200  1.0000
  H   H7266     1.0  0.82648  0.07822  0.33172  1.0000
  H   H7267     1.0  0.82043  0.11000  0.29237  1.0000
  H   H7268     1.0  0.84455  0.10627  0.28418  1.0000
  H   H7269     1.0  0.86443  0.07828  0.29260  1.0000
  H   H7270     1.0  0.85703  0.07703  0.31653  1.0000
  H   H7271     1.0  0.85810  0.04707  0.29561  1.0000
  H   H7272     1.0  0.84872  0.04578  0.31978  1.0000
  H   H7273     1.0  0.84421  0.09315  0.26234  1.0000
  H   H7274     1.0  0.85739  0.07040  0.26872  1.0000
  H   H7275     1.0  0.85162  0.10815  0.31234  1.0000
  H   H7276     1.0  0.82842  0.10784  0.32505  1.0000
  Fe  Fe461     1.0  0.84064  0.97532  0.14978  1.0000
  C   C4113     1.0  0.98187  0.44387  0.38923  1.0000
  C   C4114     1.0  0.98265  0.42838  0.40672  1.0000
  H   H7277     1.0  0.86042  0.05466  0.18568  1.0000
  C   C4115     1.0  0.78960  0.19810  0.35483  1.0000
  H   H7278     1.0  0.88132  0.02912  0.31325  1.0000
  H   H7279     1.0  0.88844  0.05034  0.30089  1.0000
  H   H7280     1.0  0.87867  0.04735  0.32529  1.0000
  H   H7281     1.0  0.82246  0.08006  0.25224  1.0000
  H   H7282     1.0  0.84599  0.07464  0.24021  1.0000
  H   H7283     1.0  0.83627  0.05729  0.25807  1.0000
  C   C4116     1.0  0.81138  0.00711  0.24116  1.0000
  H   H7284     1.0  0.79798  0.27219  0.17214  1.0000
  S   S920      1.0  0.79278  0.26518  0.13304  1.0000
  C   C4117     1.0  0.83492  0.29600  0.10151  1.0000
  H   H7285     1.0  0.88265  0.32523  0.01400  1.0000
  H   H7286     1.0  0.79360  0.01404  0.14253  1.0000
  H   H7287     1.0  0.78988  0.29310  0.15692  1.0000
  H   H7288     1.0  0.88936  0.32483  0.13149  1.0000
  H   H7289     1.0  0.95838  0.43735  0.36722  1.0000
  H   H7290     1.0  0.80893  0.47199  0.06869  1.0000
  C   C4118     1.0  0.80127  0.08836  0.32089  1.0000
  H   H7291     1.0  0.83022  0.16691  0.98320  1.0000
  H   H7292     1.0  0.96208  0.33948  0.37373  1.0000
  H   H7293     1.0  0.81725  0.03425  0.23754  1.0000
  C   C4119     1.0  0.95856  0.32597  0.37514  1.0000
  H   H7294     1.0  0.87974  0.26523  0.16786  1.0000
  H   H7295     1.0  0.92735  0.98107  0.32672  1.0000
  S   S921      1.0  0.79730  0.23357  0.17954  1.0000
  H   H7296     1.0  0.87003  0.99889  0.07826  1.0000
  H   H7297     1.0  0.93995  0.31515  0.36509  1.0000
  H   H7298     1.0  0.81358  0.06815  0.12592  1.0000
  C   C4120     1.0  0.86683  0.23849  0.13282  1.0000
  C   C4121     1.0  0.83461  0.32896  0.05617  1.0000
  N   N232      1.0  0.97106  0.37533  0.24740  1.0000
  C   C4122     1.0  0.96507  0.37869  0.22928  1.0000
  C   C4123     1.0  0.96762  0.35681  0.25859  1.0000
  C   C4124     1.0  0.95876  0.38980  0.25778  1.0000
  H   H7299     1.0  0.81397  0.97499  0.39279  1.0000
  H   H7300     1.0  0.80524  0.47110  0.11281  1.0000
  H   H7301     1.0  0.97388  0.36896  0.22057  1.0000
  C   C4125     1.0  0.96083  0.38763  0.27787  1.0000
  H   H7302     1.0  0.94844  0.33466  0.34957  1.0000
  Fe  Fe462     1.0  0.97633  0.44757  0.15565  1.0000
  C   C4126     1.0  0.85269  0.01817  0.01447  1.0000
  C   C4127     1.0  0.78991  0.00099  0.41243  1.0000
  C   C4128     1.0  0.94939  0.40411  0.28617  1.0000
  H   H7303     1.0  0.95091  0.37589  0.23167  1.0000
  H   H7304     1.0  0.82854  0.31787  0.06632  1.0000
  H   H7305     1.0  0.84271  0.43266  0.01128  1.0000
  H   H7306     1.0  0.95257  0.35667  0.26160  1.0000
  H   H7307     1.0  0.94394  0.39032  0.25815  1.0000
  H   H7308     1.0  0.96146  0.40372  0.25056  1.0000
  H   H7309     1.0  0.83354  0.10117  0.01423  1.0000
  H   H7310     1.0  0.89693  0.43932  0.06407  1.0000
  C   C4129     1.0  0.85785  0.01540  0.99459  1.0000
  H   H7311     1.0  0.79228  0.37969  0.05253  1.0000
  H   H7312     1.0  0.79011  0.97578  0.43319  1.0000
  H   H7313     1.0  0.79426  0.08345  0.35092  1.0000
  H   H7314     1.0  0.85433  0.29859  0.97942  1.0000
  H   H7315     1.0  0.95575  0.37537  0.28685  1.0000
  H   H7316     1.0  0.91098  0.46577  0.05758  1.0000
  H   H7317     1.0  0.85250  0.01946  0.14665  1.0000
  H   H7318     1.0  0.91181  0.20456  0.21272  1.0000
  S   S922      1.0  0.96520  0.24488  0.40204  1.0000
  H   H7319     1.0  0.79102  0.37732  0.09538  1.0000
  C   C4130     1.0  0.82640  0.19708  0.02374  1.0000
  C   C4131     1.0  0.94649  0.27964  0.40673  1.0000
  H   H7320     1.0  0.93068  0.30603  0.41195  1.0000
  H   H7321     1.0  0.85301  0.27507  0.13269  1.0000
  C   C4132     1.0  0.84132  0.20430  0.04656  1.0000
  H   H7322     1.0  0.85218  0.18176  0.03281  1.0000
  S   S923      1.0  0.93516  0.21843  0.34200  1.0000
  H   H7323     1.0  0.80338  0.18068  0.01368  1.0000
  H   H7324     1.0  0.86468  0.14224  0.99641  1.0000
  H   H7325     1.0  0.86657  0.26962  0.04356  1.0000
  H   H7326     1.0  0.80540  0.10203  0.11211  1.0000
  H   H7327     1.0  0.82895  0.26058  0.04544  1.0000
  H   H7328     1.0  0.86638  0.24004  0.16019  1.0000
  Fe  Fe463     1.0  0.82537  0.98957  0.11467  1.0000
  S   S924      1.0  0.94009  0.26160  0.35807  1.0000
  H   H7329     1.0  0.96827  0.44913  0.19678  1.0000
  H   H7330     1.0  0.94014  0.03808  0.25869  1.0000
  C   C4133     1.0  0.89639  0.32028  0.03651  1.0000
  H   H7331     1.0  0.86742  0.30360  0.05266  1.0000
  H   H7332     1.0  0.94218  0.28117  0.39391  1.0000
  C   C4134     1.0  0.84237  0.25808  0.04974  1.0000
  H   H7333     1.0  0.97638  0.34092  0.23629  1.0000
  S   S925      1.0  0.94169  0.99911  0.26223  1.0000
  H   H7334     1.0  0.83306  0.16347  0.01752  1.0000
  H   H7335     1.0  0.83112  0.26437  0.17461  1.0000
  C   C4135     1.0  0.96442  0.39940  0.19751  1.0000
  C   C4136     1.0  0.84241  0.30959  0.98331  1.0000
  C   C4137     1.0  0.84447  0.09548  0.02248  1.0000
  C   C4138     1.0  0.85332  0.98107  0.28115  1.0000
  C   C4139     1.0  0.82133  0.34710  0.05861  1.0000
  H   H7336     1.0  0.86314  0.29883  0.08996  1.0000
  C   C4140     1.0  0.79220  0.38810  0.03847  1.0000
  C   C4141     1.0  0.78765  0.98789  0.37477  1.0000
  N   N233      1.0  0.82892  0.05496  0.14775  1.0000
  H   H7337     1.0  0.96708  0.97727  0.07514  1.0000
  C   C4142     1.0  0.81747  0.30455  0.10977  1.0000
  H   H7338     1.0  0.85823  0.33033  0.09555  1.0000
  C   C4143     1.0  0.90677  0.24695  0.40804  1.0000
  H   H7339     1.0  0.91663  0.25084  0.39506  1.0000
  H   H7340     1.0  0.89268  0.25466  0.40644  1.0000
  H   H7341     1.0  0.78975  0.24465  0.34847  1.0000
  C   C4144     1.0  0.95364  0.03053  0.26100  1.0000
  Fe  Fe464     1.0  0.85073  0.41066  0.08362  1.0000
  H   H7342     1.0  0.96922  0.42398  0.41239  1.0000
  H   H7343     1.0  0.97240  0.42551  0.04481  1.0000
  H   H7344     1.0  0.84603  0.02167  0.98754  1.0000
  H   H7345     1.0  0.90722  0.23196  0.41036  1.0000
  C   C4145     1.0  0.95001  0.43511  0.38134  1.0000
  H   H7346     1.0  0.81833  0.21128  0.02412  1.0000
  C   C4146     1.0  0.79372  0.20390  0.07997  1.0000
  H   H7347     1.0  0.83884  0.04628  0.00533  1.0000
  H   H7348     1.0  0.95200  0.40791  0.22321  1.0000
  H   H7349     1.0  0.87438  0.31352  0.44353  1.0000
  C   C4147     1.0  0.84574  0.04872  0.13386  1.0000
  C   C4148     1.0  0.93503  0.98056  0.31241  1.0000
  Fe  Fe465     1.0  0.96438  0.25032  0.37187  1.0000
  H   H7350     1.0  0.89922  0.30754  0.43739  1.0000
  C   C4149     1.0  0.95781  0.01139  0.26337  1.0000
  S   S926      1.0  0.78778  0.10104  0.03757  1.0000
  C   C4150     1.0  0.85114  0.07488  0.02313  1.0000
  C   C4151     1.0  0.84686  0.32319  0.09962  1.0000
  S   S927      1.0  0.96941  0.25563  0.31879  1.0000
  H   H7351     1.0  0.87076  0.14871  0.18186  1.0000
  C   C4152     1.0  0.91950  0.45268  0.06369  1.0000
  H   H7352     1.0  0.79514  0.08686  0.30980  1.0000
  H   H7353     1.0  0.80470  0.99904  0.40561  1.0000
  C   C4153     1.0  0.84617  0.05283  0.19273  1.0000
  H   H7354     1.0  0.95697  0.32330  0.26257  1.0000
  C   C4154     1.0  0.85313  0.27316  0.03912  1.0000
  C   C4155     1.0  0.83439  0.06087  0.16279  1.0000
  S   S928      1.0  0.82547  0.35396  0.11232  1.0000
  C   C4156     1.0  0.81030  0.19836  0.32490  1.0000
  C   C4157     1.0  0.97530  0.00173  0.26638  1.0000
  H   H7355     1.0  0.84719  0.06663  0.15720  1.0000
  S   S929      1.0  0.84414  0.38996  0.07139  1.0000
  H   H7356     1.0  0.97483  0.05141  0.19901  1.0000
  H   H7357     1.0  0.95893  0.41172  0.10820  1.0000
  H   H7358     1.0  0.84156  0.04637  0.12190  1.0000
  C   C4158     1.0  0.79718  0.24639  0.35846  1.0000
  H   H7359     1.0  0.78855  0.06700  0.34096  1.0000
  C   C4159     1.0  0.97182  0.32234  0.26220  1.0000
  H   H7360     1.0  0.86629  0.32915  0.12742  1.0000
  C   C4160     1.0  0.79576  0.20728  0.33683  1.0000
  S   S930      1.0  0.95220  0.30795  0.32494  1.0000
  H   H7361     1.0  0.96382  0.05478  0.25965  1.0000
  S   S931      1.0  0.83683  0.44059  0.07805  1.0000
  C   C4161     1.0  0.82944  0.33167  0.10805  1.0000
  C   C4162     1.0  0.85851  0.25632  0.19115  1.0000
  H   H7362     1.0  0.84640  0.26301  0.20041  1.0000
  H   H7363     1.0  0.83292  0.19630  0.05837  1.0000
  C   C4163     1.0  0.80232  0.46219  0.07949  1.0000
  H   H7364     1.0  0.85975  0.24553  0.12122  1.0000
  H   H7365     1.0  0.96364  0.11376  0.18734  1.0000
  Fe  Fe466     1.0  0.95930  0.27739  0.33600  1.0000
  H   H7366     1.0  0.80602  0.29761  0.11337  1.0000
  H   H7367     1.0  0.88549  0.23914  0.19410  1.0000
  S   S932      1.0  0.98419  0.45596  0.08619  1.0000
  C   C4164     1.0  0.78696  0.18325  0.06413  1.0000
  H   H7368     1.0  0.83707  0.08648  0.11768  1.0000
  H   H7369     1.0  0.78647  0.07754  0.07757  1.0000
  H   H7370     1.0  0.80699  0.17320  0.29616  1.0000
  H   H7371     1.0  0.88106  0.46789  0.10193  1.0000
  C   C4165     1.0  0.81478  0.32229  0.11317  1.0000
  H   H7372     1.0  0.80126  0.32884  0.11961  1.0000
  H   H7373     1.0  0.78728  0.36566  0.02903  1.0000
  C   C4166     1.0  0.84961  0.30535  0.09645  1.0000
  H   H7374     1.0  0.96358  0.44761  0.23031  1.0000
  H   H7375     1.0  0.80064  0.98713  0.22213  1.0000
  H   H7376     1.0  0.80171  0.04428  0.13407  1.0000
  H   H7377     1.0  0.85180  0.43735  0.02884  1.0000
  H   H7378     1.0  0.85581  0.27275  0.02431  1.0000
  H   H7379     1.0  0.97248  0.41830  0.08557  1.0000
  H   H7380     1.0  0.82739  0.06864  0.04436  1.0000
  H   H7381     1.0  0.86986  0.32934  0.14983  1.0000
  N   N234      1.0  0.85081  0.30847  0.03208  1.0000
  H   H7382     1.0  0.85293  0.17237  0.97693  1.0000
  H   H7383     1.0  0.86493  0.14328  0.20659  1.0000
  H   H7384     1.0  0.86519  0.22394  0.13674  1.0000
  H   H7385     1.0  0.86603  0.29827  0.00739  1.0000
  C   C4167     1.0  0.97581  0.31145  0.36897  1.0000
  C   C4168     1.0  0.97020  0.33699  0.31255  1.0000
  H   H7386     1.0  0.84201  0.33810  0.02652  1.0000
  H   H7387     1.0  0.96337  0.41389  0.18988  1.0000
  H   H7388     1.0  0.83429  0.21482  0.16516  1.0000
  H   H7389     1.0  0.85461  0.13976  0.97845  1.0000
  H   H7390     1.0  0.82570  0.31958  0.00707  1.0000
  H   H7391     1.0  0.81948  0.34905  0.07290  1.0000
  H   H7392     1.0  0.81246  0.41983  0.10626  1.0000
  H   H7393     1.0  0.96605  0.02165  0.19974  1.0000
  H   H7394     1.0  0.85162  0.41403  0.02861  1.0000
  H   H7395     1.0  0.82610  0.45990  0.13520  1.0000
  C   C4169     1.0  0.81291  0.44538  0.08663  1.0000
  H   H7396     1.0  0.84773  0.32948  0.05957  1.0000
  H   H7397     1.0  0.86978  0.33603  0.03292  1.0000
  H   H7398     1.0  0.84385  0.24649  0.15397  1.0000
  H   H7399     1.0  0.82575  0.02107  0.04656  1.0000
  C   C4170     1.0  0.82250  0.01984  0.24400  1.0000
  H   H7400     1.0  0.82789  0.29417  0.04112  1.0000
  C   C4171     1.0  0.87349  0.24706  0.20239  1.0000
  C   C4172     1.0  0.94361  0.32854  0.36421  1.0000
  H   H7401     1.0  0.78913  0.22128  0.33206  1.0000
  H   H7402     1.0  0.82254  0.98505  0.26202  1.0000
  C   C4173     1.0  0.79829  0.01906  0.15264  1.0000
  C   C4174     1.0  0.81294  0.41822  0.03493  1.0000
  H   H7403     1.0  0.96796  0.01651  0.32552  1.0000
  C   C4175     1.0  0.97831  0.33973  0.25042  1.0000
  H   H7404     1.0  0.81803  0.44510  0.03615  1.0000
  C   C4176     1.0  0.83760  0.32585  0.03629  1.0000
  C   C4177     1.0  0.85485  0.01758  0.05846  1.0000
  Fe  Fe467     1.0  0.80724  0.21973  0.11492  1.0000
  H   H7405     1.0  0.85647  0.00686  0.05055  1.0000
  H   H7406     1.0  0.81390  0.15964  0.09514  1.0000
  H   H7407     1.0  0.87259  0.28184  0.45938  1.0000
  H   H7408     1.0  0.94304  0.99624  0.22214  1.0000
  C   C4178     1.0  0.82470  0.43033  0.03855  1.0000
  H   H7409     1.0  0.94916  0.44769  0.08047  1.0000
  C   C4179     1.0  0.81741  0.04032  0.15604  1.0000
  S   S933      1.0  0.96822  0.43183  0.13871  1.0000
  H   H7410     1.0  0.98226  0.00251  0.16659  1.0000
  C   C4180     1.0  0.91220  0.43708  0.05980  1.0000
  H   H7411     1.0  0.84094  0.29132  0.05800  1.0000
  C   C4181     1.0  0.81032  0.03315  0.14241  1.0000
  H   H7412     1.0  0.80067  0.10319  0.31978  1.0000
  H   H7413     1.0  0.98104  0.45786  0.35196  1.0000
  H   H7414     1.0  0.96645  0.45019  0.03802  1.0000
  H   H7415     1.0  0.87462  0.98497  0.15687  1.0000
  H   H7416     1.0  0.79227  0.21763  0.08211  1.0000
  H   H7417     1.0  0.79458  0.39584  0.10390  1.0000
  H   H7418     1.0  0.79415  0.99801  0.37750  1.0000
  H   H7419     1.0  0.78842  0.44282  0.05827  1.0000
  H   H7420     1.0  0.85525  0.45331  0.10249  1.0000
  H   H7421     1.0  0.98096  0.98447  0.23544  1.0000
  H   H7422     1.0  0.98378  0.99511  0.10039  1.0000
  H   H7423     1.0  0.98416  0.34548  0.34887  1.0000
  H   H7424     1.0  0.98459  0.35962  0.30367  1.0000
  N   N235      1.0  0.98392  0.97900  0.32165  1.0000
  H   H7425     1.0  0.95639  0.97447  0.23120  1.0000
  C   C4182     1.0  0.98468  0.03029  0.26426  1.0000
  C   C4183     1.0  0.96709  0.47398  0.37353  1.0000
  C   C4184     1.0  0.91393  0.03003  0.73795  1.0000
  H   H7426     1.0  0.92535  0.46420  0.67119  1.0000
  Fe  Fe468     1.0  0.87061  0.18008  0.88368  1.0000
  S   S934      1.0  0.87156  0.20504  0.86094  1.0000
  S   S935      1.0  0.88934  0.15266  0.88022  1.0000
  Fe  Fe469     1.0  0.83675  0.19919  0.90738  1.0000
  S   S936      1.0  0.83502  0.22560  0.88649  1.0000
  S   S937      1.0  0.81421  0.19899  0.93282  1.0000
  Fe  Fe470     1.0  0.84082  0.20770  0.86576  1.0000
  S   S938      1.0  0.82488  0.21633  0.84266  1.0000
  Fe  Fe471     1.0  0.86569  0.22061  0.88378  1.0000
  S   S939      1.0  0.88112  0.24329  0.88052  1.0000
  S   S940      1.0  0.84015  0.18166  0.88693  1.0000
  S   S941      1.0  0.86715  0.19531  0.90632  1.0000
  H   H7427     1.0  0.87567  0.31551  0.55216  1.0000
  C   C4185     1.0  0.79905  0.01205  0.59795  1.0000
  C   C4186     1.0  0.94241  0.34247  0.94569  1.0000
  H   H7428     1.0  0.93109  0.43047  0.91005  1.0000
  S   S942      1.0  0.88579  0.33504  0.90788  1.0000
  H   H7429     1.0  0.94662  0.47290  0.59701  1.0000
  H   H7430     1.0  0.88146  0.31535  0.52776  1.0000
  S   S943      1.0  0.86183  0.38454  0.88800  1.0000
  S   S944      1.0  0.93203  0.33299  0.91768  1.0000
  H   H7431     1.0  0.83946  0.26830  0.93269  1.0000
  C   C4187     1.0  0.94645  0.23066  0.48142  1.0000
  H   H7432     1.0  0.81662  0.45311  0.88083  1.0000
  Fe  Fe472     1.0  0.94161  0.30326  0.47526  1.0000
  C   C4188     1.0  0.88684  0.22488  0.48099  1.0000
  H   H7433     1.0  0.79736  0.32966  0.92281  1.0000
  H   H7434     1.0  0.80252  0.46051  0.71456  1.0000
  S   S945      1.0  0.80550  0.10259  0.63220  1.0000
  Fe  Fe473     1.0  0.82129  0.10329  0.65311  1.0000
  S   S946      1.0  0.85177  0.10315  0.64547  1.0000
  C   C4189     1.0  0.87619  0.25384  0.53150  1.0000
  S   S947      1.0  0.81729  0.44831  0.78088  1.0000
  C   C4190     1.0  0.96329  0.01309  0.66924  1.0000
  C   C4191     1.0  0.95755  0.41815  0.91800  1.0000
  S   S948      1.0  0.82293  0.22292  0.51545  1.0000
  S   S949      1.0  0.80598  0.24861  0.54625  1.0000
  Fe  Fe474     1.0  0.81671  0.25287  0.51582  1.0000
  H   H7435     1.0  0.79436  0.18483  0.88262  1.0000
  H   H7436     1.0  0.81443  0.98620  0.59249  1.0000
  S   S950      1.0  0.82253  0.19500  0.56496  1.0000
  H   H7437     1.0  0.89951  0.43085  0.86953  1.0000
  Fe  Fe475     1.0  0.95843  0.08078  0.69156  1.0000
  S   S951      1.0  0.93878  0.07501  0.71847  1.0000
  H   H7438     1.0  0.89508  0.28693  0.49926  1.0000
  Fe  Fe476     1.0  0.94950  0.12168  0.69038  1.0000
  S   S952      1.0  0.92917  0.11922  0.71736  1.0000
  Fe  Fe477     1.0  0.95040  0.09497  0.72689  1.0000
  S   S953      1.0  0.95873  0.08635  0.75448  1.0000
  Fe  Fe478     1.0  0.91932  0.09959  0.70637  1.0000
  S   S954      1.0  0.88886  0.09880  0.71213  1.0000
  S   S955      1.0  0.93814  0.10385  0.67858  1.0000
  H   H7439     1.0  0.80845  0.13736  0.51641  1.0000
  C   C4192     1.0  0.96416  0.04158  0.67732  1.0000
  H   H7440     1.0  0.83239  0.17351  0.50824  1.0000
  H   H7441     1.0  0.93846  0.05497  0.69195  1.0000
  C   C4193     1.0  0.85972  0.25605  0.52537  1.0000
  H   H7442     1.0  0.85000  0.24717  0.53244  1.0000
  C   C4194     1.0  0.86154  0.10306  0.66399  1.0000
  C   C4195     1.0  0.87959  0.10603  0.66054  1.0000
  C   C4196     1.0  0.88812  0.10479  0.67519  1.0000
  C   C4197     1.0  0.87863  0.10054  0.69338  1.0000
  C   C4198     1.0  0.86046  0.09784  0.69679  1.0000
  C   C4199     1.0  0.85185  0.09927  0.68215  1.0000
  H   H7443     1.0  0.88705  0.10919  0.64650  1.0000
  H   H7444     1.0  0.90200  0.10713  0.67237  1.0000
  H   H7445     1.0  0.85308  0.09445  0.71080  1.0000
  H   H7446     1.0  0.83791  0.09698  0.68496  1.0000
  Fe  Fe479     1.0  0.86562  0.35158  0.95389  1.0000
  C   C4200     1.0  0.80760  0.18193  0.58120  1.0000
  C   C4201     1.0  0.81510  0.16524  0.59173  1.0000
  H   H7447     1.0  0.92912  0.34041  0.95414  1.0000
  H   H7448     1.0  0.82991  0.16032  0.58937  1.0000
  H   H7449     1.0  0.79760  0.18246  0.53956  1.0000
  H   H7450     1.0  0.80117  0.19508  0.61357  1.0000
  C   C4202     1.0  0.96764  0.10250  0.76059  1.0000
  H   H7451     1.0  0.98205  0.03169  0.75404  1.0000
  C   C4203     1.0  0.94555  0.04321  0.68587  1.0000
  H   H7452     1.0  0.94909  0.23024  0.49513  1.0000
  H   H7453     1.0  0.83607  0.14502  0.65324  1.0000
  C   C4204     1.0  0.80467  0.39848  0.87360  1.0000
  C   C4205     1.0  0.80761  0.38683  0.89035  1.0000
  C   C4206     1.0  0.82503  0.38271  0.89505  1.0000
  C   C4207     1.0  0.83962  0.39009  0.88294  1.0000
  C   C4208     1.0  0.83654  0.40213  0.86642  1.0000
  C   C4209     1.0  0.81909  0.40636  0.86176  1.0000
  H   H7454     1.0  0.84776  0.40797  0.85704  1.0000
  H   H7455     1.0  0.81696  0.41531  0.84879  1.0000
  H   H7456     1.0  0.78821  0.14188  0.92237  1.0000
  C   C4210     1.0  0.78899  0.14661  0.56080  1.0000
  C   C4211     1.0  0.96450  0.34187  0.91698  1.0000
  C   C4212     1.0  0.94709  0.33970  0.92760  1.0000
  H   H7457     1.0  0.86767  0.46460  0.67379  1.0000
  C   C4213     1.0  0.79635  0.19583  0.67622  1.0000
  H   H7458     1.0  0.96822  0.33944  0.90311  1.0000
  H   H7459     1.0  0.92135  0.47202  0.62346  1.0000
  H   H7460     1.0  0.81593  0.02838  0.57573  1.0000
  C   C4214     1.0  0.93606  0.02952  0.68675  1.0000
  H   H7461     1.0  0.81837  0.32420  0.93170  1.0000
  H   H7462     1.0  0.85922  0.21421  0.95472  1.0000
  Fe  Fe480     1.0  0.80917  0.46204  0.62362  1.0000
  Fe  Fe481     1.0  0.86728  0.32224  0.93284  1.0000
  C   C4215     1.0  0.91321  0.15192  0.87652  1.0000
  C   C4216     1.0  0.92580  0.13600  0.87237  1.0000
  C   C4217     1.0  0.94493  0.13536  0.86865  1.0000
  C   C4218     1.0  0.95151  0.15051  0.86958  1.0000
  C   C4219     1.0  0.93892  0.16623  0.87419  1.0000
  C   C4220     1.0  0.91981  0.16705  0.87739  1.0000
  H   H7463     1.0  0.92072  0.12420  0.87188  1.0000
  H   H7464     1.0  0.95458  0.12313  0.86532  1.0000
  H   H7465     1.0  0.94397  0.17792  0.87507  1.0000
  H   H7466     1.0  0.91021  0.17935  0.88067  1.0000
  C   C4221     1.0  0.87413  0.25755  0.89688  1.0000
  C   C4222     1.0  0.85794  0.25665  0.91030  1.0000
  C   C4223     1.0  0.85211  0.26892  0.92249  1.0000
  C   C4224     1.0  0.86241  0.28214  0.92137  1.0000
  C   C4225     1.0  0.87875  0.28286  0.90814  1.0000
  C   C4226     1.0  0.88454  0.27064  0.89589  1.0000
  H   H7467     1.0  0.84981  0.24666  0.91111  1.0000
  H   H7468     1.0  0.88685  0.29289  0.90726  1.0000
  H   H7469     1.0  0.89708  0.27137  0.88554  1.0000
  C   C4227     1.0  0.81361  0.20064  0.83866  1.0000
  Fe  Fe482     1.0  0.96934  0.42997  0.57968  1.0000
  H   H7470     1.0  0.80327  0.43044  0.56376  1.0000
  H   H7471     1.0  0.82946  0.08868  0.73943  1.0000
  C   C4228     1.0  0.80673  0.17017  0.84473  1.0000
  C   C4229     1.0  0.81608  0.18232  0.84795  1.0000
  N   N236      1.0  0.78762  0.43051  0.74073  1.0000
  H   H7472     1.0  0.80881  0.15596  0.85189  1.0000
  H   H7473     1.0  0.82533  0.17746  0.85749  1.0000
  S   S956      1.0  0.85395  0.29797  0.93623  1.0000
  C   C4230     1.0  0.89987  0.21906  0.57265  1.0000
  C   C4231     1.0  0.81684  0.09943  0.74190  1.0000
  N   N237      1.0  0.78927  0.44779  0.91590  1.0000
  Fe  Fe483     1.0  0.86780  0.36211  0.91246  1.0000
  H   H7474     1.0  0.81951  0.33146  0.48219  1.0000
  H   H7475     1.0  0.79833  0.26899  0.83425  1.0000
  Fe  Fe484     1.0  0.90107  0.33878  0.92783  1.0000
  C   C4232     1.0  0.81340  0.17773  0.94797  1.0000
  C   C4233     1.0  0.82591  0.16175  0.94419  1.0000
  H   H7476     1.0  0.83660  0.16240  0.93185  1.0000
  H   H7477     1.0  0.81882  0.44027  0.91390  1.0000
  S   S957      1.0  0.79424  0.20913  0.49097  1.0000
  H   H7478     1.0  0.79318  0.24635  0.84391  1.0000
  H   H7479     1.0  0.96469  0.17477  0.71225  1.0000
  H   H7480     1.0  0.79180  0.15466  0.56969  1.0000
  H   H7481     1.0  0.94918  0.21635  0.47928  1.0000
  H   H7482     1.0  0.82231  0.12281  0.91770  1.0000
  S   S958      1.0  0.95414  0.14986  0.67524  1.0000
  S   S959      1.0  0.94494  0.29336  0.52692  1.0000
  C   C4234     1.0  0.93934  0.35300  0.53086  1.0000
  H   H7483     1.0  0.95165  0.41140  0.93212  1.0000
  C   C4235     1.0  0.82709  0.47276  0.79559  1.0000
  H   H7484     1.0  0.83237  0.18389  0.52704  1.0000
  H   H7485     1.0  0.95683  0.99292  0.75853  1.0000
  H   H7486     1.0  0.80049  0.11091  0.50998  1.0000
  Fe  Fe485     1.0  0.92758  0.28273  0.51374  1.0000
  H   H7487     1.0  0.95777  0.32659  0.53364  1.0000
  C   C4236     1.0  0.97404  0.23527  0.53731  1.0000
  S   S960      1.0  0.91717  0.31042  0.49745  1.0000
  N   N238      1.0  0.81359  0.98433  0.62139  1.0000
  C   C4237     1.0  0.79925  0.37595  0.54713  1.0000
  H   H7488     1.0  0.79674  0.22016  0.88647  1.0000
  S   S961      1.0  0.92612  0.34766  0.51788  1.0000
  S   S962      1.0  0.80169  0.12733  0.66341  1.0000
  H   H7489     1.0  0.97648  0.33501  0.55137  1.0000
  S   S963      1.0  0.96000  0.31613  0.48478  1.0000
  H   H7490     1.0  0.84044  0.46824  0.75092  1.0000
  H   H7491     1.0  0.86603  0.29125  0.48885  1.0000
  C   C4238     1.0  0.85606  0.26949  0.50991  1.0000
  H   H7492     1.0  0.95159  0.34964  0.96700  1.0000
  C   C4239     1.0  0.96482  0.34492  0.54692  1.0000
  S   S964      1.0  0.93189  0.99835  0.67904  1.0000
  H   H7493     1.0  0.94206  0.38894  0.54815  1.0000
  C   C4240     1.0  0.88901  0.26508  0.52221  1.0000
  H   H7494     1.0  0.80945  0.14225  0.61367  1.0000
  C   C4241     1.0  0.79977  0.16989  0.53385  1.0000
  H   H7495     1.0  0.79783  0.44494  0.87747  1.0000
  H   H7496     1.0  0.83778  0.05076  0.63486  1.0000
  H   H7497     1.0  0.82718  0.37378  0.90800  1.0000
  H   H7498     1.0  0.80799  0.43741  0.75170  1.0000
  H   H7499     1.0  0.83699  0.39232  0.76826  1.0000
  H   H7500     1.0  0.89332  0.98216  0.64654  1.0000
  C   C4242     1.0  0.90249  0.46184  0.56321  1.0000
  C   C4243     1.0  0.97247  0.35018  0.94208  1.0000
  C   C4244     1.0  0.81075  0.44643  0.71410  1.0000
  H   H7501     1.0  0.79111  0.40351  0.65656  1.0000
  C   C4245     1.0  0.80353  0.15500  0.60548  1.0000
  H   H7502     1.0  0.91373  0.98966  0.64682  1.0000
  H   H7503     1.0  0.94275  0.40956  0.51008  1.0000
  H   H7504     1.0  0.82824  0.99967  0.59655  1.0000
  C   C4246     1.0  0.93191  0.01567  0.73751  1.0000
  H   H7505     1.0  0.80747  0.41854  0.71885  1.0000
  C   C4247     1.0  0.82864  0.46595  0.77989  1.0000
  C   C4248     1.0  0.88389  0.46949  0.56259  1.0000
  H   H7506     1.0  0.97752  0.19131  0.60626  1.0000
  C   C4249     1.0  0.81984  0.15982  0.53552  1.0000
  H   H7507     1.0  0.80287  0.18110  0.67944  1.0000
  H   H7508     1.0  0.92330  0.38048  0.53056  1.0000
  H   H7509     1.0  0.82242  0.40598  0.74131  1.0000
  H   H7510     1.0  0.84352  0.33124  0.47169  1.0000
  H   H7511     1.0  0.83534  0.14686  0.62946  1.0000
  H   H7512     1.0  0.82149  0.44357  0.72244  1.0000
  H   H7513     1.0  0.78883  0.29308  0.57412  1.0000
  C   C4250     1.0  0.82459  0.14488  0.95648  1.0000
  H   H7514     1.0  0.80887  0.38393  0.53674  1.0000
  H   H7515     1.0  0.97554  0.44852  0.50293  1.0000
  H   H7516     1.0  0.97433  0.41563  0.49586  1.0000
  H   H7517     1.0  0.83431  0.13252  0.95357  1.0000
  C   C4251     1.0  0.79950  0.47281  0.86380  1.0000
  Fe  Fe486     1.0  0.96968  0.39943  0.56058  1.0000
  H   H7518     1.0  0.97704  0.34901  0.49993  1.0000
  H   H7519     1.0  0.88383  0.29409  0.54437  1.0000
  H   H7520     1.0  0.80611  0.34764  0.92710  1.0000
  C   C4252     1.0  0.81476  0.99515  0.60178  1.0000
  H   H7521     1.0  0.98388  0.04358  0.91063  1.0000
  N   N239      1.0  0.94047  0.40429  0.90120  1.0000
  C   C4253     1.0  0.92488  0.40978  0.89089  1.0000
  C   C4254     1.0  0.93497  0.39115  0.91897  1.0000
  C   C4255     1.0  0.94418  0.42140  0.90474  1.0000
  H   H7522     1.0  0.83642  0.31037  0.48504  1.0000
  H   H7523     1.0  0.97953  0.05852  0.86672  1.0000
  H   H7524     1.0  0.93335  0.00859  0.72610  1.0000
  H   H7525     1.0  0.90247  0.99866  0.62731  1.0000
  C   C4256     1.0  0.91807  0.39914  0.93289  1.0000
  C   C4257     1.0  0.91535  0.38569  0.95134  1.0000
  H   H7526     1.0  0.79907  0.40744  0.93043  1.0000
  H   H7527     1.0  0.80384  0.16698  0.63551  1.0000
  C   C4258     1.0  0.81003  0.14600  0.89841  1.0000
  H   H7528     1.0  0.91227  0.41719  0.89896  1.0000
  H   H7529     1.0  0.92079  0.39737  0.88931  1.0000
  H   H7530     1.0  0.93148  0.37902  0.91613  1.0000
  H   H7531     1.0  0.94685  0.38530  0.92608  1.0000
  H   H7532     1.0  0.90351  0.27429  0.46912  1.0000
  S   S965      1.0  0.84780  0.34913  0.93573  1.0000
  H   H7533     1.0  0.83949  0.01501  0.64286  1.0000
  H   H7534     1.0  0.78586  0.00748  0.59972  1.0000
  H   H7535     1.0  0.88119  0.22113  0.47072  1.0000
  H   H7536     1.0  0.78988  0.18916  0.96681  1.0000
  C   C4259     1.0  0.84456  0.22156  0.95629  1.0000
  H   H7537     1.0  0.98420  0.15162  0.69420  1.0000
  S   S966      1.0  0.88390  0.32371  0.95270  1.0000
  H   H7538     1.0  0.84330  0.23500  0.95997  1.0000
  H   H7539     1.0  0.91964  0.41208  0.93573  1.0000
  H   H7540     1.0  0.90521  0.40192  0.92752  1.0000
  H   H7541     1.0  0.97128  0.25049  0.53516  1.0000
  H   H7542     1.0  0.80519  0.36635  0.85175  1.0000
  H   H7543     1.0  0.91265  0.37277  0.94951  1.0000
  S   S967      1.0  0.95084  0.27487  0.49088  1.0000
  H   H7544     1.0  0.85595  0.29949  0.53119  1.0000
  H   H7545     1.0  0.97043  0.17954  0.65170  1.0000
  Fe  Fe487     1.0  0.79068  0.08347  0.65505  1.0000
  H   H7546     1.0  0.82158  0.35984  0.83164  1.0000
  H   H7547     1.0  0.92953  0.46099  0.72606  1.0000
  C   C4260     1.0  0.81500  0.41879  0.56618  1.0000
  H   H7548     1.0  0.96872  0.44302  0.90564  1.0000
  H   H7549     1.0  0.95817  0.42532  0.65236  1.0000
  H   H7550     1.0  0.83048  0.35917  0.86887  1.0000
  H   H7551     1.0  0.80989  0.40844  0.57816  1.0000
  S   S968      1.0  0.90965  0.26221  0.52992  1.0000
  N   N240      1.0  0.88660  0.04313  0.65479  1.0000
  C   C4261     1.0  0.86756  0.04928  0.65036  1.0000
  C   C4262     1.0  0.88461  0.03789  0.67542  1.0000
  C   C4263     1.0  0.89693  0.05870  0.64668  1.0000
  C   C4264     1.0  0.89739  0.02665  0.64666  1.0000
  C   C4265     1.0  0.88811  0.00967  0.65200  1.0000
  C   C4266     1.0  0.86677  0.05285  0.62970  1.0000
  C   C4267     1.0  0.91520  0.05653  0.65314  1.0000
  C   C4268     1.0  0.87515  0.05363  0.68607  1.0000
  C   C4269     1.0  0.87569  0.04720  0.70652  1.0000
  C   C4270     1.0  0.90017  0.99417  0.64252  1.0000
  C   C4271     1.0  0.84696  0.06040  0.62681  1.0000
  C   C4272     1.0  0.92537  0.07209  0.64279  1.0000
  H   H7552     1.0  0.86051  0.06234  0.65510  1.0000
  H   H7553     1.0  0.85863  0.03924  0.65816  1.0000
  H   H7554     1.0  0.87616  0.02710  0.68126  1.0000
  H   H7555     1.0  0.89828  0.03146  0.67916  1.0000
  H   H7556     1.0  0.88799  0.07198  0.64947  1.0000
  H   H7557     1.0  0.90051  0.06065  0.63142  1.0000
  H   H7558     1.0  0.90090  0.03049  0.63137  1.0000
  H   H7559     1.0  0.91095  0.02171  0.65097  1.0000
  H   H7560     1.0  0.87449  0.01311  0.64798  1.0000
  H   H7561     1.0  0.88619  0.00411  0.66703  1.0000
  H   H7562     1.0  0.81822  0.02850  0.65312  1.0000
  H   H7563     1.0  0.87195  0.04000  0.62426  1.0000
  H   H7564     1.0  0.92473  0.04343  0.65089  1.0000
  H   H7565     1.0  0.91239  0.05692  0.66796  1.0000
  H   H7566     1.0  0.88201  0.06556  0.68079  1.0000
  H   H7567     1.0  0.86043  0.05834  0.68493  1.0000
  C   C4273     1.0  0.79970  0.17685  0.96402  1.0000
  H   H7568     1.0  0.86867  0.03537  0.71267  1.0000
  H   H7569     1.0  0.89019  0.04316  0.70843  1.0000
  H   H7570     1.0  0.98040  0.12785  0.60125  1.0000
  H   H7571     1.0  0.97042  0.37861  0.49037  1.0000
  H   H7572     1.0  0.97132  0.23666  0.50934  1.0000
  H   H7573     1.0  0.89414  0.21079  0.56626  1.0000
  H   H7574     1.0  0.84156  0.07385  0.63111  1.0000
  C   C4274     1.0  0.96155  0.43632  0.91926  1.0000
  H   H7575     1.0  0.91668  0.08558  0.64509  1.0000
  H   H7576     1.0  0.93825  0.07015  0.64793  1.0000
  H   H7577     1.0  0.92915  0.07213  0.62781  1.0000
  S   S969      1.0  0.83620  0.27212  0.50114  1.0000
  C   C4275     1.0  0.80370  0.28640  0.57164  1.0000
  H   H7578     1.0  0.91243  0.41170  0.85883  1.0000
  H   H7579     1.0  0.96835  0.38825  0.89909  1.0000
  H   H7580     1.0  0.95702  0.21453  0.54447  1.0000
  H   H7581     1.0  0.81993  0.46639  0.80875  1.0000
  C   C4276     1.0  0.82348  0.99155  0.63201  1.0000
  H   H7582     1.0  0.78604  0.21766  0.86891  1.0000
  H   H7583     1.0  0.95950  0.28519  0.88767  1.0000
  H   H7584     1.0  0.97462  0.44548  0.70409  1.0000
  H   H7585     1.0  0.83367  0.40176  0.91799  1.0000
  Fe  Fe488     1.0  0.94420  0.43640  0.55309  1.0000
  H   H7586     1.0  0.84818  0.16279  0.52368  1.0000
  C   C4277     1.0  0.97292  0.17913  0.69831  1.0000
  H   H7587     1.0  0.87189  0.20651  0.50271  1.0000
  H   H7588     1.0  0.79787  0.39333  0.73681  1.0000
  S   S970      1.0  0.80763  0.43302  0.62349  1.0000
  H   H7589     1.0  0.96856  0.38282  0.51258  1.0000
  C   C4278     1.0  0.83928  0.15321  0.63909  1.0000
  H   H7590     1.0  0.79945  0.17507  0.51896  1.0000
  C   C4279     1.0  0.95516  0.34760  0.95296  1.0000
  S   S971      1.0  0.94732  0.41549  0.57906  1.0000
  C   C4280     1.0  0.82733  0.40578  0.93147  1.0000
  S   S972      1.0  0.88425  0.36685  0.93074  1.0000
  H   H7591     1.0  0.95266  0.30878  0.87672  1.0000
  S   S973      1.0  0.96476  0.41917  0.53450  1.0000
  Fe  Fe489     1.0  0.96736  0.28820  0.50230  1.0000
  H   H7592     1.0  0.96846  0.11910  0.92674  1.0000
  H   H7593     1.0  0.96296  0.98795  0.72833  1.0000
  H   H7594     1.0  0.80115  0.34884  0.52887  1.0000
  H   H7595     1.0  0.98075  0.28850  0.53663  1.0000
  C   C4281     1.0  0.97327  0.07312  0.86745  1.0000
  H   H7596     1.0  0.98397  0.36401  0.88184  1.0000
  C   C4282     1.0  0.98035  0.03858  0.73981  1.0000
  N   N241      1.0  0.96734  0.01232  0.73473  1.0000
  H   H7597     1.0  0.79682  0.97696  0.65963  1.0000
  C   C4283     1.0  0.83401  0.17071  0.52277  1.0000
  C   C4284     1.0  0.94862  0.02493  0.73481  1.0000
  H   H7598     1.0  0.92905  0.44550  0.64553  1.0000
  H   H7599     1.0  0.97313  0.40953  0.47498  1.0000
  S   S974      1.0  0.97642  0.05802  0.67760  1.0000
  H   H7600     1.0  0.91575  0.43471  0.84802  1.0000
  C   C4285     1.0  0.93135  0.46899  0.65641  1.0000
  H   H7601     1.0  0.96115  0.12422  0.73780  1.0000
  H   H7602     1.0  0.78708  0.12677  0.59664  1.0000
  H   H7603     1.0  0.94755  0.38565  0.87029  1.0000
  H   H7604     1.0  0.94155  0.40345  0.48914  1.0000
  H   H7605     1.0  0.95685  0.46992  0.74440  1.0000
  H   H7606     1.0  0.82168  0.15822  0.54983  1.0000
  C   C4286     1.0  0.81453  0.01057  0.63702  1.0000
  H   H7607     1.0  0.92901  0.43656  0.87350  1.0000
  H   H7608     1.0  0.94888  0.03518  0.72164  1.0000
  H   H7609     1.0  0.94516  0.03299  0.74587  1.0000
  H   H7610     1.0  0.88971  0.24989  0.48759  1.0000
  H   H7611     1.0  0.79884  0.18639  0.90363  1.0000
  H   H7612     1.0  0.82326  0.14600  0.53223  1.0000
  H   H7613     1.0  0.79837  0.34861  0.56243  1.0000
  C   C4287     1.0  0.89850  0.47266  0.59135  1.0000
  H   H7614     1.0  0.98325  0.21773  0.58065  1.0000
  C   C4288     1.0  0.78724  0.45707  0.93177  1.0000
  C   C4289     1.0  0.82759  0.40600  0.76745  1.0000
  C   C4290     1.0  0.80761  0.41677  0.93156  1.0000
  H   H7615     1.0  0.97944  0.08211  0.85483  1.0000
  C   C4291     1.0  0.96063  0.36261  0.55077  1.0000
  H   H7616     1.0  0.94206  0.98358  0.58689  1.0000
  C   C4292     1.0  0.97525  0.09751  0.77641  1.0000
  H   H7617     1.0  0.87418  0.25311  0.47298  1.0000
  C   C4293     1.0  0.97642  0.07775  0.88455  1.0000
  C   C4294     1.0  0.79248  0.19454  0.82274  1.0000
  H   H7618     1.0  0.96390  0.18197  0.68817  1.0000
  H   H7619     1.0  0.80243  0.42069  0.94514  1.0000
  C   C4295     1.0  0.80705  0.43355  0.91521  1.0000
  H   H7620     1.0  0.87828  0.46847  0.55134  1.0000
  H   H7621     1.0  0.83295  0.18037  0.62353  1.0000
  C   C4296     1.0  0.97578  0.38603  0.49798  1.0000
  H   H7622     1.0  0.80490  0.01391  0.56824  1.0000
  H   H7623     1.0  0.79997  0.46238  0.93038  1.0000
  C   C4297     1.0  0.79365  0.98424  0.63068  1.0000
  H   H7624     1.0  0.87902  0.24331  0.54332  1.0000
  C   C4298     1.0  0.82655  0.13428  0.90656  1.0000
  C   C4299     1.0  0.88522  0.27850  0.50680  1.0000
  H   H7625     1.0  0.86855  0.05858  0.71389  1.0000
  N   N242      1.0  0.91927  0.15362  0.81245  1.0000
  C   C4300     1.0  0.93450  0.16434  0.80827  1.0000
  C   C4301     1.0  0.91383  0.15319  0.79484  1.0000
  C   C4302     1.0  0.90259  0.16355  0.82418  1.0000
  C   C4303     1.0  0.92454  0.13441  0.82318  1.0000
  C   C4304     1.0  0.94203  0.12212  0.81411  1.0000
  C   C4305     1.0  0.94213  0.16521  0.82491  1.0000
  C   C4306     1.0  0.88478  0.15545  0.82888  1.0000
  C   C4307     1.0  0.92916  0.15325  0.77714  1.0000
  C   C4308     1.0  0.92271  0.14901  0.76159  1.0000
  C   C4309     1.0  0.94694  0.10389  0.82731  1.0000
  C   C4310     1.0  0.95697  0.17691  0.81884  1.0000
  C   C4311     1.0  0.86791  0.16852  0.83722  1.0000
  H   H7626     1.0  0.92972  0.17870  0.80114  1.0000
  H   H7627     1.0  0.94677  0.15858  0.79858  1.0000
  H   H7628     1.0  0.90749  0.14104  0.79685  1.0000
  H   H7629     1.0  0.90294  0.16543  0.79121  1.0000
  H   H7630     1.0  0.89919  0.17830  0.81738  1.0000
  H   H7631     1.0  0.90546  0.16356  0.83770  1.0000
  H   H7632     1.0  0.92621  0.13489  0.83703  1.0000
  H   H7633     1.0  0.91319  0.12679  0.82589  1.0000
  H   H7634     1.0  0.95411  0.12886  0.81012  1.0000
  H   H7635     1.0  0.93957  0.11876  0.80177  1.0000
  H   H7636     1.0  0.93120  0.17135  0.83546  1.0000
  H   H7637     1.0  0.94866  0.15125  0.83131  1.0000
  H   H7638     1.0  0.88637  0.14237  0.83918  1.0000
  H   H7639     1.0  0.88158  0.15271  0.81662  1.0000
  H   H7640     1.0  0.93292  0.16702  0.77229  1.0000
  H   H7641     1.0  0.94175  0.14301  0.77958  1.0000
  H   H7642     1.0  0.90963  0.15854  0.75899  1.0000
  H   H7643     1.0  0.93339  0.15064  0.74874  1.0000
  H   H7644     1.0  0.92070  0.13458  0.76511  1.0000
  H   H7645     1.0  0.94952  0.10632  0.84007  1.0000
  H   H7646     1.0  0.93559  0.09613  0.83102  1.0000
  H   H7647     1.0  0.95967  0.09537  0.82062  1.0000
  H   H7648     1.0  0.78849  0.43489  0.71164  1.0000
  H   H7649     1.0  0.83603  0.41401  0.93425  1.0000
  H   H7650     1.0  0.82723  0.39307  0.94232  1.0000
  H   H7651     1.0  0.86989  0.17103  0.85016  1.0000
  H   H7652     1.0  0.86532  0.18186  0.82745  1.0000
  H   H7653     1.0  0.85554  0.16225  0.84050  1.0000
  H   H7654     1.0  0.96476  0.40492  0.87911  1.0000
  C   C4312     1.0  0.97307  0.02649  0.66898  1.0000
  C   C4313     1.0  0.95187  0.43710  0.65940  1.0000
  H   H7655     1.0  0.95103  0.19135  0.81305  1.0000
  Fe  Fe490     1.0  0.80948  0.21894  0.54530  1.0000
  H   H7656     1.0  0.79946  0.42223  0.68377  1.0000
  C   C4314     1.0  0.87528  0.30811  0.54156  1.0000
  C   C4315     1.0  0.79592  0.13258  0.52517  1.0000
  H   H7657     1.0  0.92410  0.45757  0.57819  1.0000
  S   S975      1.0  0.97160  0.09901  0.70087  1.0000
  C   C4316     1.0  0.94549  0.37533  0.54507  1.0000
  H   H7658     1.0  0.96850  0.17129  0.80835  1.0000
  H   H7659     1.0  0.95033  0.42983  0.89157  1.0000
  H   H7660     1.0  0.95823  0.07538  0.86793  1.0000
  H   H7661     1.0  0.92184  0.03059  0.69394  1.0000
  C   C4317     1.0  0.97482  0.37019  0.87173  1.0000
  S   S976      1.0  0.91628  0.44959  0.54644  1.0000
  C   C4318     1.0  0.98422  0.18918  0.59209  1.0000
  C   C4319     1.0  0.96706  0.12028  0.75000  1.0000
  C   C4320     1.0  0.93488  0.37053  0.53512  1.0000
  C   C4321     1.0  0.94478  0.01458  0.67827  1.0000
  H   H7662     1.0  0.79283  0.11028  0.58180  1.0000
  H   H7663     1.0  0.97007  0.00161  0.66255  1.0000
  H   H7664     1.0  0.87512  0.06313  0.62138  1.0000
  H   H7665     1.0  0.80093  0.15844  0.92227  1.0000
  S   S977      1.0  0.82752  0.46656  0.64016  1.0000
  C   C4322     1.0  0.88808  0.24550  0.47543  1.0000
  Fe  Fe491     1.0  0.93641  0.32054  0.50861  1.0000
  C   C4323     1.0  0.96957  0.12122  0.91165  1.0000
  C   C4324     1.0  0.86875  0.28084  0.50080  1.0000
  C   C4325     1.0  0.95428  0.34015  0.53685  1.0000
  C   C4326     1.0  0.81410  0.40767  0.75510  1.0000
  C   C4327     1.0  0.82484  0.01481  0.64970  1.0000
  C   C4328     1.0  0.96474  0.29764  0.87936  1.0000
  C   C4329     1.0  0.97854  0.20634  0.57787  1.0000
  H   H7666     1.0  0.82962  0.45693  0.68958  1.0000
  N   N243      1.0  0.82393  0.32710  0.53639  1.0000
  C   C4330     1.0  0.82496  0.32070  0.51896  1.0000
  C   C4331     1.0  0.81264  0.31628  0.55275  1.0000
  C   C4332     1.0  0.81405  0.34705  0.53405  1.0000
  C   C4333     1.0  0.84288  0.32607  0.53963  1.0000
  C   C4334     1.0  0.85549  0.30679  0.54209  1.0000
  C   C4335     1.0  0.83711  0.32986  0.50122  1.0000
  C   C4336     1.0  0.80842  0.35564  0.55155  1.0000
  C   C4337     1.0  0.81385  0.29567  0.55308  1.0000
  C   C4338     1.0  0.97710  0.34717  0.92411  1.0000
  H   H7667     1.0  0.80196  0.13643  0.55799  1.0000
  H   H7668     1.0  0.81077  0.32266  0.51645  1.0000
  H   H7669     1.0  0.83053  0.30572  0.52022  1.0000
  H   H7670     1.0  0.81595  0.31729  0.56578  1.0000
  H   H7671     1.0  0.80469  0.27171  0.57171  1.0000
  H   H7672     1.0  0.78646  0.46023  0.59888  1.0000
  H   H7673     1.0  0.82267  0.35599  0.52354  1.0000
  H   H7674     1.0  0.85035  0.33548  0.52831  1.0000
  H   H7675     1.0  0.84185  0.33110  0.55230  1.0000
  H   H7676     1.0  0.89718  0.21395  0.58779  1.0000
  H   H7677     1.0  0.85049  0.29845  0.55572  1.0000
  H   H7678     1.0  0.83419  0.34501  0.49928  1.0000
  H   H7679     1.0  0.85196  0.32470  0.50181  1.0000
  H   H7680     1.0  0.82057  0.35486  0.55734  1.0000
  H   H7681     1.0  0.79641  0.38090  0.89965  1.0000
  C   C4339     1.0  0.79832  0.43180  0.72110  1.0000
  H   H7682     1.0  0.82823  0.28791  0.55058  1.0000
  H   H7683     1.0  0.90327  0.39181  0.96101  1.0000
  C   C4340     1.0  0.87263  0.46298  0.65924  1.0000
  H   H7684     1.0  0.82431  0.00444  0.66278  1.0000
  H   H7685     1.0  0.82953  0.43286  0.69257  1.0000
  C   C4341     1.0  0.95379  0.46634  0.73246  1.0000
  C   C4342     1.0  0.79476  0.17628  0.83226  1.0000
  H   H7686     1.0  0.80899  0.46893  0.85117  1.0000
  H   H7687     1.0  0.95609  0.23841  0.47075  1.0000
  H   H7688     1.0  0.91106  0.03666  0.74998  1.0000
  H   H7689     1.0  0.79951  0.12247  0.53751  1.0000
  H   H7690     1.0  0.96321  0.44267  0.66134  1.0000
  C   C4343     1.0  0.96753  0.00154  0.75410  1.0000
  H   H7691     1.0  0.87985  0.22278  0.51073  1.0000
  C   C4344     1.0  0.80190  0.20668  0.82593  1.0000
  H   H7692     1.0  0.96988  0.45576  0.47118  1.0000
  H   H7693     1.0  0.96877  0.06957  0.89673  1.0000
  H   H7694     1.0  0.97840  0.02387  0.94139  1.0000
  C   C4345     1.0  0.82070  0.44650  0.69409  1.0000
  S   S978      1.0  0.97249  0.43656  0.60567  1.0000
  H   H7695     1.0  0.80846  0.12877  0.73802  1.0000
  H   H7696     1.0  0.92773  0.38252  0.95757  1.0000
  H   H7697     1.0  0.83421  0.17924  0.64706  1.0000
  H   H7698     1.0  0.98032  0.17706  0.58975  1.0000
  C   C4346     1.0  0.97374  0.13314  0.75548  1.0000
  H   H7699     1.0  0.97264  0.14708  0.74767  1.0000
  H   H7700     1.0  0.82002  0.40744  0.78161  1.0000
  H   H7701     1.0  0.80019  0.22077  0.81847  1.0000
  H   H7702     1.0  0.83730  0.12844  0.89562  1.0000
  H   H7703     1.0  0.79603  0.47385  0.89980  1.0000
  S   S979      1.0  0.97501  0.36890  0.56183  1.0000
  H   H7704     1.0  0.80671  0.09774  0.73463  1.0000
  H   H7705     1.0  0.98393  0.12054  0.66401  1.0000
  C   C4347     1.0  0.92851  0.42274  0.87179  1.0000
  H   H7706     1.0  0.79765  0.32243  0.55377  1.0000
  C   C4348     1.0  0.80791  0.17445  0.64409  1.0000
  C   C4349     1.0  0.82909  0.17322  0.63802  1.0000
  C   C4350     1.0  0.95799  0.39480  0.89021  1.0000
  C   C4351     1.0  0.96993  0.99976  0.72147  1.0000
  H   H7707     1.0  0.83276  0.14278  0.91218  1.0000
  N   N244      1.0  0.86358  0.41492  0.57694  1.0000
  C   C4352     1.0  0.84670  0.40965  0.57444  1.0000
  C   C4353     1.0  0.87810  0.39793  0.58147  1.0000
  C   C4354     1.0  0.85761  0.42444  0.59318  1.0000
  C   C4355     1.0  0.87140  0.42823  0.56038  1.0000
  C   C4356     1.0  0.87672  0.42216  0.54161  1.0000
  C   C4357     1.0  0.83054  0.42576  0.56992  1.0000
  C   C4358     1.0  0.87341  0.42785  0.60060  1.0000
  C   C4359     1.0  0.88042  0.38181  0.57166  1.0000
  C   C4360     1.0  0.89752  0.36713  0.57527  1.0000
  C   C4361     1.0  0.87958  0.43842  0.52563  1.0000
  C   C4362     1.0  0.78754  0.18582  0.89708  1.0000
  C   C4363     1.0  0.86559  0.43869  0.61601  1.0000
  H   H7708     1.0  0.84116  0.40021  0.58716  1.0000
  H   H7709     1.0  0.85016  0.40167  0.56339  1.0000
  H   H7710     1.0  0.89185  0.40174  0.57889  1.0000
  H   H7711     1.0  0.87494  0.39172  0.59644  1.0000
  H   H7712     1.0  0.84908  0.41641  0.60499  1.0000
  H   H7713     1.0  0.84850  0.43810  0.58972  1.0000
  H   H7714     1.0  0.86177  0.44182  0.55902  1.0000
  H   H7715     1.0  0.88423  0.43117  0.56234  1.0000
  H   H7716     1.0  0.86601  0.41609  0.53924  1.0000
  H   H7717     1.0  0.89001  0.41205  0.54085  1.0000
  H   H7718     1.0  0.82458  0.43295  0.58161  1.0000
  H   H7719     1.0  0.83514  0.43587  0.55749  1.0000
  H   H7720     1.0  0.88256  0.43578  0.58966  1.0000
  H   H7721     1.0  0.88201  0.41472  0.60633  1.0000
  H   H7722     1.0  0.86826  0.37510  0.57702  1.0000
  H   H7723     1.0  0.88174  0.38635  0.55661  1.0000
  H   H7724     1.0  0.91012  0.37316  0.57054  1.0000
  H   H7725     1.0  0.89611  0.36095  0.59018  1.0000
  H   H7726     1.0  0.89927  0.35608  0.56760  1.0000
  H   H7727     1.0  0.89054  0.44493  0.52688  1.0000
  H   H7728     1.0  0.88390  0.43358  0.51240  1.0000
  H   H7729     1.0  0.86656  0.44886  0.52531  1.0000
  H   H7730     1.0  0.97088  0.40933  0.91310  1.0000
  H   H7731     1.0  0.96303  0.00713  0.70973  1.0000
  H   H7732     1.0  0.80656  0.39621  0.76117  1.0000
  H   H7733     1.0  0.87706  0.44122  0.62093  1.0000
  H   H7734     1.0  0.85720  0.45219  0.61082  1.0000
  H   H7735     1.0  0.85683  0.43099  0.62775  1.0000
  N   N245      1.0  0.94933  0.22850  0.56743  1.0000
  C   C4364     1.0  0.95366  0.24487  0.57191  1.0000
  C   C4365     1.0  0.95583  0.22847  0.54707  1.0000
  C   C4366     1.0  0.92854  0.23051  0.57196  1.0000
  C   C4367     1.0  0.95741  0.21056  0.57886  1.0000
  C   C4368     1.0  0.94607  0.24763  0.59205  1.0000
  C   C4369     1.0  0.92061  0.21733  0.56494  1.0000
  C   C4370     1.0  0.95281  0.26333  0.59562  1.0000
  C   C4371     1.0  0.90978  0.46346  0.57760  1.0000
  H   H7736     1.0  0.94806  0.25771  0.56268  1.0000
  H   H7737     1.0  0.96873  0.24433  0.56897  1.0000
  C   C4372     1.0  0.96891  0.40661  0.49022  1.0000
  H   H7738     1.0  0.94538  0.23776  0.53923  1.0000
  H   H7739     1.0  0.92186  0.24479  0.56619  1.0000
  H   H7740     1.0  0.92333  0.22839  0.58712  1.0000
  H   H7741     1.0  0.95043  0.20955  0.59360  1.0000
  H   H7742     1.0  0.95458  0.19877  0.57481  1.0000
  H   H7743     1.0  0.93075  0.25124  0.59490  1.0000
  H   H7744     1.0  0.95057  0.23508  0.60204  1.0000
  H   H7745     1.0  0.92724  0.20277  0.56912  1.0000
  H   H7746     1.0  0.92262  0.22074  0.54969  1.0000
  H   H7747     1.0  0.81985  0.41253  0.55378  1.0000
  C   C4373     1.0  0.78833  0.26117  0.84426  1.0000
  H   H7748     1.0  0.96788  0.25947  0.59524  1.0000
  H   H7749     1.0  0.94975  0.27610  0.58523  1.0000
  H   H7750     1.0  0.94578  0.26608  0.60950  1.0000
  H   H7751     1.0  0.81055  0.45029  0.68494  1.0000
  H   H7752     1.0  0.86977  0.44989  0.65799  1.0000
  C   C4374     1.0  0.92644  0.24009  0.48064  1.0000
  N   N246      1.0  0.83962  0.31986  0.87642  1.0000
  C   C4375     1.0  0.85750  0.32460  0.87703  1.0000
  C   C4376     1.0  0.82710  0.31930  0.89520  1.0000
  C   C4377     1.0  0.84410  0.30067  0.87255  1.0000
  C   C4378     1.0  0.83007  0.33293  0.86168  1.0000
  C   C4379     1.0  0.83285  0.35313  0.85662  1.0000
  C   C4380     1.0  0.87340  0.32177  0.86016  1.0000
  C   C4381     1.0  0.82734  0.29202  0.87391  1.0000
  C   C4382     1.0  0.82145  0.33728  0.90260  1.0000
  C   C4383     1.0  0.81012  0.33444  0.92225  1.0000
  C   C4384     1.0  0.91307  0.42511  0.86147  1.0000
  C   C4385     1.0  0.88896  0.33139  0.85934  1.0000
  C   C4386     1.0  0.83334  0.27479  0.86558  1.0000
  H   H7753     1.0  0.86273  0.31614  0.88947  1.0000
  H   H7754     1.0  0.85540  0.33895  0.87877  1.0000
  H   H7755     1.0  0.81387  0.31564  0.89529  1.0000
  H   H7756     1.0  0.83365  0.30830  0.90554  1.0000
  H   H7757     1.0  0.85266  0.29110  0.88215  1.0000
  H   H7758     1.0  0.85266  0.30039  0.85849  1.0000
  H   H7759     1.0  0.83467  0.32791  0.84848  1.0000
  H   H7760     1.0  0.81492  0.33324  0.86556  1.0000
  H   H7761     1.0  0.84716  0.35391  0.84903  1.0000
  C   C4387     1.0  0.97994  0.16681  0.64966  1.0000
  H   H7762     1.0  0.87949  0.30687  0.86108  1.0000
  H   H7763     1.0  0.86833  0.32700  0.84708  1.0000
  H   H7764     1.0  0.81687  0.30184  0.86663  1.0000
  H   H7765     1.0  0.82078  0.28775  0.88858  1.0000
  H   H7766     1.0  0.83368  0.34242  0.90287  1.0000
  H   H7767     1.0  0.81258  0.34782  0.89402  1.0000
  H   H7768     1.0  0.81491  0.15721  0.88743  1.0000
  H   H7769     1.0  0.86024  0.23028  0.49955  1.0000
  C   C4388     1.0  0.95594  0.37972  0.88106  1.0000
  H   H7770     1.0  0.84664  0.06249  0.61201  1.0000
  H   H7771     1.0  0.79150  0.03454  0.57588  1.0000
  C   C4389     1.0  0.79423  0.15372  0.91341  1.0000
  H   H7772     1.0  0.89969  0.32968  0.84673  1.0000
  H   H7773     1.0  0.88365  0.34633  0.85899  1.0000
  H   H7774     1.0  0.89552  0.32517  0.87146  1.0000
  H   H7775     1.0  0.84384  0.26457  0.87255  1.0000
  H   H7776     1.0  0.82124  0.26845  0.86738  1.0000
  H   H7777     1.0  0.83928  0.27824  0.85063  1.0000
  N   N247      1.0  0.84099  0.13967  0.74008  1.0000
  C   C4390     1.0  0.83688  0.15182  0.72216  1.0000
  C   C4391     1.0  0.83011  0.14904  0.75574  1.0000
  C   C4392     1.0  0.86126  0.13793  0.73976  1.0000
  C   C4393     1.0  0.83715  0.12059  0.74305  1.0000
  C   C4394     1.0  0.82130  0.11864  0.73474  1.0000
  C   C4395     1.0  0.84982  0.14602  0.70455  1.0000
  C   C4396     1.0  0.86784  0.12785  0.75798  1.0000
  C   C4397     1.0  0.80883  0.15334  0.75817  1.0000
  C   C4398     1.0  0.79994  0.16471  0.77304  1.0000
  H   H7778     1.0  0.94323  0.42656  0.48904  1.0000
  C   C4399     1.0  0.84148  0.15466  0.68747  1.0000
  C   C4400     1.0  0.88889  0.12245  0.75483  1.0000
  H   H7779     1.0  0.83787  0.16622  0.72161  1.0000
  H   H7780     1.0  0.82244  0.15279  0.72106  1.0000
  H   H7781     1.0  0.83292  0.14049  0.76917  1.0000
  H   H7782     1.0  0.83462  0.16220  0.75428  1.0000
  H   H7783     1.0  0.86498  0.15176  0.73593  1.0000
  H   H7784     1.0  0.86999  0.13037  0.72893  1.0000
  H   H7785     1.0  0.84966  0.11110  0.73717  1.0000
  H   H7786     1.0  0.83424  0.11450  0.75804  1.0000
  H   H7787     1.0  0.82542  0.12069  0.71952  1.0000
  H   H7788     1.0  0.90226  0.02333  0.73905  1.0000
  H   H7789     1.0  0.86320  0.15042  0.70217  1.0000
  H   H7790     1.0  0.85280  0.13094  0.70600  1.0000
  H   H7791     1.0  0.86226  0.11513  0.76410  1.0000
  H   H7792     1.0  0.86327  0.13702  0.76812  1.0000
  H   H7793     1.0  0.80417  0.16134  0.74538  1.0000
  H   H7794     1.0  0.80345  0.14041  0.76269  1.0000
  H   H7795     1.0  0.81075  0.09743  0.75687  1.0000
  H   H7796     1.0  0.79204  0.42603  0.76852  1.0000
  H   H7797     1.0  0.97449  0.08568  0.91593  1.0000
  C   C4401     1.0  0.93973  0.45179  0.64759  1.0000
  H   H7798     1.0  0.93048  0.45506  0.75017  1.0000
  C   C4402     1.0  0.80343  0.41320  0.67359  1.0000
  H   H7799     1.0  0.82869  0.14961  0.68868  1.0000
  H   H7800     1.0  0.83827  0.16988  0.68552  1.0000
  H   H7801     1.0  0.85160  0.15069  0.67521  1.0000
  H   H7802     1.0  0.89522  0.13465  0.74808  1.0000
  H   H7803     1.0  0.89327  0.11643  0.76821  1.0000
  H   H7804     1.0  0.89403  0.11197  0.74603  1.0000
  H   H7805     1.0  0.97689  0.97493  0.95362  1.0000
  H   H7806     1.0  0.83336  0.19715  0.96610  1.0000
  H   H7807     1.0  0.98216  0.98291  0.69110  1.0000
  H   H7808     1.0  0.85443  0.15254  0.63519  1.0000
  H   H7809     1.0  0.95723  0.11801  0.90888  1.0000
  C   C4403     1.0  0.97523  0.14999  0.65941  1.0000
  H   H7810     1.0  0.83611  0.41674  0.76178  1.0000
  C   C4404     1.0  0.81979  0.36534  0.84421  1.0000
  S   S980      1.0  0.96441  0.45230  0.55508  1.0000
  H   H7811     1.0  0.80549  0.16614  0.65823  1.0000
  H   H7812     1.0  0.81906  0.20439  0.68225  1.0000
  C   C4405     1.0  0.78932  0.12249  0.51393  1.0000
  S   S981      1.0  0.80846  0.08206  0.67491  1.0000
  C   C4406     1.0  0.93333  0.46528  0.73721  1.0000
  H   H7813     1.0  0.81035  0.39930  0.67982  1.0000
  H   H7814     1.0  0.82280  0.37941  0.83992  1.0000
  H   H7815     1.0  0.79681  0.02159  0.60730  1.0000
  H   H7816     1.0  0.96675  0.30704  0.90262  1.0000
  H   H7817     1.0  0.96202  0.45250  0.73113  1.0000
  H   H7818     1.0  0.80512  0.13707  0.89204  1.0000
  S   S982      1.0  0.97534  0.15000  0.86567  1.0000
  C   C4407     1.0  0.83392  0.32542  0.48403  1.0000
  H   H7819     1.0  0.96696  0.04845  0.74046  1.0000
  H   H7820     1.0  0.89263  0.23363  0.56958  1.0000
  H   H7821     1.0  0.80306  0.15698  0.78663  1.0000
  H   H7822     1.0  0.94864  0.45557  0.63395  1.0000
  C   C4408     1.0  0.79005  0.46250  0.89842  1.0000
  H   H7823     1.0  0.80474  0.17794  0.76942  1.0000
  Fe  Fe492     1.0  0.79434  0.22728  0.51023  1.0000
  C   C4409     1.0  0.80172  0.45684  0.88021  1.0000
  H   H7824     1.0  0.81344  0.41907  0.66169  1.0000
  H   H7825     1.0  0.81038  0.42741  0.90279  1.0000
  H   H7826     1.0  0.78910  0.37484  0.66470  1.0000
  H   H7827     1.0  0.90056  0.45064  0.66168  1.0000
  H   H7828     1.0  0.96262  0.17682  0.83089  1.0000
  H   H7829     1.0  0.90046  0.21577  0.48202  1.0000
  H   H7830     1.0  0.82550  0.98156  0.64503  1.0000
  H   H7831     1.0  0.97309  0.35909  0.86575  1.0000
  C   C4410     1.0  0.78646  0.41451  0.61348  1.0000
  Fe  Fe493     1.0  0.79353  0.44497  0.80498  1.0000
  H   H7832     1.0  0.97001  0.09244  0.88443  1.0000
  H   H7833     1.0  0.84043  0.22418  0.94280  1.0000
  S   S983      1.0  0.79131  0.44917  0.83347  1.0000
  H   H7834     1.0  0.91752  0.23258  0.49238  1.0000
  H   H7835     1.0  0.94855  0.44577  0.92401  1.0000
  H   H7836     1.0  0.93039  0.00548  0.75064  1.0000
  H   H7837     1.0  0.94907  0.36922  0.89129  1.0000
  C   C4411     1.0  0.94782  0.41179  0.49492  1.0000
  C   C4412     1.0  0.80320  0.02283  0.57821  1.0000
  C   C4413     1.0  0.87391  0.22090  0.49965  1.0000
  H   H7838     1.0  0.96978  0.13595  0.90560  1.0000
  H   H7839     1.0  0.94352  0.43204  0.67304  1.0000
  H   H7840     1.0  0.97518  0.05700  0.92852  1.0000
  H   H7841     1.0  0.80991  0.28715  0.58300  1.0000
  H   H7842     1.0  0.83768  0.99268  0.62421  1.0000
  H   H7843     1.0  0.91479  0.04080  0.72517  1.0000
  C   C4414     1.0  0.97609  0.30373  0.88973  1.0000
  H   H7844     1.0  0.81527  0.02155  0.62447  1.0000
  C   C4415     1.0  0.89335  0.46283  0.65305  1.0000
  H   H7845     1.0  0.80000  0.01116  0.64440  1.0000
  H   H7846     1.0  0.80715  0.29436  0.54229  1.0000
  H   H7847     1.0  0.98140  0.30952  0.95469  1.0000
  H   H7848     1.0  0.94175  0.41749  0.86299  1.0000
  H   H7849     1.0  0.96356  0.01099  0.76398  1.0000
  C   C4416     1.0  0.98139  0.23006  0.51843  1.0000
  H   H7850     1.0  0.78653  0.37756  0.54183  1.0000
  C   C4417     1.0  0.80021  0.42624  0.75426  1.0000
  H   H7851     1.0  0.97068  0.43371  0.92925  1.0000
  H   H7852     1.0  0.89721  0.46127  0.63851  1.0000
  H   H7853     1.0  0.78565  0.99836  0.63133  1.0000
  H   H7854     1.0  0.98421  0.21492  0.51973  1.0000
  H   H7855     1.0  0.97260  0.97440  0.78451  1.0000
  H   H7856     1.0  0.78791  0.26301  0.85829  1.0000
  C   C4418     1.0  0.78691  0.22223  0.61781  1.0000
  H   H7857     1.0  0.97319  0.29468  0.86595  1.0000
  H   H7858     1.0  0.79164  0.21810  0.65376  1.0000
  H   H7859     1.0  0.81442  0.20738  0.62025  1.0000
  H   H7860     1.0  0.78580  0.44719  0.94513  1.0000
  H   H7861     1.0  0.97565  0.08378  0.78468  1.0000
  C   C4419     1.0  0.98136  0.12815  0.77130  1.0000
  H   H7862     1.0  0.79527  0.38173  0.55982  1.0000
  H   H7863     1.0  0.92451  0.25428  0.48274  1.0000
  H   H7864     1.0  0.98095  0.03194  0.71376  1.0000
  H   H7865     1.0  0.97617  0.01438  0.84670  1.0000
  C   C4420     1.0  0.98168  0.02428  0.72811  1.0000
  H   H7866     1.0  0.97749  0.19197  0.69768  1.0000
  H   H7867     1.0  0.78566  0.97918  0.57853  1.0000
  H   H7868     1.0  0.78693  0.97900  0.62225  1.0000
  Fe  Fe494     1.0  0.78743  0.10613  0.68374  1.0000
  C   C4421     1.0  0.78845  0.18825  0.58438  1.0000
  H   H7869     1.0  0.81465  0.20583  0.65093  1.0000
  S   S984      1.0  0.78908  0.25796  0.50800  1.0000
  H   H7870     1.0  0.78926  0.34832  0.65200  1.0000
  C   C4422     1.0  0.79392  0.23205  0.59820  1.0000
  H   H7871     1.0  0.98292  0.30631  0.92273  1.0000
  C   C4423     1.0  0.80383  0.20593  0.68672  1.0000
  H   H7872     1.0  0.80057  0.20005  0.70171  1.0000
  C   C4424     1.0  0.98233  0.11023  0.78162  1.0000
  C   C4425     1.0  0.80049  0.20391  0.62333  1.0000
  H   H7873     1.0  0.98043  0.31647  0.88110  1.0000
  H   H7874     1.0  0.98155  0.38020  0.86053  1.0000
  H   H7875     1.0  0.79292  0.40242  0.62212  1.0000
  H   H7876     1.0  0.80737  0.23579  0.59706  1.0000
  H   H7877     1.0  0.79565  0.22316  0.58822  1.0000
  C   C4426     1.0  0.80008  0.20394  0.65530  1.0000
  N   N248      1.0  0.79601  0.19351  0.64297  1.0000
  C   C4427     1.0  0.79121  0.43150  0.61165  1.0000
  H   H7878     1.0  0.79731  0.22077  0.68448  1.0000
  H   H7879     1.0  0.98466  0.99172  0.78515  1.0000
  H   H7880     1.0  0.78514  0.23182  0.62708  1.0000
  C   C4428     1.0  0.98499  0.98061  0.77809  1.0000
  H   H7881     1.0  0.98508  0.22981  0.54533  1.0000
  C   C4429     1.0  0.98385  0.45313  0.47336  1.0000
  H   H7882     1.0  0.90414  0.47382  0.60244  1.0000
  H   H7883     1.0  0.78577  0.13192  0.50114  1.0000
  C   C4430     1.0  0.83874  0.47381  0.76303  1.0000
  H   H7884     1.0  0.97877  0.47333  0.68201  1.0000
  H   H7885     1.0  0.98509  0.27578  0.56859  1.0000
  C   C4431     1.0  0.78642  0.41210  0.66712  1.0000
  Fe  Fe495     1.0  0.96102  0.65871  0.29939  1.0000
  S   S985      1.0  0.95689  0.63481  0.32280  1.0000
  S   S986      1.0  0.95458  0.66217  0.27133  1.0000
  Fe  Fe496     1.0  0.78553  0.75282  0.01928  1.0000
  H   H7886     1.0  0.90683  0.94206  0.13559  1.0000
  C   C4432     1.0  0.93143  0.92600  0.07494  1.0000
  H   H7887     1.0  0.83833  0.85125  0.37000  1.0000
  H   H7888     1.0  0.84508  0.93073  0.07779  1.0000
  Fe  Fe497     1.0  0.94696  0.65593  0.34061  1.0000
  S   S987      1.0  0.92220  0.65343  0.36388  1.0000
  S   S988      1.0  0.81205  0.77329  0.40113  1.0000
  S   S989      1.0  0.94888  0.67992  0.31691  1.0000
  S   S990      1.0  0.94128  0.51446  0.13878  1.0000
  C   C4433     1.0  0.94289  0.86562  0.41505  1.0000
  S   S991      1.0  0.84771  0.70963  0.02376  1.0000
  C   C4434     1.0  0.83376  0.94568  0.38074  1.0000
  H   H7889     1.0  0.96427  0.51859  0.45898  1.0000
  H   H7890     1.0  0.84568  0.64208  0.08052  1.0000
  Fe  Fe498     1.0  0.95558  0.74619  0.01687  1.0000
  S   S992      1.0  0.93097  0.76341  0.03190  1.0000
  S   S993      1.0  0.79590  0.62830  0.11359  1.0000
  Fe  Fe499     1.0  0.91961  0.76947  0.00628  1.0000
  S   S994      1.0  0.88923  0.77548  0.00601  1.0000
  Fe  Fe500     1.0  0.94555  0.78670  0.01779  1.0000
  S   S995      1.0  0.94164  0.80769  0.03513  1.0000
  H   H7891     1.0  0.93693  0.48059  0.06061  1.0000
  H   H7892     1.0  0.80511  0.75235  0.09788  1.0000
  Fe  Fe501     1.0  0.92395  0.58250  0.20453  1.0000
  S   S996      1.0  0.91372  0.60575  0.18264  1.0000
  S   S997      1.0  0.94045  0.55399  0.20243  1.0000
  Fe  Fe502     1.0  0.91211  0.60547  0.23386  1.0000
  S   S998      1.0  0.90107  0.63067  0.21478  1.0000
  S   S999      1.0  0.91128  0.60524  0.26348  1.0000
  Fe  Fe503     1.0  0.88894  0.61213  0.20486  1.0000
  S   S1000     1.0  0.86086  0.62655  0.19880  1.0000
  Fe  Fe504     1.0  0.92640  0.62270  0.19408  1.0000
  S   S1001     1.0  0.93904  0.64612  0.17602  1.0000
  S   S1002     1.0  0.89788  0.58722  0.22590  1.0000
  S   S1003     1.0  0.93880  0.59912  0.21410  1.0000
  Fe  Fe505     1.0  0.82478  0.71360  0.38127  1.0000
  S   S1004     1.0  0.80323  0.73909  0.37612  1.0000
  S   S1005     1.0  0.84694  0.70958  0.35614  1.0000
  Fe  Fe506     1.0  0.80817  0.70552  0.42232  1.0000
  H   H7893     1.0  0.96125  0.95435  0.34941  1.0000
  S   S1006     1.0  0.81321  0.68800  0.44974  1.0000
  N   N249      1.0  0.97252  0.57928  0.29600  1.0000
  Fe  Fe507     1.0  0.80772  0.74499  0.40170  1.0000
  H   H7894     1.0  0.90353  0.96689  0.13040  1.0000
  S   S1007     1.0  0.80456  0.69591  0.39818  1.0000
  S   S1008     1.0  0.83055  0.72058  0.40558  1.0000
  H   H7895     1.0  0.90894  0.87458  0.04642  1.0000
  C   C4435     1.0  0.83154  0.59952  0.14629  1.0000
  C   C4436     1.0  0.97650  0.95131  0.34786  1.0000
  H   H7896     1.0  0.83362  0.60863  0.26788  1.0000
  H   H7897     1.0  0.88562  0.78263  0.41192  1.0000
  Fe  Fe508     1.0  0.83222  0.94854  0.13083  1.0000
  S   S1009     1.0  0.82185  0.92206  0.13659  1.0000
  H   H7898     1.0  0.95401  0.87971  0.44933  1.0000
  C   C4437     1.0  0.81017  0.85934  0.36438  1.0000
  S   S1010     1.0  0.93245  0.79407  0.99315  1.0000
  H   H7899     1.0  0.81865  0.63243  0.15892  1.0000
  H   H7900     1.0  0.97412  0.97362  0.19729  1.0000
  H   H7901     1.0  0.95595  0.50138  0.17229  1.0000
  C   C4438     1.0  0.92652  0.91013  0.08684  1.0000
  H   H7902     1.0  0.86298  0.75399  0.97661  1.0000
  H   H7903     1.0  0.81173  0.65415  0.27266  1.0000
  H   H7904     1.0  0.93241  0.49952  0.43044  1.0000
  H   H7905     1.0  0.85539  0.96212  0.06156  1.0000
  Fe  Fe509     1.0  0.95642  0.77406  0.98112  1.0000
  C   C4439     1.0  0.85859  0.61348  0.24856  1.0000
  C   C4440     1.0  0.95948  0.83720  0.44013  1.0000
  Fe  Fe510     1.0  0.90046  0.82428  0.44887  1.0000
  H   H7906     1.0  0.82098  0.59972  0.24812  1.0000
  S   S1011     1.0  0.93026  0.81978  0.45109  1.0000
  Fe  Fe511     1.0  0.87007  0.80443  0.44998  1.0000
  S   S1012     1.0  0.84860  0.83038  0.44761  1.0000
  S   S1013     1.0  0.86396  0.77647  0.45270  1.0000
  Fe  Fe512     1.0  0.87091  0.84235  0.42637  1.0000
  S   S1014     1.0  0.86714  0.85963  0.39870  1.0000
  H   H7907     1.0  0.85078  0.66463  0.07651  1.0000
  S   S1015     1.0  0.89155  0.81574  0.42707  1.0000
  H   H7908     1.0  0.97252  0.95512  0.97141  1.0000
  H   H7909     1.0  0.79838  0.68330  0.06498  1.0000
  H   H7910     1.0  0.85301  0.88997  0.13768  1.0000
  H   H7911     1.0  0.87600  0.87257  0.06041  1.0000
  C   C4441     1.0  0.94354  0.48720  0.42890  1.0000
  S   S1016     1.0  0.80726  0.73934  0.99822  1.0000
  H   H7912     1.0  0.82152  0.83823  0.39598  1.0000
  C   C4442     1.0  0.81084  0.89750  0.39676  1.0000
  C   C4443     1.0  0.82456  0.89700  0.38080  1.0000
  C   C4444     1.0  0.84189  0.88550  0.38161  1.0000
  C   C4445     1.0  0.84559  0.87450  0.39836  1.0000
  C   C4446     1.0  0.83204  0.87538  0.41443  1.0000
  C   C4447     1.0  0.81468  0.88692  0.41363  1.0000
  H   H7913     1.0  0.82189  0.90553  0.36783  1.0000
  H   H7914     1.0  0.85247  0.88507  0.36921  1.0000
  H   H7915     1.0  0.83491  0.86715  0.42745  1.0000
  C   C4448     1.0  0.79662  0.65367  0.24421  1.0000
  C   C4449     1.0  0.80815  0.97344  0.22822  1.0000
  H   H7916     1.0  0.85047  0.88048  0.08542  1.0000
  C   C4450     1.0  0.93362  0.85142  0.42509  1.0000
  H   H7917     1.0  0.81221  0.94490  0.10241  1.0000
  H   H7918     1.0  0.82039  0.95444  0.27028  1.0000
  C   C4451     1.0  0.81035  0.91879  0.12074  1.0000
  H   H7919     1.0  0.93731  0.94012  0.14342  1.0000
  H   H7920     1.0  0.84008  0.57596  0.16734  1.0000
  C   C4452     1.0  0.97875  0.51081  0.45770  1.0000
  H   H7921     1.0  0.78713  0.70907  0.36205  1.0000
  H   H7922     1.0  0.95418  0.60043  0.30971  1.0000
  C   C4453     1.0  0.82697  0.63419  0.24746  1.0000
  H   H7923     1.0  0.80335  0.84934  0.43335  1.0000
  H   H7924     1.0  0.81127  0.65233  0.08136  1.0000
  H   H7925     1.0  0.95281  0.55625  0.25357  1.0000
  H   H7926     1.0  0.79518  0.81899  0.38707  1.0000
  C   C4454     1.0  0.96065  0.81749  0.03329  1.0000
  H   H7927     1.0  0.97534  0.48222  0.32546  1.0000
  C   C4455     1.0  0.82708  0.77386  0.41501  1.0000
  C   C4456     1.0  0.83351  0.75815  0.42737  1.0000
  C   C4457     1.0  0.84485  0.75904  0.43888  1.0000
  C   C4458     1.0  0.84999  0.77561  0.43794  1.0000
  C   C4459     1.0  0.84405  0.79120  0.42519  1.0000
  C   C4460     1.0  0.83256  0.79032  0.41382  1.0000
  H   H7928     1.0  0.82956  0.74536  0.42827  1.0000
  H   H7929     1.0  0.84953  0.74690  0.44861  1.0000
  C   C4461     1.0  0.95827  0.83191  0.04238  1.0000
  C   C4462     1.0  0.81982  0.65992  0.14523  1.0000
  C   C4463     1.0  0.96243  0.64095  0.16583  1.0000
  H   H7930     1.0  0.80485  0.83756  0.18992  1.0000
  H   H7931     1.0  0.80405  0.55368  0.13201  1.0000
  H   H7932     1.0  0.79069  0.63797  0.02318  1.0000
  H   H7933     1.0  0.96144  0.66749  0.14774  1.0000
  H   H7934     1.0  0.91845  0.72518  0.98244  1.0000
  H   H7935     1.0  0.94085  0.79185  0.09854  1.0000
  H   H7936     1.0  0.81910  0.88454  0.07272  1.0000
  H   H7937     1.0  0.87921  0.96305  0.05951  1.0000
  C   C4464     1.0  0.96061  0.96626  0.07403  1.0000
  C   C4465     1.0  0.96976  0.91053  0.44463  1.0000
  S   S1017     1.0  0.93911  0.88828  0.08364  1.0000
  H   H7938     1.0  0.86685  0.70875  0.98092  1.0000
  C   C4466     1.0  0.93887  0.97318  0.21388  1.0000
  C   C4467     1.0  0.85939  0.72771  0.01936  1.0000
  C   C4468     1.0  0.87853  0.72411  0.01827  1.0000
  C   C4469     1.0  0.88790  0.73870  0.01434  1.0000
  C   C4470     1.0  0.87809  0.75684  0.01144  1.0000
  C   C4471     1.0  0.85895  0.76034  0.01265  1.0000
  C   C4472     1.0  0.84962  0.74583  0.01658  1.0000
  H   H7939     1.0  0.88610  0.71006  0.02046  1.0000
  H   H7940     1.0  0.90267  0.73593  0.01352  1.0000
  H   H7941     1.0  0.85127  0.77430  0.01040  1.0000
  H   H7942     1.0  0.83486  0.74871  0.01741  1.0000
  C   C4473     1.0  0.81851  0.59392  0.19872  1.0000
  C   C4474     1.0  0.83522  0.58458  0.20409  1.0000
  C   C4475     1.0  0.84844  0.59440  0.20426  1.0000
  C   C4476     1.0  0.84486  0.61356  0.19913  1.0000
  C   C4477     1.0  0.82804  0.62285  0.19412  1.0000
  C   C4478     1.0  0.81483  0.61307  0.19412  1.0000
  H   H7943     1.0  0.83806  0.56972  0.20779  1.0000
  H   H7944     1.0  0.86142  0.58715  0.20818  1.0000
  H   H7945     1.0  0.82528  0.63767  0.19004  1.0000
  H   H7946     1.0  0.85971  0.87469  0.11133  1.0000
  H   H7947     1.0  0.94320  0.92489  0.06364  1.0000
  H   H7948     1.0  0.97494  0.83356  0.39888  1.0000
  C   C4479     1.0  0.94020  0.52497  0.15711  1.0000
  C   C4480     1.0  0.94893  0.51557  0.17176  1.0000
  C   C4481     1.0  0.94880  0.52464  0.18562  1.0000
  C   C4482     1.0  0.93961  0.54299  0.18514  1.0000
  C   C4483     1.0  0.93066  0.55233  0.17064  1.0000
  C   C4484     1.0  0.93113  0.54338  0.15655  1.0000
  H   H7949     1.0  0.95574  0.51735  0.19684  1.0000
  H   H7950     1.0  0.92349  0.56645  0.17022  1.0000
  H   H7951     1.0  0.92435  0.55068  0.14524  1.0000
  H   H7952     1.0  0.90744  0.89934  0.11059  1.0000
  H   H7953     1.0  0.87189  0.87053  0.13949  1.0000
  C   C4485     1.0  0.90149  0.66953  0.36195  1.0000
  C   C4486     1.0  0.88610  0.66859  0.37649  1.0000
  C   C4487     1.0  0.86931  0.68109  0.37509  1.0000
  C   C4488     1.0  0.86793  0.69457  0.35913  1.0000
  C   C4489     1.0  0.88336  0.69569  0.34474  1.0000
  C   C4490     1.0  0.90006  0.68316  0.34609  1.0000
  H   H7954     1.0  0.88713  0.65807  0.38881  1.0000
  H   H7955     1.0  0.85740  0.68011  0.38622  1.0000
  H   H7956     1.0  0.88234  0.70624  0.33245  1.0000
  H   H7957     1.0  0.91174  0.68400  0.33481  1.0000
  C   C4491     1.0  0.92376  0.62074  0.26540  1.0000
  C   C4492     1.0  0.93052  0.63322  0.24994  1.0000
  C   C4493     1.0  0.93972  0.64612  0.25190  1.0000
  C   C4494     1.0  0.94271  0.64618  0.26918  1.0000
  C   C4495     1.0  0.93607  0.63357  0.28454  1.0000
  C   C4496     1.0  0.92647  0.62098  0.28271  1.0000
  H   H7958     1.0  0.92836  0.63319  0.23653  1.0000
  H   H7959     1.0  0.94442  0.65611  0.23999  1.0000
  H   H7960     1.0  0.93789  0.63379  0.29791  1.0000
  H   H7961     1.0  0.92092  0.61161  0.29475  1.0000
  H   H7962     1.0  0.86187  0.62359  0.11276  1.0000
  S   S1018     1.0  0.80249  0.58154  0.19757  1.0000
  H   H7963     1.0  0.94475  0.83715  0.04993  1.0000
  C   C4497     1.0  0.82383  0.63916  0.14458  1.0000
  H   H7964     1.0  0.88744  0.92900  0.06714  1.0000
  H   H7965     1.0  0.83659  0.69982  0.98994  1.0000
  C   C4498     1.0  0.90550  0.94485  0.09194  1.0000
  C   C4499     1.0  0.90070  0.92897  0.10393  1.0000
  C   C4500     1.0  0.91115  0.91163  0.10131  1.0000
  H   H7966     1.0  0.85119  0.91044  0.10673  1.0000
  H   H7967     1.0  0.88894  0.93004  0.11521  1.0000
  H   H7968     1.0  0.80172  0.62038  0.19074  1.0000
  H   H7969     1.0  0.95501  0.48555  0.37433  1.0000
  H   H7970     1.0  0.84565  0.81171  0.00387  1.0000
  H   H7971     1.0  0.86790  0.60484  0.25785  1.0000
  C   C4501     1.0  0.94630  0.48301  0.40978  1.0000
  C   C4502     1.0  0.80683  0.84553  0.39720  1.0000
  S   S1019     1.0  0.78777  0.70746  0.97901  1.0000
  H   H7972     1.0  0.96231  0.97139  0.29772  1.0000
  C   C4503     1.0  0.95524  0.58790  0.14595  1.0000
  H   H7973     1.0  0.84223  0.62772  0.26977  1.0000
  C   C4504     1.0  0.80418  0.83514  0.43172  1.0000
  H   H7974     1.0  0.93962  0.50905  0.06868  1.0000
  H   H7975     1.0  0.88537  0.72798  0.97725  1.0000
  C   C4505     1.0  0.94504  0.60716  0.13858  1.0000
  H   H7976     1.0  0.96540  0.80271  0.42420  1.0000
  H   H7977     1.0  0.81676  0.71739  0.08166  1.0000
  H   H7978     1.0  0.78921  0.69725  0.33417  1.0000
  H   H7979     1.0  0.80171  0.66629  0.24353  1.0000
  C   C4506     1.0  0.83728  0.94583  0.24580  1.0000
  C   C4507     1.0  0.89645  0.88943  0.46340  1.0000
  H   H7980     1.0  0.81468  0.95501  0.19847  1.0000
  H   H7981     1.0  0.96349  0.96476  0.12665  1.0000
  C   C4508     1.0  0.88191  0.89527  0.06937  1.0000
  H   H7982     1.0  0.81030  0.66164  0.01199  1.0000
  C   C4509     1.0  0.79867  0.92894  0.09236  1.0000
  Fe  Fe513     1.0  0.96847  0.88804  0.06809  1.0000
  H   H7983     1.0  0.95101  0.58529  0.16118  1.0000
  H   H7984     1.0  0.95040  0.57802  0.14080  1.0000
  H   H7985     1.0  0.79673  0.68271  0.14886  1.0000
  H   H7986     1.0  0.97024  0.54851  0.14887  1.0000
  C   C4510     1.0  0.97973  0.71926  0.04818  1.0000
  H   H7987     1.0  0.78834  0.75480  0.07430  1.0000
  H   H7988     1.0  0.97116  0.56220  0.17226  1.0000
  S   S1020     1.0  0.78550  0.73059  0.42028  1.0000
  H   H7989     1.0  0.91434  0.86795  0.06915  1.0000
  H   H7990     1.0  0.94408  0.77984  0.40851  1.0000
  H   H7991     1.0  0.80836  0.61418  0.23145  1.0000
  H   H7992     1.0  0.82518  0.88919  0.04797  1.0000
  H   H7993     1.0  0.79117  0.64069  0.22417  1.0000
  H   H7994     1.0  0.94906  0.61081  0.12335  1.0000
  H   H7995     1.0  0.92995  0.60758  0.14229  1.0000
  H   H7996     1.0  0.94807  0.61752  0.14471  1.0000
  H   H7997     1.0  0.97931  0.47961  0.37332  1.0000
  C   C4511     1.0  0.95432  0.80544  0.40056  1.0000
  N   N250      1.0  0.96027  0.94926  0.10806  1.0000
  H   H7998     1.0  0.96087  0.49763  0.34004  1.0000
  H   H7999     1.0  0.78730  0.54399  0.15065  1.0000
  C   C4512     1.0  0.96724  0.78645  0.07949  1.0000
  C   C4513     1.0  0.79356  0.64436  0.03338  1.0000
  H   H8000     1.0  0.97487  0.92845  0.37127  1.0000
  H   H8001     1.0  0.83508  0.90090  0.08954  1.0000
  Fe  Fe514     1.0  0.79955  0.93580  0.32639  1.0000
  C   C4514     1.0  0.79540  0.59255  0.24900  1.0000
  H   H8002     1.0  0.82722  0.80200  0.01986  1.0000
  H   H8003     1.0  0.92258  0.88661  0.44398  1.0000
  H   H8004     1.0  0.82218  0.73967  0.07027  1.0000
  H   H8005     1.0  0.79591  0.63382  0.04587  1.0000
  N   N251      1.0  0.86354  0.90403  0.07986  1.0000
  C   C4515     1.0  0.85909  0.92418  0.07102  1.0000
  H   H8006     1.0  0.94527  0.58513  0.28949  1.0000
  H   H8007     1.0  0.79899  0.61212  0.27338  1.0000
  C   C4516     1.0  0.79602  0.83548  0.41534  1.0000
  C   C4517     1.0  0.79826  0.62063  0.25937  1.0000
  H   H8008     1.0  0.85703  0.60500  0.23943  1.0000
  H   H8009     1.0  0.94281  0.59505  0.34641  1.0000
  H   H8010     1.0  0.93850  0.57609  0.32574  1.0000
  H   H8011     1.0  0.83622  0.94393  0.23224  1.0000
  H   H8012     1.0  0.82793  0.80243  0.40411  1.0000
  H   H8013     1.0  0.82959  0.62937  0.23436  1.0000
  H   H8014     1.0  0.79209  0.65936  0.30497  1.0000
  C   C4518     1.0  0.81817  0.95403  0.25667  1.0000
  H   H8015     1.0  0.89348  0.89710  0.07479  1.0000
  H   H8016     1.0  0.98236  0.78282  0.37810  1.0000
  Fe  Fe515     1.0  0.86110  0.83768  0.46773  1.0000
  H   H8017     1.0  0.93309  0.48054  0.40826  1.0000
  C   C4519     1.0  0.79992  0.82640  0.35757  1.0000
  C   C4520     1.0  0.98179  0.55381  0.13841  1.0000
  N   N252      1.0  0.80665  0.63740  0.25614  1.0000
  H   H8018     1.0  0.86503  0.62512  0.24000  1.0000
  H   H8019     1.0  0.81828  0.82057  0.37676  1.0000
  H   H8020     1.0  0.85441  0.89801  0.04962  1.0000
  C   C4521     1.0  0.93317  0.48186  0.07526  1.0000
  H   H8021     1.0  0.81524  0.72185  0.45982  1.0000
  N   N253      1.0  0.88515  0.73558  0.39247  1.0000
  C   C4522     1.0  0.87139  0.73878  0.38032  1.0000
  C   C4523     1.0  0.87887  0.72309  0.41048  1.0000
  C   C4524     1.0  0.88471  0.75394  0.39670  1.0000
  C   C4525     1.0  0.90468  0.72786  0.38349  1.0000
  C   C4526     1.0  0.90703  0.71499  0.36991  1.0000
  C   C4527     1.0  0.87385  0.75396  0.36269  1.0000
  C   C4528     1.0  0.89596  0.75355  0.41115  1.0000
  C   C4529     1.0  0.87851  0.70324  0.40958  1.0000
  C   C4530     1.0  0.86973  0.69292  0.42827  1.0000
  C   C4531     1.0  0.92723  0.70552  0.36475  1.0000
  C   C4532     1.0  0.86325  0.75250  0.34881  1.0000
  C   C4533     1.0  0.81898  0.73040  0.08386  1.0000
  H   H8022     1.0  0.85712  0.74299  0.38813  1.0000
  H   H8023     1.0  0.87125  0.72594  0.37620  1.0000
  H   H8024     1.0  0.88803  0.72137  0.42025  1.0000
  H   H8025     1.0  0.86483  0.72946  0.41725  1.0000
  H   H8026     1.0  0.87019  0.76079  0.40167  1.0000
  H   H8027     1.0  0.89001  0.76341  0.38394  1.0000
  H   H8028     1.0  0.91203  0.73914  0.37549  1.0000
  H   H8029     1.0  0.91283  0.72027  0.39425  1.0000
  H   H8030     1.0  0.90258  0.72294  0.35699  1.0000
  H   H8031     1.0  0.89875  0.70418  0.37566  1.0000
  H   H8032     1.0  0.86831  0.76772  0.36634  1.0000
  H   H8033     1.0  0.88860  0.75328  0.35591  1.0000
  H   H8034     1.0  0.90968  0.74429  0.40895  1.0000
  H   H8035     1.0  0.88827  0.74875  0.42525  1.0000
  H   H8036     1.0  0.87052  0.70302  0.39947  1.0000
  H   H8037     1.0  0.89282  0.69544  0.40592  1.0000
  H   H8038     1.0  0.86950  0.67881  0.42717  1.0000
  H   H8039     1.0  0.87778  0.69187  0.43885  1.0000
  H   H8040     1.0  0.85526  0.69996  0.43280  1.0000
  H   H8041     1.0  0.93619  0.71581  0.35853  1.0000
  H   H8042     1.0  0.93206  0.69635  0.37707  1.0000
  H   H8043     1.0  0.92866  0.69695  0.35455  1.0000
  H   H8044     1.0  0.86921  0.73955  0.34363  1.0000
  H   H8045     1.0  0.84843  0.75276  0.35528  1.0000
  H   H8046     1.0  0.86421  0.76424  0.33693  1.0000
  C   C4534     1.0  0.79501  0.89927  0.11149  1.0000
  H   H8047     1.0  0.92691  0.97149  0.22550  1.0000
  S   S1021     1.0  0.80028  0.69986  0.02579  1.0000
  C   C4535     1.0  0.83130  0.85247  0.35858  1.0000
  C   C4536     1.0  0.83963  0.86593  0.34208  1.0000
  H   H8048     1.0  0.98094  0.94298  0.08401  1.0000
  S   S1022     1.0  0.79810  0.90750  0.34324  1.0000
  Fe  Fe516     1.0  0.78831  0.71966  0.00278  1.0000
  H   H8049     1.0  0.80853  0.87277  0.36825  1.0000
  H   H8050     1.0  0.83701  0.87978  0.34537  1.0000
  H   H8051     1.0  0.85009  0.57309  0.14392  1.0000
  Fe  Fe517     1.0  0.86454  0.96754  0.11335  1.0000
  C   C4537     1.0  0.85532  0.71812  0.97480  1.0000
  C   C4538     1.0  0.84783  0.63154  0.11737  1.0000
  H   H8052     1.0  0.83197  0.64741  0.24330  1.0000
  H   H8053     1.0  0.81474  0.63707  0.13632  1.0000
  C   C4539     1.0  0.80471  0.73419  0.46289  1.0000
  H   H8054     1.0  0.80006  0.53483  0.11197  1.0000
  H   H8055     1.0  0.93975  0.78426  0.07843  1.0000
  H   H8056     1.0  0.81819  0.60421  0.15529  1.0000
  C   C4540     1.0  0.85309  0.65048  0.08492  1.0000
  H   H8057     1.0  0.86814  0.64458  0.08225  1.0000
  C   C4541     1.0  0.94942  0.58029  0.34731  1.0000
  C   C4542     1.0  0.86753  0.88451  0.13146  1.0000
  C   C4543     1.0  0.85663  0.63842  0.14397  1.0000
  C   C4544     1.0  0.87746  0.62961  0.13963  1.0000
  C   C4545     1.0  0.88896  0.63991  0.14566  1.0000
  H   H8058     1.0  0.85264  0.63758  0.15917  1.0000
  H   H8059     1.0  0.85542  0.65327  0.13786  1.0000
  H   H8060     1.0  0.84691  0.60803  0.16167  1.0000
  H   H8061     1.0  0.85996  0.60241  0.14041  1.0000
  H   H8062     1.0  0.85375  0.65961  0.10890  1.0000
  H   H8063     1.0  0.88013  0.61513  0.14716  1.0000
  H   H8064     1.0  0.88250  0.63005  0.12467  1.0000
  H   H8065     1.0  0.82532  0.66176  0.15664  1.0000
  H   H8066     1.0  0.88721  0.65450  0.13831  1.0000
  H   H8067     1.0  0.88484  0.63938  0.16075  1.0000
  H   H8068     1.0  0.90381  0.63346  0.14247  1.0000
  H   H8069     1.0  0.88431  0.90245  0.05466  1.0000
  H   H8070     1.0  0.79797  0.53017  0.06944  1.0000
  H   H8071     1.0  0.94357  0.91241  0.43827  1.0000
  H   H8072     1.0  0.83591  0.91726  0.25876  1.0000
  H   H8073     1.0  0.79629  0.79794  0.36657  1.0000
  C   C4546     1.0  0.80464  0.80644  0.35518  1.0000
  C   C4547     1.0  0.97084  0.79846  0.41062  1.0000
  C   C4548     1.0  0.78764  0.86469  0.18438  1.0000
  H   H8074     1.0  0.93385  0.96481  0.13786  1.0000
  C   C4549     1.0  0.91035  0.95405  0.13863  1.0000
  H   H8075     1.0  0.83109  0.72714  0.09050  1.0000
  H   H8076     1.0  0.84839  0.72840  0.98355  1.0000
  C   C4550     1.0  0.80759  0.93211  0.10493  1.0000
  H   H8077     1.0  0.78993  0.63546  0.31245  1.0000
  H   H8078     1.0  0.82934  0.71503  0.96987  1.0000
  H   H8079     1.0  0.97154  0.78656  0.06450  1.0000
  H   H8080     1.0  0.98282  0.66171  0.18531  1.0000
  S   S1023     1.0  0.94270  0.74981  0.99249  1.0000
  C   C4551     1.0  0.93949  0.95215  0.11365  1.0000
  H   H8081     1.0  0.95266  0.56197  0.30003  1.0000
  H   H8082     1.0  0.88364  0.87703  0.10631  1.0000
  C   C4552     1.0  0.89902  0.77271  0.41037  1.0000
  H   H8083     1.0  0.80474  0.94774  0.38261  1.0000
  C   C4553     1.0  0.83086  0.88504  0.06074  1.0000
  C   C4554     1.0  0.84212  0.89886  0.06101  1.0000
  H   H8084     1.0  0.80413  0.88740  0.42604  1.0000
  H   H8085     1.0  0.93957  0.47545  0.43981  1.0000
  H   H8086     1.0  0.94232  0.91780  0.46026  1.0000
  C   C4555     1.0  0.93128  0.95264  0.13429  1.0000
  H   H8087     1.0  0.84733  0.95481  0.24352  1.0000
  H   H8088     1.0  0.82287  0.63941  0.02126  1.0000
  C   C4556     1.0  0.80378  0.82767  0.37611  1.0000
  H   H8089     1.0  0.95840  0.80444  0.38588  1.0000
  H   H8090     1.0  0.90655  0.85221  0.06026  1.0000
  C   C4557     1.0  0.78806  0.50784  0.10402  1.0000
  H   H8091     1.0  0.87084  0.93870  0.08519  1.0000
  H   H8092     1.0  0.80443  0.94491  0.23167  1.0000
  C   C4558     1.0  0.79468  0.67860  0.46445  1.0000
  H   H8093     1.0  0.81697  0.90781  0.17690  1.0000
  H   H8094     1.0  0.82624  0.66827  0.13236  1.0000
  H   H8095     1.0  0.96161  0.91251  0.10597  1.0000
  N   N254      1.0  0.87453  0.81331  0.04381  1.0000
  C   C4559     1.0  0.87914  0.79299  0.05176  1.0000
  C   C4560     1.0  0.86325  0.81667  0.02918  1.0000
  C   C4561     1.0  0.89259  0.81950  0.03463  1.0000
  C   C4562     1.0  0.86478  0.82442  0.05845  1.0000
  C   C4563     1.0  0.84640  0.81955  0.07051  1.0000
  C   C4564     1.0  0.89163  0.78721  0.06624  1.0000
  C   C4565     1.0  0.89110  0.83928  0.02266  1.0000
  C   C4566     1.0  0.84863  0.80463  0.03256  1.0000
  C   C4567     1.0  0.83680  0.81143  0.01785  1.0000
  C   C4568     1.0  0.84043  0.82827  0.08751  1.0000
  C   C4569     1.0  0.89351  0.76669  0.07469  1.0000
  C   C4570     1.0  0.91015  0.84412  0.01467  1.0000
  H   H8096     1.0  0.88626  0.78541  0.04045  1.0000
  H   H8097     1.0  0.86652  0.78727  0.05817  1.0000
  H   H8098     1.0  0.85613  0.83136  0.02645  1.0000
  H   H8099     1.0  0.87257  0.81409  0.01588  1.0000
  H   H8100     1.0  0.90144  0.80991  0.02560  1.0000
  H   H8101     1.0  0.90067  0.81893  0.04508  1.0000
  H   H8102     1.0  0.87422  0.82385  0.06762  1.0000
  H   H8103     1.0  0.86122  0.83921  0.05211  1.0000
  H   H8104     1.0  0.84729  0.80457  0.07548  1.0000
  H   H8105     1.0  0.83530  0.82512  0.06245  1.0000
  H   H8106     1.0  0.90575  0.78976  0.05976  1.0000
  H   H8107     1.0  0.88585  0.79475  0.07765  1.0000
  H   H8108     1.0  0.88294  0.84970  0.03085  1.0000
  H   H8109     1.0  0.88454  0.84060  0.01088  1.0000
  H   H8110     1.0  0.85563  0.79022  0.03183  1.0000
  H   H8111     1.0  0.83927  0.80440  0.04614  1.0000
  H   H8112     1.0  0.96403  0.58084  0.25964  1.0000
  H   H8113     1.0  0.98050  0.54317  0.20194  1.0000
  H   H8114     1.0  0.97877  0.90377  0.96992  1.0000
  H   H8115     1.0  0.85063  0.82266  0.09662  1.0000
  H   H8116     1.0  0.83889  0.84342  0.08351  1.0000
  H   H8117     1.0  0.82683  0.82511  0.09537  1.0000
  H   H8118     1.0  0.87992  0.76355  0.08257  1.0000
  H   H8119     1.0  0.89887  0.75837  0.06380  1.0000
  H   H8120     1.0  0.90333  0.76265  0.08420  1.0000
  H   H8121     1.0  0.91700  0.84415  0.02586  1.0000
  H   H8122     1.0  0.91905  0.83408  0.00627  1.0000
  H   H8123     1.0  0.90877  0.85801  0.00569  1.0000
  H   H8124     1.0  0.95925  0.93798  0.08526  1.0000
  H   H8125     1.0  0.93241  0.85820  0.46362  1.0000
  H   H8126     1.0  0.87651  0.89348  0.13245  1.0000
  H   H8127     1.0  0.79371  0.68141  0.21261  1.0000
  H   H8128     1.0  0.94757  0.91502  0.12810  1.0000
  H   H8129     1.0  0.94829  0.54586  0.27771  1.0000
  H   H8130     1.0  0.80388  0.86268  0.35199  1.0000
  S   S1024     1.0  0.84074  0.96494  0.10258  1.0000
  C   C4571     1.0  0.80411  0.90233  0.12393  1.0000
  C   C4572     1.0  0.96727  0.96319  0.05425  1.0000
  C   C4573     1.0  0.80190  0.73964  0.09614  1.0000
  H   H8131     1.0  0.92932  0.97161  0.30682  1.0000
  H   H8132     1.0  0.95794  0.69414  0.17235  1.0000
  H   H8133     1.0  0.88133  0.86609  0.08288  1.0000
  C   C4574     1.0  0.79160  0.54750  0.13542  1.0000
  H   H8134     1.0  0.79387  0.58469  0.26342  1.0000
  N   N255      1.0  0.80010  0.84676  0.37994  1.0000
  C   C4575     1.0  0.94831  0.88806  0.46020  1.0000
  S   S1025     1.0  0.85732  0.94924  0.14092  1.0000
  C   C4576     1.0  0.88583  0.89651  0.44772  1.0000
  C   C4577     1.0  0.94965  0.90826  0.45080  1.0000
  C   C4578     1.0  0.97357  0.62395  0.17143  1.0000
  H   H8135     1.0  0.83476  0.95800  0.36951  1.0000
  Fe  Fe518     1.0  0.95197  0.48376  0.14154  1.0000
  C   C4579     1.0  0.84529  0.92700  0.25637  1.0000
  S   S1026     1.0  0.88164  0.85198  0.44627  1.0000
  H   H8136     1.0  0.80130  0.74282  0.44974  1.0000
  H   H8137     1.0  0.81220  0.78673  0.05910  1.0000
  C   C4580     1.0  0.80018  0.79316  0.05308  1.0000
  H   H8138     1.0  0.85747  0.95211  0.28166  1.0000
  C   C4581     1.0  0.86913  0.88356  0.11141  1.0000
  H   H8139     1.0  0.80255  0.50996  0.10023  1.0000
  C   C4582     1.0  0.95232  0.57469  0.32882  1.0000
  C   C4583     1.0  0.92778  0.50228  0.07600  1.0000
  H   H8140     1.0  0.79011  0.88661  0.11418  1.0000
  H   H8141     1.0  0.85480  0.86102  0.33847  1.0000
  C   C4584     1.0  0.80697  0.60709  0.24598  1.0000
  H   H8142     1.0  0.97040  0.92493  0.43744  1.0000
  H   H8143     1.0  0.90803  0.77761  0.39711  1.0000
  C   C4585     1.0  0.92087  0.94334  0.07745  1.0000
  N   N256      1.0  0.87997  0.66174  0.30559  1.0000
  C   C4586     1.0  0.88360  0.65257  0.28941  1.0000
  C   C4587     1.0  0.85999  0.66266  0.31514  1.0000
  C   C4588     1.0  0.88369  0.68100  0.29941  1.0000
  C   C4589     1.0  0.89275  0.65077  0.31840  1.0000
  C   C4590     1.0  0.88920  0.63139  0.32861  1.0000
  C   C4591     1.0  0.87251  0.66260  0.27408  1.0000
  C   C4592     1.0  0.90288  0.68297  0.28692  1.0000
  C   C4593     1.0  0.85416  0.67040  0.33307  1.0000
  C   C4594     1.0  0.83406  0.66952  0.34224  1.0000
  C   C4595     1.0  0.90342  0.62173  0.34067  1.0000
  C   C4596     1.0  0.87864  0.65284  0.25778  1.0000
  C   C4597     1.0  0.90567  0.70273  0.28294  1.0000
  H   H8144     1.0  0.88045  0.63854  0.29401  1.0000
  H   H8145     1.0  0.89850  0.65048  0.28292  1.0000
  H   H8146     1.0  0.85080  0.67171  0.30589  1.0000
  H   H8147     1.0  0.85630  0.64890  0.31819  1.0000
  H   H8148     1.0  0.88273  0.68684  0.31157  1.0000
  H   H8149     1.0  0.87284  0.69036  0.29222  1.0000
  H   H8150     1.0  0.90727  0.64872  0.31074  1.0000
  H   H8151     1.0  0.89259  0.65852  0.32895  1.0000
  H   H8152     1.0  0.89030  0.62258  0.31876  1.0000
  H   H8153     1.0  0.87533  0.63222  0.33773  1.0000
  H   H8154     1.0  0.85755  0.66273  0.27933  1.0000
  H   H8155     1.0  0.87447  0.67696  0.26876  1.0000
  H   H8156     1.0  0.90431  0.67917  0.27349  1.0000
  H   H8157     1.0  0.91427  0.67417  0.29358  1.0000
  H   H8158     1.0  0.86280  0.66271  0.34329  1.0000
  H   H8159     1.0  0.85529  0.68504  0.32988  1.0000
  H   H8160     1.0  0.82465  0.67762  0.33283  1.0000
  H   H8161     1.0  0.83213  0.65506  0.34630  1.0000
  H   H8162     1.0  0.83025  0.67546  0.35484  1.0000
  H   H8163     1.0  0.90248  0.62969  0.35128  1.0000
  H   H8164     1.0  0.90077  0.60785  0.34779  1.0000
  H   H8165     1.0  0.91763  0.62020  0.33216  1.0000
  H   H8166     1.0  0.89323  0.65349  0.25109  1.0000
  H   H8167     1.0  0.86992  0.65960  0.24739  1.0000
  H   H8168     1.0  0.87734  0.63819  0.26235  1.0000
  H   H8169     1.0  0.91946  0.70369  0.27396  1.0000
  H   H8170     1.0  0.89492  0.71226  0.27579  1.0000
  H   H8171     1.0  0.90515  0.70697  0.29594  1.0000
  H   H8172     1.0  0.97345  0.78315  0.41385  1.0000
  H   H8173     1.0  0.80233  0.58277  0.23966  1.0000
  H   H8174     1.0  0.90574  0.77226  0.42180  1.0000
  C   C4598     1.0  0.90488  0.86692  0.06069  1.0000
  H   H8175     1.0  0.83338  0.91283  0.05826  1.0000
  C   C4599     1.0  0.84841  0.96374  0.28694  1.0000
  C   C4600     1.0  0.84639  0.60995  0.14688  1.0000
  H   H8176     1.0  0.90482  0.95435  0.15344  1.0000
  H   H8177     1.0  0.82622  0.57180  0.15357  1.0000
  C   C4601     1.0  0.97335  0.83945  0.04194  1.0000
  H   H8178     1.0  0.96580  0.82633  0.45005  1.0000
  C   C4602     1.0  0.79225  0.84596  0.19694  1.0000
  C   C4603     1.0  0.84590  0.65111  0.10532  1.0000
  C   C4604     1.0  0.83742  0.57885  0.15319  1.0000
  H   H8179     1.0  0.79232  0.48711  0.14835  1.0000
  H   H8180     1.0  0.81135  0.63090  0.28399  1.0000
  C   C4605     1.0  0.96579  0.94820  0.08794  1.0000
  H   H8181     1.0  0.97532  0.58443  0.38958  1.0000
  H   H8182     1.0  0.92420  0.50410  0.09052  1.0000
  H   H8183     1.0  0.98256  0.95878  0.05106  1.0000
  H   H8184     1.0  0.85851  0.92577  0.05633  1.0000
  H   H8185     1.0  0.79407  0.96702  0.28709  1.0000
  H   H8186     1.0  0.79276  0.66623  0.13785  1.0000
  C   C4606     1.0  0.81166  0.65112  0.02480  1.0000
  H   H8187     1.0  0.83455  0.83894  0.35456  1.0000
  H   H8188     1.0  0.81884  0.82788  0.42978  1.0000
  N   N257      1.0  0.78732  0.96905  0.40841  1.0000
  C   C4607     1.0  0.96185  0.91418  0.11984  1.0000
  C   C4608     1.0  0.86446  0.90299  0.09956  1.0000
  H   H8189     1.0  0.95646  0.49004  0.43083  1.0000
  H   H8190     1.0  0.97508  0.94977  0.37706  1.0000
  S   S1027     1.0  0.96994  0.71833  0.03003  1.0000
  H   H8191     1.0  0.84735  0.92815  0.26985  1.0000
  C   C4609     1.0  0.86987  0.95464  0.05814  1.0000
  H   H8192     1.0  0.83362  0.86706  0.32996  1.0000
  H   H8193     1.0  0.78849  0.49567  0.09845  1.0000
  H   H8194     1.0  0.80692  0.85945  0.39901  1.0000
  H   H8195     1.0  0.78993  0.74819  0.29437  1.0000
  H   H8196     1.0  0.80905  0.94389  0.25977  1.0000
  S   S1028     1.0  0.82598  0.93956  0.30595  1.0000
  H   H8197     1.0  0.81498  0.95941  0.41385  1.0000
  H   H8198     1.0  0.81565  0.65713  0.03466  1.0000
  C   C4610     1.0  0.79776  0.65198  0.22425  1.0000
  H   H8199     1.0  0.87155  0.89389  0.45273  1.0000
  C   C4611     1.0  0.94626  0.79296  0.08351  1.0000
  H   H8200     1.0  0.81143  0.91763  0.19711  1.0000
  H   H8201     1.0  0.87306  0.95286  0.04365  1.0000
  H   H8202     1.0  0.93638  0.87667  0.40541  1.0000
  S   S1029     1.0  0.97129  0.88408  0.40545  1.0000
  C   C4612     1.0  0.94189  0.83723  0.43770  1.0000
  N   N258      1.0  0.84366  0.63016  0.13796  1.0000
  H   H8203     1.0  0.84829  0.80393  0.42410  1.0000
  C   C4613     1.0  0.81403  0.94687  0.39195  1.0000
  H   H8204     1.0  0.85888  0.92135  0.24831  1.0000
  H   H8205     1.0  0.95703  0.95901  0.32093  1.0000
  C   C4614     1.0  0.96048  0.86563  0.41750  1.0000
  C   C4615     1.0  0.83190  0.96139  0.29955  1.0000
  H   H8206     1.0  0.82844  0.82538  0.01886  1.0000
  H   H8207     1.0  0.80201  0.93019  0.17713  1.0000
  H   H8208     1.0  0.86166  0.78690  0.97884  1.0000
  H   H8209     1.0  0.94037  0.57195  0.35805  1.0000
  C   C4616     1.0  0.84771  0.89549  0.07989  1.0000
  H   H8210     1.0  0.94962  0.49552  0.39969  1.0000
  H   H8211     1.0  0.80797  0.52103  0.13234  1.0000
  C   C4617     1.0  0.96884  0.85132  0.42997  1.0000
  C   C4618     1.0  0.78947  0.80989  0.05720  1.0000
  H   H8212     1.0  0.94637  0.95936  0.21136  1.0000
  H   H8213     1.0  0.92008  0.85149  0.42307  1.0000
  H   H8214     1.0  0.98238  0.85125  0.43196  1.0000
  C   C4619     1.0  0.97708  0.79914  0.08494  1.0000
  C   C4620     1.0  0.80006  0.95976  0.20498  1.0000
  H   H8215     1.0  0.91537  0.90756  0.45219  1.0000
  H   H8216     1.0  0.81227  0.64970  0.21672  1.0000
  C   C4621     1.0  0.97944  0.73615  0.05218  1.0000
  H   H8217     1.0  0.83108  0.65789  0.10688  1.0000
  H   H8218     1.0  0.82907  0.60156  0.13222  1.0000
  C   C4622     1.0  0.98098  0.67124  0.19469  1.0000
  H   H8219     1.0  0.97399  0.89738  0.14305  1.0000
  H   H8220     1.0  0.96285  0.57784  0.35157  1.0000
  H   H8221     1.0  0.96769  0.60511  0.27682  1.0000
  Fe  Fe519     1.0  0.81774  0.72038  0.02254  1.0000
  H   H8222     1.0  0.79221  0.66088  0.16240  1.0000
  C   C4623     1.0  0.80456  0.64261  0.27445  1.0000
  C   C4624     1.0  0.78697  0.65065  0.10285  1.0000
  H   H8223     1.0  0.93438  0.94142  0.11001  1.0000
  H   H8224     1.0  0.80636  0.89188  0.13602  1.0000
  C   C4625     1.0  0.94893  0.55909  0.26772  1.0000
  C   C4626     1.0  0.79908  0.66785  0.14879  1.0000
  H   H8225     1.0  0.81358  0.93382  0.40229  1.0000
  H   H8226     1.0  0.93504  0.56817  0.26928  1.0000
  C   C4627     1.0  0.84153  0.70642  0.97544  1.0000
  H   H8227     1.0  0.80946  0.49314  0.12891  1.0000
  C   C4628     1.0  0.88482  0.87455  0.06899  1.0000
  H   H8228     1.0  0.83836  0.62494  0.11346  1.0000
  H   H8229     1.0  0.84357  0.94442  0.38972  1.0000
  C   C4629     1.0  0.95763  0.57380  0.28989  1.0000
  C   C4630     1.0  0.83981  0.62060  0.25986  1.0000
  H   H8230     1.0  0.87521  0.91008  0.10014  1.0000
  C   C4631     1.0  0.79840  0.95913  0.22542  1.0000
  C   C4632     1.0  0.93903  0.79451  0.40953  1.0000
  H   H8231     1.0  0.94834  0.82010  0.40128  1.0000
  H   H8232     1.0  0.97142  0.85035  0.04927  1.0000
  H   H8233     1.0  0.83973  0.87116  0.06101  1.0000
  H   H8234     1.0  0.92724  0.80020  0.40237  1.0000
  H   H8235     1.0  0.94545  0.97127  0.07627  1.0000
  S   S1030     1.0  0.97508  0.65394  0.34615  1.0000
  H   H8236     1.0  0.97068  0.61647  0.23864  1.0000
  H   H8237     1.0  0.97997  0.51588  0.14249  1.0000
  C   C4633     1.0  0.87288  0.93597  0.07120  1.0000
  H   H8238     1.0  0.97418  0.59037  0.31888  1.0000
  H   H8239     1.0  0.97301  0.74878  0.04421  1.0000
  C   C4634     1.0  0.79564  0.78488  0.04087  1.0000
  C   C4635     1.0  0.79577  0.48906  0.13306  1.0000
  C   C4636     1.0  0.98079  0.63358  0.21237  1.0000
  C   C4637     1.0  0.79018  0.67675  0.07739  1.0000
  H   H8240     1.0  0.92454  0.95559  0.06807  1.0000
  H   H8241     1.0  0.96847  0.93276  0.13331  1.0000
  H   H8242     1.0  0.97902  0.49664  0.45635  1.0000
  H   H8243     1.0  0.97415  0.60650  0.21878  1.0000
  C   C4638     1.0  0.97379  0.89675  0.12877  1.0000
  S   S1031     1.0  0.79603  0.82034  0.07184  1.0000
  C   C4639     1.0  0.96938  0.93151  0.11893  1.0000
  C   C4640     1.0  0.98330  0.69034  0.18244  1.0000
  H   H8244     1.0  0.93295  0.96536  0.10572  1.0000
  H   H8245     1.0  0.96621  0.67258  0.20191  1.0000
  H   H8246     1.0  0.96096  0.95251  0.05210  1.0000
  H   H8247     1.0  0.96925  0.80161  0.09875  1.0000
  H   H8248     1.0  0.81953  0.80056  0.35508  1.0000
  H   H8249     1.0  0.96765  0.61350  0.18193  1.0000
  C   C4641     1.0  0.96647  0.96500  0.11162  1.0000
  H   H8250     1.0  0.93403  0.79547  0.42426  1.0000
  S   S1032     1.0  0.79785  0.73561  0.04316  1.0000
  C   C4642     1.0  0.78915  0.90705  0.19307  1.0000
  C   C4643     1.0  0.97294  0.48605  0.33905  1.0000
  H   H8251     1.0  0.97972  0.59677  0.14581  1.0000
  S   S1033     1.0  0.97116  0.76906  0.00450  1.0000
  C   C4644     1.0  0.98092  0.94101  0.36659  1.0000
  H   H8252     1.0  0.79488  0.84762  0.20999  1.0000
  H   H8253     1.0  0.79976  0.73005  0.10960  1.0000
  H   H8254     1.0  0.80430  0.77228  0.03734  1.0000
  H   H8255     1.0  0.95919  0.55998  0.33025  1.0000
  C   C4645     1.0  0.79751  0.65927  0.08675  1.0000
  C   C4646     1.0  0.80587  0.91626  0.18554  1.0000
  C   C4647     1.0  0.96370  0.58702  0.31314  1.0000
  S   S1034     1.0  0.81488  0.97293  0.14219  1.0000
  H   H8256     1.0  0.94236  0.80743  0.07634  1.0000
  H   H8257     1.0  0.97751  0.90134  0.43493  1.0000
  C   C4648     1.0  0.97013  0.65444  0.15226  1.0000
  H   H8258     1.0  0.97656  0.90727  0.45662  1.0000
  C   C4649     1.0  0.97648  0.58642  0.13983  1.0000
  H   H8259     1.0  0.78932  0.94426  0.42973  1.0000
  S   S1035     1.0  0.89281  0.96672  0.09503  1.0000
  H   H8260     1.0  0.97041  0.77212  0.08721  1.0000
  H   H8261     1.0  0.83773  0.93334  0.37441  1.0000
  H   H8262     1.0  0.80829  0.83431  0.34569  1.0000
  C   C4650     1.0  0.80792  0.96337  0.40193  1.0000
  C   C4651     1.0  0.96320  0.56836  0.27072  1.0000
  H   H8263     1.0  0.79655  0.93930  0.08016  1.0000
  Fe  Fe520     1.0  0.97773  0.67651  0.32106  1.0000
  H   H8264     1.0  0.98271  0.94188  0.33812  1.0000
  H   H8265     1.0  0.79130  0.90022  0.16654  1.0000
  H   H8266     1.0  0.79982  0.87121  0.18118  1.0000
  H   H8267     1.0  0.94560  0.47624  0.08145  1.0000
  C   C4652     1.0  0.79597  0.53039  0.12710  1.0000
  H   H8268     1.0  0.91583  0.50910  0.06927  1.0000
  C   C4653     1.0  0.91657  0.89243  0.45668  1.0000
  C   C4654     1.0  0.79226  0.91256  0.09564  1.0000
  H   H8269     1.0  0.96657  0.64023  0.21020  1.0000
  H   H8270     1.0  0.80162  0.80576  0.34195  1.0000
  H   H8271     1.0  0.78818  0.66772  0.19947  1.0000
  H   H8272     1.0  0.90443  0.48045  0.08181  1.0000
  C   C4655     1.0  0.78743  0.66951  0.21361  1.0000
  H   H8273     1.0  0.97737  0.64884  0.23304  1.0000
  S   S1036     1.0  0.78878  0.91102  0.39575  1.0000
  H   H8274     1.0  0.97970  0.68954  0.25398  1.0000
  H   H8275     1.0  0.88501  0.91153  0.44264  1.0000
  H   H8276     1.0  0.97962  0.59126  0.12459  1.0000
  C   C4656     1.0  0.95560  0.97288  0.31207  1.0000
  H   H8277     1.0  0.79402  0.89319  0.20098  1.0000
  S   S1037     1.0  0.78825  0.94963  0.35054  1.0000
  H   H8278     1.0  0.79665  0.82103  0.41477  1.0000
  H   H8279     1.0  0.96814  0.88460  0.12921  1.0000
  S   S1038     1.0  0.97848  0.88949  0.03768  1.0000
  H   H8280     1.0  0.89264  0.88934  0.43610  1.0000
  C   C4657     1.0  0.98374  0.96950  0.34146  1.0000
  H   H8281     1.0  0.97974  0.60894  0.36157  1.0000
  H   H8282     1.0  0.98129  0.82505  0.10341  1.0000
  H   H8283     1.0  0.97496  0.81273  0.07535  1.0000
  H   H8284     1.0  0.97708  0.82490  0.37903  1.0000
  H   H8285     1.0  0.79168  0.95055  0.20336  1.0000
  H   H8286     1.0  0.78549  0.76231  0.12101  1.0000
  H   H8287     1.0  0.98214  0.54968  0.30310  1.0000
  H   H8288     1.0  0.97589  0.56049  0.12587  1.0000
  C   C4658     1.0  0.97816  0.81077  0.02354  1.0000
  H   H8289     1.0  0.79642  0.82773  0.44454  1.0000
  H   H8290     1.0  0.97810  0.52914  0.11966  1.0000
  H   H8291     1.0  0.98008  0.79967  0.01648  1.0000
  H   H8292     1.0  0.82228  0.97202  0.21944  1.0000
  H   H8293     1.0  0.97678  0.55876  0.26917  1.0000
  H   H8294     1.0  0.97479  0.68134  0.22621  1.0000
  C   C4659     1.0  0.97262  0.69536  0.16689  1.0000
  H   H8295     1.0  0.97309  0.70973  0.15948  1.0000
  H   H8296     1.0  0.97904  0.68626  0.15685  1.0000
  C   C4660     1.0  0.97983  0.61484  0.22511  1.0000
  N   N259      1.0  0.80889  0.97281  0.24787  1.0000
  C   C4661     1.0  0.97957  0.59426  0.28083  1.0000
  H   H8297     1.0  0.97781  0.70121  0.19074  1.0000
  C   C4662     1.0  0.98455  0.82434  0.38989  1.0000
  H   H8298     1.0  0.98448  0.92847  0.11304  1.0000
  H   H8299     1.0  0.78565  0.86217  0.17142  1.0000
  H   H8300     1.0  0.79501  0.97392  0.19770  1.0000
  Fe  Fe521     1.0  0.95579  0.73993  0.85368  1.0000
  S   S1039     1.0  0.92548  0.74696  0.86545  1.0000
  H   H8301     1.0  0.81820  0.52217  0.81065  1.0000
  Fe  Fe522     1.0  0.95715  0.77942  0.83367  1.0000
  S   S1040     1.0  0.92686  0.78933  0.84393  1.0000
  H   H8302     1.0  0.95045  0.48588  0.62254  1.0000
  Fe  Fe523     1.0  0.93210  0.77166  0.87104  1.0000
  S   S1041     1.0  0.91825  0.77906  0.89867  1.0000
  Fe  Fe524     1.0  0.92305  0.76362  0.83737  1.0000
  S   S1042     1.0  0.89924  0.76464  0.82411  1.0000
  S   S1043     1.0  0.96270  0.76348  0.86133  1.0000
  S   S1044     1.0  0.95302  0.75489  0.82496  1.0000
  H   H8303     1.0  0.87132  0.74169  0.72114  1.0000
  C   C4663     1.0  0.80020  0.68055  0.54714  1.0000
  H   H8304     1.0  0.84598  0.51617  0.58175  1.0000
  S   S1045     1.0  0.78608  0.70092  0.62170  1.0000
  H   H8305     1.0  0.85010  0.58409  0.75963  1.0000
  C   C4664     1.0  0.95581  0.78002  0.93638  1.0000
  H   H8306     1.0  0.78831  0.55669  0.72554  1.0000
  S   S1046     1.0  0.84594  0.67591  0.81020  1.0000
  C   C4665     1.0  0.79872  0.61730  0.84958  1.0000
  N   N260      1.0  0.91726  0.48379  0.64744  1.0000
  S   S1047     1.0  0.96186  0.90895  0.70827  1.0000
  Fe  Fe525     1.0  0.88105  0.87670  0.60566  1.0000
  S   S1048     1.0  0.88379  0.89146  0.57617  1.0000
  S   S1049     1.0  0.90317  0.87305  0.62182  1.0000
  Fe  Fe526     1.0  0.84473  0.86653  0.60647  1.0000
  S   S1050     1.0  0.84447  0.88054  0.57714  1.0000
  S   S1051     1.0  0.81978  0.85455  0.62233  1.0000
  Fe  Fe527     1.0  0.87453  0.86768  0.57164  1.0000
  S   S1052     1.0  0.88956  0.85497  0.54703  1.0000
  Fe  Fe528     1.0  0.85353  0.90309  0.58411  1.0000
  S   S1053     1.0  0.84217  0.93253  0.57214  1.0000
  S   S1054     1.0  0.87426  0.85171  0.60055  1.0000
  S   S1055     1.0  0.85139  0.89029  0.61411  1.0000
  S   S1056     1.0  0.84313  0.85056  0.49120  1.0000
  C   C4666     1.0  0.98341  0.96138  0.96096  1.0000
  S   S1057     1.0  0.81421  0.51082  0.62428  1.0000
  H   H8307     1.0  0.94619  0.68190  0.81998  1.0000
  S   S1058     1.0  0.96606  0.92514  0.65462  1.0000
  H   H8308     1.0  0.91539  0.52244  0.68803  1.0000
  Fe  Fe529     1.0  0.80451  0.48940  0.64815  1.0000
  C   C4667     1.0  0.79081  0.52980  0.79073  1.0000
  C   C4668     1.0  0.83491  0.48785  0.79431  1.0000
  H   H8309     1.0  0.96393  0.85892  0.75593  1.0000
  H   H8310     1.0  0.97633  0.50474  0.48692  1.0000
  H   H8311     1.0  0.86547  0.93958  0.60132  1.0000
  H   H8312     1.0  0.79492  0.51882  0.74006  1.0000
  C   C4669     1.0  0.86246  0.72774  0.95478  1.0000
  H   H8313     1.0  0.80710  0.62818  0.84502  1.0000
  C   C4670     1.0  0.79116  0.71557  0.49373  1.0000
  H   H8314     1.0  0.78952  0.66757  0.73748  1.0000
  S   S1059     1.0  0.95483  0.96993  0.63951  1.0000
  Fe  Fe530     1.0  0.86911  0.53631  0.70641  1.0000
  S   S1060     1.0  0.88418  0.51561  0.72690  1.0000
  S   S1061     1.0  0.86596  0.52890  0.68074  1.0000
  Fe  Fe531     1.0  0.86714  0.56839  0.72440  1.0000
  S   S1062     1.0  0.88186  0.55033  0.74632  1.0000
  S   S1063     1.0  0.86034  0.59934  0.72069  1.0000
  Fe  Fe532     1.0  0.90082  0.53696  0.72378  1.0000
  S   S1064     1.0  0.93199  0.53151  0.71834  1.0000
  Fe  Fe533     1.0  0.86382  0.53075  0.74758  1.0000
  S   S1065     1.0  0.85005  0.51758  0.77569  1.0000
  S   S1066     1.0  0.88745  0.55651  0.70162  1.0000
  S   S1067     1.0  0.84734  0.54996  0.72733  1.0000
  S   S1068     1.0  0.80050  0.73032  0.64767  1.0000
  S   S1069     1.0  0.82173  0.77195  0.62089  1.0000
  C   C4671     1.0  0.95282  0.84575  0.78454  1.0000
  H   H8315     1.0  0.78782  0.67924  0.55832  1.0000
  H   H8316     1.0  0.95976  0.85258  0.47620  1.0000
  C   C4672     1.0  0.85354  0.75179  0.58544  1.0000
  C   C4673     1.0  0.78977  0.93399  0.54997  1.0000
  H   H8317     1.0  0.83395  0.49281  0.80658  1.0000
  H   H8318     1.0  0.91141  0.74732  0.94482  1.0000
  S   S1070     1.0  0.93111  0.94970  0.67847  1.0000
  S   S1071     1.0  0.91961  0.94622  0.63275  1.0000
  H   H8319     1.0  0.87089  0.74473  0.64690  1.0000
  H   H8320     1.0  0.96047  0.90521  0.93795  1.0000
  S   S1072     1.0  0.82014  0.48103  0.59799  1.0000
  C   C4674     1.0  0.79677  0.66833  0.48201  1.0000
  S   S1073     1.0  0.79829  0.71216  0.81575  1.0000
  H   H8321     1.0  0.84814  0.69545  0.96740  1.0000
  C   C4675     1.0  0.79022  0.97265  0.65048  1.0000
  C   C4676     1.0  0.85721  0.63378  0.75413  1.0000
  C   C4677     1.0  0.86037  0.62599  0.73859  1.0000
  C   C4678     1.0  0.85764  0.60814  0.74050  1.0000
  C   C4679     1.0  0.85221  0.59788  0.75807  1.0000
  H   H8322     1.0  0.85920  0.64762  0.75253  1.0000
  H   H8323     1.0  0.86487  0.63383  0.72503  1.0000
  C   C4680     1.0  0.95707  0.53274  0.76621  1.0000
  C   C4681     1.0  0.93903  0.52978  0.76947  1.0000
  C   C4682     1.0  0.93122  0.52950  0.75482  1.0000
  C   C4683     1.0  0.94140  0.53228  0.73680  1.0000
  C   C4684     1.0  0.95942  0.53537  0.73350  1.0000
  C   C4685     1.0  0.96732  0.53545  0.74820  1.0000
  H   H8324     1.0  0.93116  0.52745  0.78342  1.0000
  H   H8325     1.0  0.91740  0.52689  0.75752  1.0000
  H   H8326     1.0  0.96728  0.53784  0.71956  1.0000
  H   H8327     1.0  0.88907  0.89731  0.47431  1.0000
  H   H8328     1.0  0.79735  0.88655  0.56110  1.0000
  H   H8329     1.0  0.95164  0.47894  0.70411  1.0000
  C   C4686     1.0  0.81295  0.84021  0.57079  1.0000
  H   H8330     1.0  0.81705  0.81423  0.54951  1.0000
  H   H8331     1.0  0.91343  0.90143  0.52216  1.0000
  C   C4687     1.0  0.81046  0.95850  0.57562  1.0000
  H   H8332     1.0  0.82804  0.74938  0.74622  1.0000
  H   H8333     1.0  0.85675  0.75747  0.59601  1.0000
  C   C4688     1.0  0.98007  0.81621  0.82203  1.0000
  C   C4689     1.0  0.84277  0.96176  0.60827  1.0000
  H   H8334     1.0  0.86274  0.74232  0.91778  1.0000
  H   H8335     1.0  0.90050  0.50198  0.67897  1.0000
  H   H8336     1.0  0.95644  0.49318  0.58852  1.0000
  C   C4690     1.0  0.79469  0.55040  0.75291  1.0000
  H   H8337     1.0  0.90892  0.49485  0.62116  1.0000
  H   H8338     1.0  0.80783  0.72885  0.76580  1.0000
  C   C4691     1.0  0.81866  0.50299  0.67895  1.0000
  C   C4692     1.0  0.83390  0.50404  0.66440  1.0000
  C   C4693     1.0  0.84823  0.51198  0.66526  1.0000
  C   C4694     1.0  0.84781  0.51844  0.68093  1.0000
  C   C4695     1.0  0.83288  0.51692  0.69585  1.0000
  C   C4696     1.0  0.81822  0.50933  0.69477  1.0000
  H   H8339     1.0  0.83466  0.49890  0.65231  1.0000
  H   H8340     1.0  0.85955  0.51335  0.65358  1.0000
  H   H8341     1.0  0.83243  0.52194  0.70798  1.0000
  H   H8342     1.0  0.79395  0.61602  0.83748  1.0000
  C   C4697     1.0  0.82037  0.83166  0.62164  1.0000
  C   C4698     1.0  0.83663  0.82057  0.61413  1.0000
  C   C4699     1.0  0.83690  0.80219  0.61419  1.0000
  C   C4700     1.0  0.82083  0.79494  0.62134  1.0000
  C   C4701     1.0  0.80453  0.80603  0.62877  1.0000
  C   C4702     1.0  0.80436  0.82432  0.62904  1.0000
  H   H8343     1.0  0.84902  0.82610  0.60835  1.0000
  H   H8344     1.0  0.84958  0.79364  0.60854  1.0000
  C   C4703     1.0  0.79219  0.51591  0.80916  1.0000
  H   H8345     1.0  0.95417  0.57983  0.76823  1.0000
  C   C4704     1.0  0.90755  0.89336  0.62512  1.0000
  C   C4705     1.0  0.89852  0.91055  0.61700  1.0000
  C   C4706     1.0  0.90215  0.92664  0.61974  1.0000
  C   C4707     1.0  0.91481  0.92563  0.63061  1.0000
  C   C4708     1.0  0.92404  0.90845  0.63857  1.0000
  C   C4709     1.0  0.92039  0.89233  0.63583  1.0000
  H   H8346     1.0  0.88876  0.91139  0.60861  1.0000
  H   H8347     1.0  0.89518  0.93991  0.61336  1.0000
  H   H8348     1.0  0.93391  0.90756  0.64687  1.0000
  H   H8349     1.0  0.92743  0.87903  0.64211  1.0000
  C   C4710     1.0  0.87643  0.85429  0.53145  1.0000
  C   C4711     1.0  0.88545  0.84789  0.51526  1.0000
  C   C4712     1.0  0.87535  0.84695  0.50267  1.0000
  C   C4713     1.0  0.85611  0.85229  0.50635  1.0000
  C   C4714     1.0  0.84707  0.85861  0.52255  1.0000
  C   C4715     1.0  0.85720  0.85959  0.53509  1.0000
  H   H8350     1.0  0.90026  0.84348  0.51255  1.0000
  C   C4716     1.0  0.89030  0.73168  0.96208  1.0000
  H   H8351     1.0  0.83218  0.86225  0.52561  1.0000
  H   H8352     1.0  0.85009  0.86409  0.54769  1.0000
  C   C4717     1.0  0.81947  0.94086  0.58279  1.0000
  C   C4718     1.0  0.78716  0.72872  0.47545  1.0000
  H   H8353     1.0  0.83988  0.84190  0.65818  1.0000
  H   H8354     1.0  0.82530  0.79101  0.50591  1.0000
  N   N261      1.0  0.92928  0.88470  0.47024  1.0000
  H   H8355     1.0  0.82310  0.52655  0.57726  1.0000
  H   H8356     1.0  0.90109  0.75363  0.96698  1.0000
  H   H8357     1.0  0.81720  0.91657  0.60399  1.0000
  H   H8358     1.0  0.84796  0.75929  0.96107  1.0000
  H   H8359     1.0  0.83388  0.80750  0.65428  1.0000
  C   C4719     1.0  0.81557  0.63095  0.70395  1.0000
  H   H8360     1.0  0.79374  0.93616  0.56217  1.0000
  C   C4720     1.0  0.83067  0.61573  0.57297  1.0000
  C   C4721     1.0  0.93047  0.86418  0.47594  1.0000
  H   H8361     1.0  0.94448  0.83730  0.78145  1.0000
  H   H8362     1.0  0.98031  0.65335  0.86250  1.0000
  Fe  Fe534     1.0  0.94044  0.94590  0.64927  1.0000
  C   C4722     1.0  0.79795  0.89436  0.50473  1.0000
  H   H8363     1.0  0.80978  0.66616  0.48624  1.0000
  H   H8364     1.0  0.95477  0.94573  0.71537  1.0000
  H   H8365     1.0  0.78780  0.62428  0.87612  1.0000
  H   H8366     1.0  0.86104  0.74980  0.69166  1.0000
  H   H8367     1.0  0.88418  0.75952  0.62931  1.0000
  H   H8368     1.0  0.82969  0.81705  0.51751  1.0000
  C   C4723     1.0  0.89728  0.74470  0.81776  1.0000
  C   C4724     1.0  0.88448  0.74609  0.80688  1.0000
  C   C4725     1.0  0.88227  0.73039  0.80195  1.0000
  C   C4726     1.0  0.89270  0.71315  0.80807  1.0000
  C   C4727     1.0  0.90541  0.71175  0.81903  1.0000
  C   C4728     1.0  0.90783  0.72748  0.82374  1.0000
  H   H8369     1.0  0.87638  0.75941  0.80210  1.0000
  H   H8370     1.0  0.86813  0.80540  0.65773  1.0000
  H   H8371     1.0  0.91341  0.69844  0.82391  1.0000
  H   H8372     1.0  0.91772  0.72625  0.83214  1.0000
  H   H8373     1.0  0.93186  0.83335  0.50628  1.0000
  C   C4729     1.0  0.78985  0.90250  0.58226  1.0000
  H   H8374     1.0  0.96113  0.70867  0.90479  1.0000
  H   H8375     1.0  0.97271  0.66199  0.83289  1.0000
  C   C4730     1.0  0.97169  0.81982  0.83956  1.0000
  H   H8376     1.0  0.80909  0.69875  0.52202  1.0000
  C   C4731     1.0  0.87247  0.47824  0.57668  1.0000
  H   H8377     1.0  0.95061  0.90019  0.96223  1.0000
  H   H8378     1.0  0.80695  0.50882  0.76824  1.0000
  H   H8379     1.0  0.93241  0.49462  0.58867  1.0000
  C   C4732     1.0  0.93280  0.78035  0.91270  1.0000
  C   C4733     1.0  0.92566  0.77994  0.93147  1.0000
  C   C4734     1.0  0.96284  0.78128  0.91744  1.0000
  C   C4735     1.0  0.95137  0.78136  0.90562  1.0000
  H   H8380     1.0  0.91121  0.77993  0.93684  1.0000
  H   H8381     1.0  0.80092  0.63641  0.70295  1.0000
  H   H8382     1.0  0.95684  0.78245  0.89104  1.0000
  C   C4736     1.0  0.84576  0.48952  0.76156  1.0000
  N   N262      1.0  0.87435  0.74155  0.95264  1.0000
  C   C4737     1.0  0.95805  0.48105  0.71477  1.0000
  H   H8383     1.0  0.93107  0.52463  0.66604  1.0000
  H   H8384     1.0  0.89230  0.89287  0.52904  1.0000
  Fe  Fe535     1.0  0.82428  0.69834  0.79894  1.0000
  C   C4738     1.0  0.96973  0.50893  0.67987  1.0000
  C   C4739     1.0  0.92238  0.72946  0.96725  1.0000
  S   S1074     1.0  0.84573  0.71423  0.72975  1.0000
  H   H8385     1.0  0.84467  0.59775  0.78719  1.0000
  H   H8386     1.0  0.85249  0.83225  0.63828  1.0000
  H   H8387     1.0  0.79880  0.55787  0.76145  1.0000
  H   H8388     1.0  0.85508  0.91345  0.54042  1.0000
  H   H8389     1.0  0.84232  0.61315  0.56127  1.0000
  C   C4740     1.0  0.85710  0.79045  0.96552  1.0000
  H   H8390     1.0  0.82570  0.92434  0.51644  1.0000
  N   N263      1.0  0.94062  0.86266  0.79092  1.0000
  C   C4741     1.0  0.92476  0.85686  0.80575  1.0000
  C   C4742     1.0  0.93290  0.87624  0.77535  1.0000
  H   H8391     1.0  0.81432  0.63570  0.75894  1.0000
  C   C4743     1.0  0.95196  0.87181  0.79808  1.0000
  C   C4744     1.0  0.94101  0.88819  0.80741  1.0000
  C   C4745     1.0  0.93004  0.84427  0.82376  1.0000
  S   S1075     1.0  0.88073  0.81060  0.47210  1.0000
  C   C4746     1.0  0.92357  0.86846  0.76396  1.0000
  C   C4747     1.0  0.91727  0.88339  0.74811  1.0000
  C   C4748     1.0  0.95390  0.89705  0.81320  1.0000
  C   C4749     1.0  0.91285  0.84034  0.83818  1.0000
  S   S1076     1.0  0.97522  0.93878  0.77270  1.0000
  H   H8392     1.0  0.91724  0.84916  0.80056  1.0000
  H   H8393     1.0  0.91432  0.86909  0.80941  1.0000
  C   C4750     1.0  0.84352  0.49676  0.77721  1.0000
  C   C4751     1.0  0.94281  0.88583  0.57639  1.0000
  C   C4752     1.0  0.92075  0.48538  0.62686  1.0000
  H   H8394     1.0  0.94238  0.82665  0.48434  1.0000
  H   H8395     1.0  0.96093  0.71960  0.93345  1.0000
  H   H8396     1.0  0.78688  0.77071  0.69657  1.0000
  H   H8397     1.0  0.93098  0.88359  0.81997  1.0000
  H   H8398     1.0  0.93344  0.89907  0.79790  1.0000
  C   C4753     1.0  0.78871  0.69844  0.83630  1.0000
  H   H8399     1.0  0.93788  0.85064  0.82999  1.0000
  H   H8400     1.0  0.82110  0.62140  0.67819  1.0000
  H   H8401     1.0  0.95115  0.89970  0.60369  1.0000
  H   H8402     1.0  0.93314  0.85712  0.75780  1.0000
  H   H8403     1.0  0.91125  0.86323  0.77272  1.0000
  H   H8404     1.0  0.90714  0.89498  0.75342  1.0000
  H   H8405     1.0  0.92929  0.88869  0.73861  1.0000
  H   H8406     1.0  0.91058  0.87759  0.74016  1.0000
  H   H8407     1.0  0.94573  0.90861  0.81994  1.0000
  H   H8408     1.0  0.96155  0.88690  0.82316  1.0000
  H   H8409     1.0  0.96386  0.90257  0.80105  1.0000
  H   H8410     1.0  0.91708  0.83126  0.85084  1.0000
  H   H8411     1.0  0.90399  0.85329  0.84187  1.0000
  H   H8412     1.0  0.90479  0.83322  0.83298  1.0000
  Fe  Fe536     1.0  0.84700  0.66342  0.78635  1.0000
  H   H8413     1.0  0.84294  0.52629  0.55857  1.0000
  H   H8414     1.0  0.96281  0.53430  0.66038  1.0000
  H   H8415     1.0  0.86462  0.76529  0.72370  1.0000
  H   H8416     1.0  0.79573  0.94410  0.53822  1.0000
  H   H8417     1.0  0.80181  0.88277  0.53236  1.0000
  H   H8418     1.0  0.93521  0.89487  0.49177  1.0000
  C   C4754     1.0  0.86280  0.75731  0.96165  1.0000
  C   C4755     1.0  0.97345  0.91127  0.75629  1.0000
  C   C4756     1.0  0.97475  0.68555  0.81087  1.0000
  H   H8419     1.0  0.88274  0.77591  0.95251  1.0000
  H   H8420     1.0  0.82081  0.85061  0.56168  1.0000
  H   H8421     1.0  0.87009  0.71676  0.94692  1.0000
  H   H8422     1.0  0.93696  0.87917  0.59060  1.0000
  H   H8423     1.0  0.93273  0.88742  0.56759  1.0000
  H   H8424     1.0  0.97230  0.51148  0.70628  1.0000
  H   H8425     1.0  0.82131  0.91328  0.55857  1.0000
  H   H8426     1.0  0.96871  0.92410  0.95586  1.0000
  H   H8427     1.0  0.96747  0.95771  0.57877  1.0000
  H   H8428     1.0  0.81762  0.58257  0.58455  1.0000
  H   H8429     1.0  0.95114  0.58845  0.80619  1.0000
  H   H8430     1.0  0.96863  0.83728  0.85873  1.0000
  H   H8431     1.0  0.80815  0.65918  0.76220  1.0000
  C   C4757     1.0  0.97042  0.90480  0.74189  1.0000
  H   H8432     1.0  0.97778  0.50208  0.66835  1.0000
  C   C4758     1.0  0.90600  0.74210  0.95950  1.0000
  H   H8433     1.0  0.78751  0.69329  0.89455  1.0000
  H   H8434     1.0  0.98378  0.90164  0.55517  1.0000
  C   C4759     1.0  0.79823  0.48965  0.74579  1.0000
  N   N264      1.0  0.83988  0.78484  0.67691  1.0000
  H   H8435     1.0  0.84179  0.96570  0.59352  1.0000
  H   H8436     1.0  0.98447  0.82097  0.77286  1.0000
  H   H8437     1.0  0.79811  0.70193  0.49016  1.0000
  C   C4760     1.0  0.95926  0.90322  0.58941  1.0000
  C   C4761     1.0  0.78661  0.78550  0.69035  1.0000
  H   H8438     1.0  0.80396  0.56954  0.72814  1.0000
  H   H8439     1.0  0.81670  0.81119  0.58151  1.0000
  H   H8440     1.0  0.96046  0.53738  0.68346  1.0000
  C   C4762     1.0  0.85259  0.94163  0.61189  1.0000
  C   C4763     1.0  0.96903  0.52955  0.67282  1.0000
  H   H8441     1.0  0.79054  0.64578  0.76699  1.0000
  C   C4764     1.0  0.81842  0.91098  0.54592  1.0000
  H   H8442     1.0  0.96273  0.87718  0.78668  1.0000
  H   H8443     1.0  0.93969  0.93289  0.60005  1.0000
  C   C4765     1.0  0.87982  0.47987  0.59105  1.0000
  H   H8444     1.0  0.97165  0.58479  0.78860  1.0000
  H   H8445     1.0  0.94997  0.49435  0.71839  1.0000
  H   H8446     1.0  0.82696  0.81368  0.67613  1.0000
  H   H8447     1.0  0.83709  0.73260  0.69454  1.0000
  C   C4766     1.0  0.79356  0.91289  0.52932  1.0000
  N   N265      1.0  0.91281  0.58823  0.77646  1.0000
  C   C4767     1.0  0.90795  0.60885  0.77479  1.0000
  C   C4768     1.0  0.91986  0.58405  0.75741  1.0000
  C   C4769     1.0  0.89562  0.58068  0.78608  1.0000
  C   C4770     1.0  0.92762  0.57944  0.78759  1.0000
  C   C4771     1.0  0.94615  0.58626  0.78008  1.0000
  C   C4772     1.0  0.90472  0.61581  0.79293  1.0000
  C   C4773     1.0  0.89702  0.55993  0.78713  1.0000
  C   C4774     1.0  0.90560  0.59018  0.74467  1.0000
  C   C4775     1.0  0.91407  0.58488  0.72596  1.0000
  H   H8448     1.0  0.79553  0.68566  0.70527  1.0000
  C   C4776     1.0  0.89837  0.63668  0.78985  1.0000
  C   C4777     1.0  0.87824  0.55447  0.79527  1.0000
  H   H8449     1.0  0.89512  0.61467  0.76915  1.0000
  H   H8450     1.0  0.91870  0.61558  0.76455  1.0000
  H   H8451     1.0  0.93171  0.59087  0.75010  1.0000
  H   H8452     1.0  0.92574  0.56913  0.75810  1.0000
  H   H8453     1.0  0.88376  0.58848  0.77955  1.0000
  H   H8454     1.0  0.89136  0.58276  0.80051  1.0000
  H   H8455     1.0  0.92237  0.58093  0.80219  1.0000
  H   H8456     1.0  0.93130  0.56433  0.78829  1.0000
  H   H8457     1.0  0.94408  0.60136  0.77534  1.0000
  C   C4778     1.0  0.95794  0.58104  0.79476  1.0000
  H   H8458     1.0  0.89394  0.60972  0.80364  1.0000
  H   H8459     1.0  0.91763  0.61234  0.79832  1.0000
  H   H8460     1.0  0.90673  0.55146  0.79605  1.0000
  H   H8461     1.0  0.90177  0.55634  0.77335  1.0000
  H   H8462     1.0  0.89347  0.58360  0.75070  1.0000
  H   H8463     1.0  0.90068  0.60530  0.74226  1.0000
  H   H8464     1.0  0.91862  0.56974  0.72762  1.0000
  H   H8465     1.0  0.90358  0.58943  0.71713  1.0000
  H   H8466     1.0  0.92606  0.59150  0.71893  1.0000
  C   C4779     1.0  0.82280  0.61585  0.69265  1.0000
  H   H8467     1.0  0.81748  0.96676  0.56355  1.0000
  H   H8468     1.0  0.93634  0.50740  0.61401  1.0000
  H   H8469     1.0  0.88502  0.64077  0.78519  1.0000
  H   H8470     1.0  0.89631  0.64139  0.80293  1.0000
  H   H8471     1.0  0.90879  0.64361  0.77940  1.0000
  H   H8472     1.0  0.87962  0.53957  0.79584  1.0000
  H   H8473     1.0  0.87298  0.55716  0.80944  1.0000
  H   H8474     1.0  0.86807  0.56223  0.78654  1.0000
  N   N266      1.0  0.83783  0.71848  0.85459  1.0000
  C   C4780     1.0  0.82549  0.71434  0.87332  1.0000
  C   C4781     1.0  0.85244  0.72837  0.85541  1.0000
  C   C4782     1.0  0.82574  0.73121  0.84182  1.0000
  C   C4783     1.0  0.84666  0.70138  0.84682  1.0000
  C   C4784     1.0  0.85873  0.68596  0.85855  1.0000
  C   C4785     1.0  0.80972  0.70435  0.87445  1.0000
  C   C4786     1.0  0.83591  0.73930  0.82233  1.0000
  C   C4787     1.0  0.85994  0.72341  0.87348  1.0000
  C   C4788     1.0  0.87692  0.73166  0.87096  1.0000
  C   C4789     1.0  0.86435  0.66833  0.85092  1.0000
  H   H8475     1.0  0.79785  0.53396  0.82408  1.0000
  C   C4790     1.0  0.82246  0.75295  0.81119  1.0000
  H   H8476     1.0  0.81902  0.72736  0.87838  1.0000
  H   H8477     1.0  0.83351  0.70576  0.88375  1.0000
  H   H8478     1.0  0.86447  0.72652  0.84376  1.0000
  H   H8479     1.0  0.84702  0.74350  0.85347  1.0000
  H   H8480     1.0  0.81725  0.74299  0.84819  1.0000
  H   H8481     1.0  0.81579  0.72402  0.83952  1.0000
  H   H8482     1.0  0.83600  0.69554  0.84384  1.0000
  H   H8483     1.0  0.85592  0.70477  0.83322  1.0000
  H   H8484     1.0  0.85140  0.68242  0.87299  1.0000
  H   H8485     1.0  0.87167  0.69030  0.85819  1.0000
  C   C4791     1.0  0.81034  0.93022  0.59838  1.0000
  C   C4792     1.0  0.79239  0.96554  0.58408  1.0000
  H   H8486     1.0  0.84288  0.72821  0.81462  1.0000
  H   H8487     1.0  0.84634  0.74676  0.82300  1.0000
  H   H8488     1.0  0.84917  0.72908  0.88452  1.0000
  H   H8489     1.0  0.86386  0.70841  0.87836  1.0000
  H   H8490     1.0  0.88856  0.72541  0.86098  1.0000
  H   H8491     1.0  0.87384  0.74678  0.86586  1.0000
  H   H8492     1.0  0.88136  0.72884  0.88430  1.0000
  H   H8493     1.0  0.85196  0.66309  0.85114  1.0000
  H   H8494     1.0  0.87241  0.67083  0.83659  1.0000
  H   H8495     1.0  0.87316  0.65762  0.85948  1.0000
  H   H8496     1.0  0.98318  0.53252  0.66911  1.0000
  H   H8497     1.0  0.80298  0.48520  0.86605  1.0000
  C   C4793     1.0  0.79950  0.67776  0.67918  1.0000
  H   H8498     1.0  0.83019  0.75833  0.79732  1.0000
  H   H8499     1.0  0.81193  0.74614  0.80948  1.0000
  H   H8500     1.0  0.81544  0.76470  0.81808  1.0000
  H   H8501     1.0  0.83058  0.62905  0.57627  1.0000
  C   C4794     1.0  0.82576  0.71740  0.72091  1.0000
  H   H8502     1.0  0.91731  0.86072  0.48458  1.0000
  H   H8503     1.0  0.85756  0.81504  0.67785  1.0000
  H   H8504     1.0  0.79253  0.70980  0.53937  1.0000
  C   C4795     1.0  0.82106  0.78183  0.68794  1.0000
  Fe  Fe537     1.0  0.95807  0.93127  0.68312  1.0000
  H   H8505     1.0  0.95990  0.95706  0.74093  1.0000
  H   H8506     1.0  0.80782  0.69106  0.90346  1.0000
  H   H8507     1.0  0.95540  0.50654  0.68336  1.0000
  C   C4796     1.0  0.96374  0.89927  0.95184  1.0000
  H   H8508     1.0  0.98119  0.53790  0.74558  1.0000
  H   H8509     1.0  0.85171  0.97000  0.61056  1.0000
  H   H8510     1.0  0.97040  0.88453  0.95261  1.0000
  C   C4797     1.0  0.92311  0.89434  0.48640  1.0000
  H   H8511     1.0  0.84259  0.75639  0.71027  1.0000
  C   C4798     1.0  0.94630  0.85336  0.48613  1.0000
  H   H8512     1.0  0.79174  0.83286  0.63488  1.0000
  C   C4799     1.0  0.90203  0.89902  0.51704  1.0000
  C   C4800     1.0  0.80498  0.78806  0.67728  1.0000
  H   H8513     1.0  0.81339  0.48858  0.74197  1.0000
  H   H8514     1.0  0.93390  0.73694  0.96391  1.0000
  C   C4801     1.0  0.94376  0.48797  0.59628  1.0000
  H   H8515     1.0  0.95985  0.86167  0.80794  1.0000
  C   C4802     1.0  0.79617  0.69787  0.53252  1.0000
  C   C4803     1.0  0.80369  0.64859  0.75769  1.0000
  C   C4804     1.0  0.81048  0.71014  0.73146  1.0000
  C   C4805     1.0  0.78974  0.90069  0.56255  1.0000
  C   C4806     1.0  0.95403  0.69320  0.81571  1.0000
  H   H8516     1.0  0.95586  0.87682  0.57101  1.0000
  H   H8517     1.0  0.81643  0.62439  0.71847  1.0000
  C   C4807     1.0  0.93714  0.77947  0.94335  1.0000
  C   C4808     1.0  0.84582  0.77288  0.66272  1.0000
  H   H8518     1.0  0.96938  0.82543  0.75679  1.0000
  H   H8519     1.0  0.97326  0.93334  0.55834  1.0000
  C   C4809     1.0  0.96011  0.93607  0.72666  1.0000
  H   H8520     1.0  0.96017  0.56602  0.80043  1.0000
  H   H8521     1.0  0.91684  0.87287  0.51089  1.0000
  C   C4810     1.0  0.85148  0.62364  0.77168  1.0000
  H   H8522     1.0  0.85625  0.93762  0.62570  1.0000
  H   H8523     1.0  0.89771  0.88301  0.49982  1.0000
  H   H8524     1.0  0.79769  0.65654  0.86432  1.0000
  C   C4811     1.0  0.87038  0.75880  0.63832  1.0000
  H   H8525     1.0  0.89189  0.73599  0.92683  1.0000
  H   H8526     1.0  0.82876  0.78588  0.53870  1.0000
  H   H8527     1.0  0.82723  0.93710  0.53255  1.0000
  H   H8528     1.0  0.91668  0.90899  0.48180  1.0000
  H   H8529     1.0  0.86480  0.78194  0.93963  1.0000
  C   C4812     1.0  0.86795  0.77649  0.95359  1.0000
  C   C4813     1.0  0.82318  0.96462  0.62074  1.0000
  Fe  Fe538     1.0  0.83629  0.48760  0.61542  1.0000
  H   H8530     1.0  0.85981  0.80433  0.95846  1.0000
  C   C4814     1.0  0.94403  0.83360  0.49477  1.0000
  H   H8531     1.0  0.80598  0.88174  0.49963  1.0000
  N   N267      1.0  0.97810  0.48223  0.70694  1.0000
  H   H8532     1.0  0.92225  0.88753  0.78069  1.0000
  H   H8533     1.0  0.87606  0.76995  0.65878  1.0000
  H   H8534     1.0  0.84785  0.78886  0.70052  1.0000
  H   H8535     1.0  0.80435  0.66811  0.54096  1.0000
  S   S1077     1.0  0.89044  0.69306  0.80221  1.0000
  C   C4815     1.0  0.85538  0.81373  0.66446  1.0000
  H   H8536     1.0  0.95699  0.95422  0.60300  1.0000
  H   H8537     1.0  0.89669  0.71844  0.95739  1.0000
  H   H8538     1.0  0.85013  0.78469  0.49842  1.0000
  H   H8539     1.0  0.85353  0.90140  0.52354  1.0000
  H   H8540     1.0  0.83621  0.77711  0.65299  1.0000
  C   C4816     1.0  0.93465  0.72467  0.91420  1.0000
  H   H8541     1.0  0.89441  0.91235  0.51042  1.0000
  H   H8542     1.0  0.88326  0.75858  0.70516  1.0000
  H   H8543     1.0  0.86551  0.78672  0.64115  1.0000
  N   N268      1.0  0.84480  0.79830  0.55008  1.0000
  C   C4817     1.0  0.84229  0.78356  0.56728  1.0000
  C   C4818     1.0  0.83028  0.81553  0.55232  1.0000
  C   C4819     1.0  0.84189  0.79114  0.53453  1.0000
  C   C4820     1.0  0.86401  0.80245  0.54485  1.0000
  C   C4821     1.0  0.87109  0.80761  0.55978  1.0000
  C   C4822     1.0  0.85606  0.76490  0.56675  1.0000
  C   C4823     1.0  0.84123  0.80509  0.51596  1.0000
  C   C4824     1.0  0.82486  0.82090  0.57147  1.0000
  C   C4825     1.0  0.79136  0.56384  0.73506  1.0000
  C   C4826     1.0  0.89205  0.80604  0.55474  1.0000
  C   C4827     1.0  0.83840  0.79620  0.50136  1.0000
  H   H8544     1.0  0.82803  0.78079  0.57045  1.0000
  H   H8545     1.0  0.84318  0.78815  0.57957  1.0000
  H   H8546     1.0  0.83456  0.82747  0.54189  1.0000
  H   H8547     1.0  0.83913  0.74947  0.58987  1.0000
  H   H8548     1.0  0.82456  0.89624  0.54565  1.0000
  H   H8549     1.0  0.85310  0.77928  0.53133  1.0000
  H   H8550     1.0  0.87423  0.79073  0.53979  1.0000
  H   H8551     1.0  0.86499  0.81418  0.53292  1.0000
  H   H8552     1.0  0.86800  0.79869  0.57349  1.0000
  H   H8553     1.0  0.86485  0.82212  0.56080  1.0000
  H   H8554     1.0  0.85382  0.75801  0.55661  1.0000
  H   H8555     1.0  0.87057  0.76679  0.56316  1.0000
  H   H8556     1.0  0.85432  0.81019  0.51053  1.0000
  H   H8557     1.0  0.81532  0.69103  0.86994  1.0000
  H   H8558     1.0  0.83229  0.55694  0.56616  1.0000
  H   H8559     1.0  0.83707  0.82058  0.57684  1.0000
  C   C4828     1.0  0.79032  0.67018  0.85935  1.0000
  H   H8560     1.0  0.83764  0.60996  0.69273  1.0000
  H   H8561     1.0  0.94445  0.93907  0.57574  1.0000
  H   H8562     1.0  0.89916  0.79148  0.55500  1.0000
  H   H8563     1.0  0.89624  0.81434  0.54084  1.0000
  H   H8564     1.0  0.89656  0.81127  0.56483  1.0000
  H   H8565     1.0  0.96246  0.81129  0.84881  1.0000
  C   C4829     1.0  0.84907  0.60565  0.77362  1.0000
  S   S1078     1.0  0.84727  0.63306  0.79138  1.0000
  H   H8566     1.0  0.86466  0.83941  0.65161  1.0000
  H   H8567     1.0  0.95645  0.82579  0.50036  1.0000
  H   H8568     1.0  0.86304  0.73834  0.58451  1.0000
  C   C4830     1.0  0.91468  0.50344  0.67158  1.0000
  N   N269      1.0  0.81953  0.66366  0.70414  1.0000
  H   H8569     1.0  0.79799  0.74264  0.74671  1.0000
  C   C4831     1.0  0.81875  0.66035  0.72464  1.0000
  C   C4832     1.0  0.83238  0.67687  0.69454  1.0000
  C   C4833     1.0  0.82734  0.64602  0.69707  1.0000
  H   H8570     1.0  0.81091  0.70213  0.74509  1.0000
  C   C4834     1.0  0.86958  0.75619  0.71350  1.0000
  C   C4835     1.0  0.85192  0.67155  0.69933  1.0000
  C   C4836     1.0  0.80070  0.67274  0.69983  1.0000
  C   C4837     1.0  0.79365  0.72382  0.70671  1.0000
  C   C4838     1.0  0.96494  0.72819  0.91972  1.0000
  H   H8571     1.0  0.88244  0.84195  0.49022  1.0000
  C   C4839     1.0  0.86351  0.68594  0.68877  1.0000
  C   C4840     1.0  0.97641  0.90978  0.95581  1.0000
  H   H8572     1.0  0.97721  0.67835  0.79934  1.0000
  H   H8573     1.0  0.83061  0.64950  0.72843  1.0000
  H   H8574     1.0  0.82034  0.67287  0.72850  1.0000
  H   H8575     1.0  0.82597  0.69079  0.69763  1.0000
  H   H8576     1.0  0.83462  0.67859  0.67933  1.0000
  H   H8577     1.0  0.83058  0.64893  0.68175  1.0000
  H   H8578     1.0  0.84087  0.63933  0.70105  1.0000
  C   C4841     1.0  0.95076  0.93627  0.58802  1.0000
  C   C4842     1.0  0.81544  0.75518  0.75556  1.0000
  H   H8579     1.0  0.80526  0.53083  0.78345  1.0000
  H   H8580     1.0  0.93253  0.91327  0.58087  1.0000
  H   H8581     1.0  0.85954  0.65823  0.69561  1.0000
  H   H8582     1.0  0.85111  0.67051  0.71422  1.0000
  H   H8583     1.0  0.92741  0.71706  0.96103  1.0000
  H   H8584     1.0  0.81941  0.75570  0.76838  1.0000
  H   H8585     1.0  0.80022  0.84121  0.56577  1.0000
  H   H8586     1.0  0.83767  0.80656  0.48837  1.0000
  H   H8587     1.0  0.80398  0.90200  0.58386  1.0000
  H   H8588     1.0  0.89586  0.87469  0.46861  1.0000
  H   H8589     1.0  0.79242  0.71320  0.89933  1.0000
  H   H8590     1.0  0.79030  0.66415  0.70701  1.0000
  H   H8591     1.0  0.80656  0.53922  0.74944  1.0000
  C   C4843     1.0  0.97900  0.50174  0.69686  1.0000
  H   H8592     1.0  0.84994  0.73446  0.94884  1.0000
  H   H8593     1.0  0.85689  0.69950  0.69247  1.0000
  H   H8594     1.0  0.87737  0.68178  0.69242  1.0000
  H   H8595     1.0  0.86530  0.68723  0.67369  1.0000
  N   N270      1.0  0.83760  0.56472  0.60030  1.0000
  C   C4844     1.0  0.83292  0.54864  0.59565  1.0000
  C   C4845     1.0  0.82605  0.56781  0.61882  1.0000
  C   C4846     1.0  0.83200  0.58161  0.58612  1.0000
  C   C4847     1.0  0.85795  0.56222  0.60007  1.0000
  C   C4848     1.0  0.86854  0.54227  0.60610  1.0000
  C   C4849     1.0  0.84024  0.54610  0.57545  1.0000
  C   C4850     1.0  0.83277  0.60034  0.58988  1.0000
  C   C4851     1.0  0.82892  0.55207  0.63563  1.0000
  C   C4852     1.0  0.81399  0.55573  0.65256  1.0000
  C   C4853     1.0  0.88763  0.54214  0.60909  1.0000
  C   C4854     1.0  0.83790  0.52763  0.57318  1.0000
  C   C4855     1.0  0.89786  0.48053  0.65560  1.0000
  H   H8596     1.0  0.81768  0.54995  0.59839  1.0000
  H   H8597     1.0  0.83789  0.53555  0.60467  1.0000
  H   H8598     1.0  0.82879  0.57989  0.62246  1.0000
  H   H8599     1.0  0.81112  0.57114  0.61818  1.0000
  C   C4856     1.0  0.85031  0.91504  0.52744  1.0000
  H   H8600     1.0  0.84093  0.58056  0.57234  1.0000
  H   H8601     1.0  0.86556  0.56732  0.58598  1.0000
  H   H8602     1.0  0.85996  0.57089  0.60882  1.0000
  H   H8603     1.0  0.87055  0.53423  0.59528  1.0000
  H   H8604     1.0  0.86112  0.53477  0.61898  1.0000
  H   H8605     1.0  0.81468  0.95766  0.61587  1.0000
  H   H8606     1.0  0.85506  0.54692  0.57087  1.0000
  H   H8607     1.0  0.84603  0.59977  0.59369  1.0000
  H   H8608     1.0  0.82118  0.60422  0.60120  1.0000
  H   H8609     1.0  0.82835  0.53864  0.63321  1.0000
  H   H8610     1.0  0.84246  0.55114  0.63910  1.0000
  H   H8611     1.0  0.81663  0.54463  0.66460  1.0000
  H   H8612     1.0  0.81403  0.56901  0.65589  1.0000
  C   C4857     1.0  0.95495  0.95473  0.58900  1.0000
  H   H8613     1.0  0.89586  0.54923  0.59640  1.0000
  H   H8614     1.0  0.88633  0.54897  0.62068  1.0000
  H   H8615     1.0  0.89507  0.52771  0.61257  1.0000
  H   H8616     1.0  0.92596  0.96827  0.59489  1.0000
  C   C4858     1.0  0.86528  0.77309  0.65048  1.0000
  C   C4859     1.0  0.79795  0.68065  0.84262  1.0000
  H   H8617     1.0  0.94380  0.88320  0.76567  1.0000
  H   H8618     1.0  0.80180  0.72032  0.49801  1.0000
  H   H8619     1.0  0.81923  0.89509  0.51790  1.0000
  C   C4860     1.0  0.93858  0.49224  0.61561  1.0000
  C   C4861     1.0  0.88170  0.74754  0.93230  1.0000
  H   H8620     1.0  0.95940  0.83659  0.79581  1.0000
  H   H8621     1.0  0.81103  0.67497  0.83473  1.0000
  H   H8622     1.0  0.80642  0.50870  0.70599  1.0000
  C   C4862     1.0  0.86696  0.75431  0.92004  1.0000
  C   C4863     1.0  0.80906  0.73074  0.69589  1.0000
  C   C4864     1.0  0.79192  0.50922  0.77014  1.0000
  C   C4865     1.0  0.80446  0.52079  0.81950  1.0000
  C   C4866     1.0  0.87453  0.76519  0.90117  1.0000
  H   H8623     1.0  0.84476  0.75840  0.66929  1.0000
  H   H8624     1.0  0.88965  0.75857  0.92962  1.0000
  S   S1079     1.0  0.96589  0.53393  0.78489  1.0000
  H   H8625     1.0  0.85810  0.48391  0.57625  1.0000
  H   H8626     1.0  0.98172  0.64015  0.81712  1.0000
  C   C4867     1.0  0.94621  0.90468  0.57627  1.0000
  H   H8627     1.0  0.80521  0.66570  0.67252  1.0000
  S   S1080     1.0  0.86597  0.49063  0.60895  1.0000
  H   H8628     1.0  0.85445  0.76314  0.92663  1.0000
  S   S1081     1.0  0.80001  0.49432  0.67698  1.0000
  C   C4868     1.0  0.85286  0.83299  0.65244  1.0000
  H   H8629     1.0  0.80015  0.55596  0.65017  1.0000
  Fe  Fe539     1.0  0.84520  0.69998  0.75953  1.0000
  C   C4869     1.0  0.96296  0.94249  0.74116  1.0000
  H   H8630     1.0  0.88774  0.49242  0.64980  1.0000
  H   H8631     1.0  0.80711  0.68891  0.67169  1.0000
  S   S1082     1.0  0.84432  0.71570  0.78099  1.0000
  H   H8632     1.0  0.86417  0.76877  0.89228  1.0000
  H   H8633     1.0  0.87756  0.77816  0.90259  1.0000
  H   H8634     1.0  0.86015  0.76143  0.62943  1.0000
  H   H8635     1.0  0.87271  0.73167  0.79320  1.0000
  H   H8636     1.0  0.95812  0.88346  0.46978  1.0000
  H   H8637     1.0  0.88742  0.75700  0.89431  1.0000
  H   H8638     1.0  0.85805  0.92439  0.51644  1.0000
  H   H8639     1.0  0.81703  0.78899  0.69979  1.0000
  C   C4870     1.0  0.90960  0.88599  0.50349  1.0000
  H   H8640     1.0  0.79635  0.64432  0.73408  1.0000
  H   H8641     1.0  0.82458  0.95662  0.63479  1.0000
  H   H8642     1.0  0.80766  0.60413  0.85473  1.0000
  C   C4871     1.0  0.97514  0.83459  0.84513  1.0000
  C   C4872     1.0  0.91792  0.50212  0.65103  1.0000
  H   H8643     1.0  0.85259  0.49617  0.74832  1.0000
  H   H8644     1.0  0.81743  0.61681  0.56880  1.0000
  N   N271      1.0  0.96692  0.92019  0.58727  1.0000
  H   H8645     1.0  0.79771  0.50174  0.80673  1.0000
  C   C4873     1.0  0.83818  0.80501  0.66772  1.0000
  H   H8646     1.0  0.80856  0.73874  0.68215  1.0000
  C   C4874     1.0  0.80089  0.65524  0.73784  1.0000
  S   S1083     1.0  0.96800  0.70992  0.86264  1.0000
  C   C4875     1.0  0.91712  0.52210  0.67327  1.0000
  H   H8647     1.0  0.93149  0.77886  0.95788  1.0000
  C   C4876     1.0  0.97892  0.83126  0.76149  1.0000
  H   H8648     1.0  0.92815  0.73905  0.91558  1.0000
  H   H8649     1.0  0.80888  0.84329  0.58485  1.0000
  H   H8650     1.0  0.90765  0.51331  0.64452  1.0000
  H   H8651     1.0  0.93168  0.50570  0.64464  1.0000
  C   C4877     1.0  0.96885  0.84917  0.76787  1.0000
  H   H8652     1.0  0.80718  0.77975  0.66668  1.0000
  H   H8653     1.0  0.81162  0.68134  0.55330  1.0000
  H   H8654     1.0  0.84372  0.93251  0.61108  1.0000
  C   C4878     1.0  0.98167  0.67233  0.82779  1.0000
  C   C4879     1.0  0.93899  0.97078  0.58514  1.0000
  C   C4880     1.0  0.79451  0.71328  0.72436  1.0000
  H   H8655     1.0  0.92824  0.72091  0.90451  1.0000
  H   H8656     1.0  0.97850  0.68040  0.83887  1.0000
  Fe  Fe540     1.0  0.79707  0.50257  0.60920  1.0000
  S   S1084     1.0  0.97052  0.77882  0.95120  1.0000
  H   H8657     1.0  0.86682  0.78221  0.68319  1.0000
  C   C4881     1.0  0.96409  0.91722  0.72687  1.0000
  H   H8658     1.0  0.93195  0.71530  0.92777  1.0000
  H   H8659     1.0  0.97903  0.85480  0.77176  1.0000
  H   H8660     1.0  0.95087  0.70088  0.82703  1.0000
  S   S1085     1.0  0.82333  0.68449  0.77679  1.0000
  H   H8661     1.0  0.80351  0.80276  0.67038  1.0000
  C   C4882     1.0  0.82958  0.92308  0.52975  1.0000
  H   H8662     1.0  0.94936  0.70281  0.80351  1.0000
  H   H8663     1.0  0.90655  0.53330  0.66740  1.0000
  H   H8664     1.0  0.96522  0.91586  0.61661  1.0000
  H   H8665     1.0  0.79157  0.87336  0.59463  1.0000
  Fe  Fe541     1.0  0.79609  0.75991  0.63312  1.0000
  C   C4883     1.0  0.85282  0.77975  0.69025  1.0000
  S   S1086     1.0  0.86902  0.67784  0.76755  1.0000
  Fe  Fe542     1.0  0.86613  0.69220  0.79074  1.0000
  C   C4884     1.0  0.82513  0.72743  0.70298  1.0000
  H   H8666     1.0  0.82135  0.76702  0.69398  1.0000
  C   C4885     1.0  0.85565  0.75960  0.70114  1.0000
  H   H8667     1.0  0.93854  0.83083  0.82109  1.0000
  H   H8668     1.0  0.96949  0.49533  0.73929  1.0000
  H   H8669     1.0  0.79974  0.71291  0.86587  1.0000
  H   H8670     1.0  0.97340  0.89021  0.74216  1.0000
  S   S1087     1.0  0.97347  0.95421  0.67616  1.0000
  H   H8671     1.0  0.81496  0.60460  0.69865  1.0000
  H   H8672     1.0  0.98166  0.69752  0.80613  1.0000
  C   C4886     1.0  0.80417  0.89531  0.52187  1.0000
  H   H8673     1.0  0.94695  0.86016  0.49709  1.0000
  H   H8674     1.0  0.80987  0.76932  0.74865  1.0000
  H   H8675     1.0  0.97042  0.89098  0.58792  1.0000
  H   H8676     1.0  0.95192  0.91105  0.56194  1.0000
  Fe  Fe543     1.0  0.97974  0.94949  0.64726  1.0000
  C   C4887     1.0  0.97009  0.93014  0.75575  1.0000
  C   C4888     1.0  0.97568  0.91794  0.60354  1.0000
  C   C4889     1.0  0.79877  0.70027  0.89418  1.0000
  H   H8677     1.0  0.84202  0.79090  0.96805  1.0000
  H   H8678     1.0  0.81059  0.74230  0.46931  1.0000
  C   C4890     1.0  0.98049  0.92427  0.56931  1.0000
  H   H8679     1.0  0.95699  0.73236  0.89297  1.0000
  H   H8680     1.0  0.94344  0.47469  0.65641  1.0000
  H   H8681     1.0  0.97854  0.90168  0.76769  1.0000
  H   H8682     1.0  0.79602  0.92504  0.51818  1.0000
  H   H8683     1.0  0.98043  0.93060  0.60318  1.0000
  Fe  Fe544     1.0  0.94715  0.97233  0.66917  1.0000
  H   H8684     1.0  0.97718  0.78215  0.91191  1.0000
  H   H8685     1.0  0.92459  0.49268  0.67882  1.0000
  H   H8686     1.0  0.80646  0.50981  0.83183  1.0000
  H   H8687     1.0  0.79475  0.47813  0.75724  1.0000
  C   C4891     1.0  0.80118  0.74301  0.75988  1.0000
  H   H8688     1.0  0.79207  0.80055  0.63428  1.0000
  N   N272      1.0  0.79787  0.91469  0.54692  1.0000
  H   H8689     1.0  0.78869  0.74733  0.78696  1.0000
  H   H8690     1.0  0.79568  0.95781  0.65048  1.0000
  C   C4892     1.0  0.79230  0.93733  0.60691  1.0000
  H   H8691     1.0  0.80046  0.90645  0.49359  1.0000
  S   S1088     1.0  0.97522  0.79851  0.81410  1.0000
  C   C4893     1.0  0.95539  0.72303  0.90662  1.0000
  H   H8692     1.0  0.95834  0.74257  0.92128  1.0000
  H   H8693     1.0  0.89448  0.47979  0.67070  1.0000
  H   H8694     1.0  0.98097  0.75328  0.89638  1.0000
  H   H8695     1.0  0.98294  0.94724  0.94007  1.0000
  H   H8696     1.0  0.93707  0.97276  0.57082  1.0000
  H   H8697     1.0  0.96962  0.73773  0.95059  1.0000
  H   H8698     1.0  0.78970  0.49617  0.78003  1.0000
  C   C4894     1.0  0.78894  0.50818  0.75105  1.0000
  H   H8699     1.0  0.79355  0.48854  0.73359  1.0000
  H   H8700     1.0  0.97744  0.69173  0.93391  1.0000
  C   C4895     1.0  0.98316  0.72807  0.94841  1.0000
  H   H8701     1.0  0.98053  0.71393  0.95291  1.0000
  C   C4896     1.0  0.98465  0.49116  0.73479  1.0000
  H   H8702     1.0  0.78534  0.92911  0.61907  1.0000
  H   H8703     1.0  0.92456  0.47885  0.73926  1.0000
  H   H8704     1.0  0.86478  0.47442  0.65036  1.0000
