data_image0
_chemical_formula_structural       FeSCFeSHFeSFeS3FeS2FeS2FeSFeS3FeS2FeCFe2S3CH6C6H5CHNH2C6H4C6H3CNCH3CHCHC2H5CHC2HCHC4H2CHCH3CH5CHN2C11H22CH4NH2NCH2C3H2C2HCHC2H2CH17SCH2C2HCH4CH7CHC2H2CH3CHSHCHCHCH8CH4C2HCHSH6CHC2HCH4CH4CHCH4SHC2HCH4CH4C4H3CH7CSFeS2FeS2FeSFeS3FeSHFeS2FeHFeS3HSC6H2CHC8H2C6H4C6H4C7H7SC3H7C2H2CH2CH4CHCH2CH2SCH2C2H3NH4NC5H5CHC2H3C2SCH2CH2CHCHC2H3CH9CH14CNCHSH3CH6C2H2CH2CNC12H28CH5CHCN2H3C2H2C3H6C2H8CHCH2C3H5CHCH2CH4C2H4FeS2HFeSHCFeS2FeS2FeHFeS3FeS2FeS2FeSFeS3CH2C6H4C6H8CFeH2C2FeC2H2C2H13CHC2H3CH2C2H2CH3CH2C2NHNC6HC3HSH10CHCH5CH3CH5C3H2CH2CH2C3HCH4NHC4HC4HCHCH6C2H12CH4CHCHCH4NH2C3HCHCHNH6CH3CSCH6CH3SC4H6CH5CH4CH3C3H2CH2CHCH2C2H2SCFeS2FeSFeS3FeS2FeS2FeSFeS3FeS2FeSFe2S3CHCHCH2C6H6C2HC7H4C6H3CH5CNC8HCHC2H15CH8SH3CHNHCHCH2NCH2CH2C2NC2H6CH4CH7CH5CHNC12H24FeH6C2HCH4CH6CH7C2HCH2CHSCH5C3H2CH2CHC2HCH8C2H3CHC2H3CH3SCH3CHC2HSFeS2FeS2FeSFeS3FeS2FeS2FeHFeS3HC7H4C6H4C6H4C6H4C6H4CH2CHC2H5CH2CH3C2H9CH2SC2SCH3NCH3NHNCH2CH5CH3CH4CHC2HCHCHCH9SHCH2C2HCNC3H2CH3CHCH7CH2C2HCH3C3H6CH7C2HC2HCHCH13C3H6CHC2NH3CH3C2H3CH3C3H4CHCH4CH3CH2FeS2HFeSHSFeS2FeS2FeSFeCS2FeS2FeS2FeSFeS3CH2C6H4C6H4C4H5C5HCHCH3C2H2C3H4NH2CHCHCFeH6C3H11CHSH2C2H3C2H12C3SCNC10H12CH2CH8NCH2CHCHCH2NC8HC3H29CHCH3C3H6C2H4CH4CHCH3FeH3CNH3CHCHCSFeS2FeSFeCSFeS2FeS2FeSFeHS2FeS2FeS2FeSFeS3CHCH2C6H4C6H3CH2C2H3CHNCH2C2HCHCHCHCHNCFeH2SCHNC12H32C2H2C2H3CH2CH8NH3NH4C2H3CH4C2H5CH3CH3CH5CH2CH3CH2C3H2C4H6CSH3C2HC2HCH2CH2CHC2H2CH3C2H2CH5C3H3C2H4CH2SH4C2HCH2CH3CFeS2FeS2FeSFeS5FeS2FeS2FeSFeS3C2H3C6H4C6H2CH6C6H4C7H3C6H4C3H4CHC2HCHCH3CH4CH6CH2CH3NC9NHCH6CHNH7SH2CH3C2H3C3NCHCH2CH15CH15CH5CH2CHC2HNC12H22CH6CH3C2HCHC3H4CHCH2CHCHSH3NH7CH4C2H3C2H4C2HC2H10CH4CFeS2HFeSCSFeHSFeS2HCFeS3FeS2FeS2FeSFeS3C2H5C6H4C7H4CHCHCHC6H4CH2CHCHFeC2HC2H2C3H2CH4CH4NH3SHCH2CH2CHCH2C2H3CFeHC2H4NC9H2CHCH21CH4NC12H31SCH2SH4NC6HCHC2H11C2H5NCHC5H2CHCH3CH19CH4C2HFeH2CH2CH3C3SFeS2FeSFeS2FeS2FeS2FeSFeHS2FeS2FeS2FeSFeS3CHCH2C6H4C6H3SHCH7C2H4C2H2CH2CHCH2C2H3FeH4C3H3CH3CH6CH3C2H3CH6CH2C3H3C2HC3H2CH3NHCH2C2H2CH6CH4NC7HCH2CHCH12C2H13NC11H16C2NHCH4NC2HNH2CH5C2HC3HC2HCHCH10CSH3C2HC2HCHCSH2FeS2FeS2FeSFeS3HSFeS2CSCFeSFeS3CHC2HC6H4C6H6CH2C6H4C6H3C8H5CH5NH2CNC5HC2H5CH5C2HCH7CHCHCHNH7CHNC10HCH22CHCH7CH2SHSH2FeH2CH2C2H4CHC2HCHCH2SNSH9C2HFeH3CH4C3H7CH2CH4CH2CH2C3H3CHC4H17FeS2CFeSCSFeS2FeS2FeHFeS3FeS2FeS2FeSFeS3HC3H3C6H4C6H5CH3CHC6H6C2HCH5CH2CNC6HC4H17C2FeCHCH3CNC11H26CH2NC8H18C3HC2H5CH3C2H3C2H2CH3CH2NH2CH2C2HCHC2HCH5CH3C2H9SH2C2H2NHCH2CH2C2H3CHCHC2H3CH3C3H2C
_chemical_formula_sum              "Fe128 S256 C1152 H2048 N64"
_cell_length_a       38.9247
_cell_length_b       40.8383
_cell_length_c       70.516
_cell_angle_alpha    89.7545
_cell_angle_beta     89.8737
_cell_angle_gamma    89.6862

_space_group_name_H-M_alt    "P 1"
_space_group_IT_number       1

loop_
  _space_group_symop_operation_xyz
  'x, y, z'

loop_
  _atom_site_type_symbol
  _atom_site_label
  _atom_site_symmetry_multiplicity
  _atom_site_fract_x
  _atom_site_fract_y
  _atom_site_fract_z
  _atom_site_occupancy
  Fe  Fe1       1.0  0.34268  0.47091  0.05414  1.0000
  S   S1        1.0  0.38805  0.43803  0.06004  1.0000
  C   C1        1.0  0.44666  0.13507  0.12227  1.0000
  Fe  Fe2       1.0  0.31346  0.42421  0.02319  1.0000
  S   S2        1.0  0.35727  0.38882  0.02714  1.0000
  H   H1        1.0  0.29592  0.45066  0.15869  1.0000
  Fe  Fe3       1.0  0.35043  0.39596  0.05871  1.0000
  S   S3        1.0  0.33446  0.35498  0.07950  1.0000
  Fe  Fe4       1.0  0.39152  0.43374  0.02792  1.0000
  S   S4        1.0  0.44341  0.43342  0.01196  1.0000
  S   S5        1.0  0.30506  0.42967  0.05454  1.0000
  S   S6        1.0  0.34786  0.46872  0.02220  1.0000
  Fe  Fe5       1.0  0.36951  0.22010  0.16291  1.0000
  S   S7        1.0  0.31816  0.19626  0.15803  1.0000
  S   S8        1.0  0.39448  0.25911  0.14383  1.0000
  Fe  Fe6       1.0  0.38560  0.17820  0.19868  1.0000
  S   S9        1.0  0.33516  0.15222  0.19560  1.0000
  S   S10       1.0  0.41670  0.16768  0.22610  1.0000
  Fe  Fe7       1.0  0.34642  0.14905  0.16431  1.0000
  S   S11       1.0  0.33665  0.09810  0.15189  1.0000
  Fe  Fe8       1.0  0.31070  0.20145  0.18978  1.0000
  S   S12       1.0  0.25718  0.21103  0.20309  1.0000
  S   S13       1.0  0.39848  0.17228  0.16765  1.0000
  S   S14       1.0  0.36055  0.22800  0.19435  1.0000
  Fe  Fe9       1.0  0.14483  0.30805  0.28280  1.0000
  S   S15       1.0  0.10771  0.26684  0.28007  1.0000
  S   S16       1.0  0.19294  0.31147  0.26378  1.0000
  Fe  Fe10      1.0  0.09938  0.34197  0.31376  1.0000
  C   C2        1.0  0.39747  0.07695  0.20498  1.0000
  Fe  Fe11      1.0  0.10592  0.26669  0.31211  1.0000
  Fe  Fe12      1.0  0.06612  0.30565  0.28065  1.0000
  S   S17       1.0  0.02043  0.30576  0.25992  1.0000
  S   S18       1.0  0.14494  0.30720  0.31496  1.0000
  S   S19       1.0  0.10332  0.34699  0.28197  1.0000
  C   C3        1.0  0.01736  0.36852  0.24397  1.0000
  H   H2        1.0  0.07188  0.13298  0.30499  1.0000
  H   H3        1.0  0.21470  0.40871  0.04509  1.0000
  H   H4        1.0  0.04170  0.37297  0.25076  1.0000
  H   H5        1.0  0.26976  0.21552  0.07096  1.0000
  H   H6        1.0  0.43534  0.10300  0.17524  1.0000
  H   H7        1.0  0.25012  0.28624  0.08149  1.0000
  C   C4        1.0  0.23999  0.23947  0.21992  1.0000
  C   C5        1.0  0.20883  0.23206  0.22917  1.0000
  C   C6        1.0  0.19450  0.25331  0.24288  1.0000
  C   C7        1.0  0.21054  0.28296  0.24714  1.0000
  C   C8        1.0  0.24136  0.29070  0.23763  1.0000
  C   C9        1.0  0.25606  0.26912  0.22418  1.0000
  H   H8        1.0  0.19565  0.20963  0.22579  1.0000
  H   H9        1.0  0.17097  0.24677  0.25010  1.0000
  H   H10       1.0  0.25404  0.31356  0.24073  1.0000
  H   H11       1.0  0.27971  0.27553  0.21703  1.0000
  H   H12       1.0  0.15027  0.39963  0.23194  1.0000
  C   C10       1.0  0.28083  0.27861  0.05574  1.0000
  H   H13       1.0  0.19537  0.37457  0.05735  1.0000
  N   N1        1.0  0.10433  0.31998  0.20427  1.0000
  H   H14       1.0  0.29145  0.24090  0.08817  1.0000
  H   H15       1.0  0.39976  0.08013  0.16761  1.0000
  C   C11       1.0  0.37726  0.28460  0.12550  1.0000
  C   C12       1.0  0.39966  0.30495  0.11512  1.0000
  C   C13       1.0  0.38728  0.32614  0.10076  1.0000
  C   C14       1.0  0.35212  0.32766  0.09677  1.0000
  C   C15       1.0  0.32969  0.30722  0.10707  1.0000
  C   C16       1.0  0.34213  0.28578  0.12131  1.0000
  H   H16       1.0  0.42687  0.30424  0.11820  1.0000
  H   H17       1.0  0.40493  0.34144  0.09292  1.0000
  H   H18       1.0  0.30245  0.30813  0.10415  1.0000
  H   H19       1.0  0.32455  0.27039  0.12916  1.0000
  C   C17       1.0  0.35240  0.05402  0.09214  1.0000
  C   C18       1.0  0.35752  0.08773  0.09517  1.0000
  C   C19       1.0  0.35241  0.10181  0.11323  1.0000
  C   C20       1.0  0.34202  0.08229  0.12854  1.0000
  C   C21       1.0  0.33645  0.04870  0.12545  1.0000
  C   C22       1.0  0.34181  0.03458  0.10742  1.0000
  H   H20       1.0  0.36555  0.10306  0.08344  1.0000
  H   H21       1.0  0.35663  0.12770  0.11532  1.0000
  H   H22       1.0  0.32811  0.03341  0.13713  1.0000
  C   C23       1.0  0.05211  0.09658  0.32503  1.0000
  N   N2        1.0  0.44840  0.06095  0.15771  1.0000
  C   C24       1.0  0.45320  0.14336  0.23293  1.0000
  H   H23       1.0  0.47233  0.02569  0.17681  1.0000
  H   H24       1.0  0.01252  0.34096  0.16107  1.0000
  H   H25       1.0  0.02426  0.14463  0.09623  1.0000
  C   C25       1.0  0.04485  0.15891  0.06861  1.0000
  H   H26       1.0  0.31773  0.32812  0.04146  1.0000
  C   C26       1.0  0.34040  0.39862  0.15754  1.0000
  H   H27       1.0  0.46745  0.12812  0.20488  1.0000
  C   C27       1.0  0.47959  0.04373  0.16574  1.0000
  C   C28       1.0  0.01320  0.14833  0.05679  1.0000
  H   H28       1.0  0.33748  0.00870  0.10532  1.0000
  H   H29       1.0  0.12250  0.39940  0.25238  1.0000
  H   H30       1.0  0.09014  0.36430  0.18913  1.0000
  H   H31       1.0  0.11202  0.28144  0.18360  1.0000
  H   H32       1.0  0.08247  0.20011  0.00195  1.0000
  C   C29       1.0  0.35055  0.33960  0.16734  1.0000
  H   H33       1.0  0.08051  0.43539  0.29871  1.0000
  C   C30       1.0  0.31867  0.29310  0.01829  1.0000
  C   C31       1.0  0.32178  0.45503  0.15234  1.0000
  H   H34       1.0  0.02261  0.42263  0.31285  1.0000
  C   C32       1.0  0.35094  0.36393  0.15078  1.0000
  H   H35       1.0  0.44706  0.15445  0.26262  1.0000
  C   C33       1.0  0.08550  0.29468  0.21592  1.0000
  C   C34       1.0  0.42758  0.03660  0.14654  1.0000
  C   C35       1.0  0.03566  0.18294  0.03043  1.0000
  C   C36       1.0  0.17848  0.27150  0.17859  1.0000
  H   H36       1.0  0.07415  0.23604  0.01633  1.0000
  H   H37       1.0  0.45487  0.15333  0.13296  1.0000
  C   C37       1.0  0.24217  0.36286  0.04163  1.0000
  H   H38       1.0  0.31369  0.45233  0.10774  1.0000
  C   C38       1.0  0.24156  0.29164  0.02813  1.0000
  H   H39       1.0  0.22167  0.22161  0.00187  1.0000
  H   H40       1.0  0.36124  0.40601  0.16736  1.0000
  H   H41       1.0  0.03985  0.30595  0.18508  1.0000
  C   C39       1.0  0.08525  0.24281  0.23570  1.0000
  H   H42       1.0  0.20602  0.26683  0.18185  1.0000
  H   H43       1.0  0.34672  0.45209  0.18046  1.0000
  H   H44       1.0  0.12415  0.25524  0.21600  1.0000
  H   H45       1.0  0.17661  0.28182  0.16403  1.0000
  H   H46       1.0  0.32622  0.27052  0.02600  1.0000
  C   C40       1.0  0.26653  0.23621  0.08101  1.0000
  H   H47       1.0  0.45010  0.06384  0.20004  1.0000
  N   N3        1.0  0.00379  0.16914  0.03969  1.0000
  N   N4        1.0  0.31156  0.16511  0.25806  1.0000
  C   C41       1.0  0.28478  0.16337  0.24264  1.0000
  C   C42       1.0  0.33446  0.19460  0.25511  1.0000
  C   C43       1.0  0.33381  0.13475  0.25650  1.0000
  C   C44       1.0  0.29548  0.16554  0.27754  1.0000
  C   C45       1.0  0.26954  0.19358  0.28160  1.0000
  C   C46       1.0  0.26106  0.13293  0.24295  1.0000
  C   C47       1.0  0.36602  0.13333  0.26946  1.0000
  C   C48       1.0  0.31800  0.22579  0.24631  1.0000
  C   C49       1.0  0.34228  0.25498  0.24753  1.0000
  C   C50       1.0  0.25169  0.18860  0.30072  1.0000
  C   C51       1.0  0.23431  0.13479  0.22716  1.0000
  H   H48       1.0  0.38323  0.15446  0.26691  1.0000
  H   H49       1.0  0.29757  0.16407  0.22856  1.0000
  H   H50       1.0  0.26779  0.18520  0.24266  1.0000
  H   H51       1.0  0.34708  0.20150  0.26867  1.0000
  H   H52       1.0  0.35583  0.18851  0.24517  1.0000
  H   H53       1.0  0.34290  0.13177  0.24155  1.0000
  H   H54       1.0  0.31884  0.11242  0.26001  1.0000
  H   H55       1.0  0.28267  0.14179  0.28058  1.0000
  H   H56       1.0  0.31565  0.16771  0.28859  1.0000
  H   H57       1.0  0.24909  0.19521  0.27073  1.0000
  H   H58       1.0  0.28324  0.21728  0.28235  1.0000
  H   H59       1.0  0.27597  0.11011  0.24055  1.0000
  H   H60       1.0  0.24710  0.13101  0.25663  1.0000
  H   H61       1.0  0.35855  0.13315  0.28465  1.0000
  H   H62       1.0  0.39108  0.01567  0.16679  1.0000
  H   H63       1.0  0.31279  0.22148  0.23106  1.0000
  H   H64       1.0  0.29351  0.23268  0.25322  1.0000
  H   H65       1.0  0.36696  0.24941  0.24023  1.0000
  H   H66       1.0  0.33034  0.27661  0.24053  1.0000
  H   H67       1.0  0.34742  0.26121  0.26257  1.0000
  H   H68       1.0  0.23379  0.20938  0.30341  1.0000
  H   H69       1.0  0.23652  0.16563  0.30071  1.0000
  C   C52       1.0  0.02979  0.20427  0.01244  1.0000
  H   H70       1.0  0.39786  0.06580  0.21937  1.0000
  H   H71       1.0  0.24702  0.13690  0.21307  1.0000
  H   H72       1.0  0.21843  0.11229  0.22728  1.0000
  H   H73       1.0  0.21710  0.15619  0.22926  1.0000
  N   N5        1.0  0.33468  0.42450  0.14246  1.0000
  H   H74       1.0  0.29150  0.33792  0.02167  1.0000
  H   H75       1.0  0.06125  0.46661  0.28380  1.0000
  N   N6        1.0  0.26834  0.30418  0.04179  1.0000
  C   C53       1.0  0.10775  0.26872  0.22618  1.0000
  H   H76       1.0  0.30246  0.28671  0.00592  1.0000
  H   H77       1.0  0.02417  0.42489  0.26896  1.0000
  C   C54       1.0  0.25409  0.26696  0.07060  1.0000
  C   C55       1.0  0.37693  0.41213  0.11449  1.0000
  C   C56       1.0  0.22016  0.38618  0.05348  1.0000
  H   H78       1.0  0.01528  0.23468  0.05224  1.0000
  H   H79       1.0  0.27021  0.24751  0.01821  1.0000
  C   C57       1.0  0.04709  0.13960  0.08719  1.0000
  C   C58       1.0  0.41401  0.41791  0.10821  1.0000
  H   H80       1.0  0.43220  0.41011  0.11949  1.0000
  C   C59       1.0  0.25265  0.33192  0.05308  1.0000
  H   H81       1.0  0.31525  0.39194  0.12064  1.0000
  C   C60       1.0  0.00920  0.42715  0.29912  1.0000
  C   C61       1.0  0.05398  0.13155  0.31726  1.0000
  H   H82       1.0  0.07055  0.22896  0.22492  1.0000
  H   H83       1.0  0.02811  0.13967  0.31249  1.0000
  C   C62       1.0  0.29910  0.31749  0.03122  1.0000
  H   H84       1.0  0.31675  0.39613  0.16639  1.0000
  H   H85       1.0  0.35999  0.41899  0.10246  1.0000
  H   H86       1.0  0.37380  0.38570  0.11700  1.0000
  H   H87       1.0  0.27703  0.45805  0.12294  1.0000
  H   H88       1.0  0.30315  0.28823  0.06392  1.0000
  H   H89       1.0  0.21519  0.29493  0.03402  1.0000
  H   H90       1.0  0.29103  0.25668  0.04839  1.0000
  H   H91       1.0  0.42606  0.14635  0.11348  1.0000
  H   H92       1.0  0.37757  0.36420  0.14515  1.0000
  H   H93       1.0  0.32425  0.33729  0.17332  1.0000
  H   H94       1.0  0.37127  0.08004  0.26865  1.0000
  H   H95       1.0  0.09523  0.34790  0.24155  1.0000
  H   H96       1.0  0.24630  0.41277  0.10758  1.0000
  H   H97       1.0  0.41956  0.40325  0.09532  1.0000
  H   H98       1.0  0.07034  0.31866  0.16736  1.0000
  H   H99       1.0  0.04326  0.39330  0.28350  1.0000
  H   H100      1.0  0.44319  0.02696  0.13448  1.0000
  S   S20       1.0  0.11722  0.21667  0.32608  1.0000
  C   C63       1.0  0.46094  0.08679  0.14393  1.0000
  H   H101      1.0  0.22902  0.32355  0.06051  1.0000
  H   H102      1.0  0.12675  0.32043  0.17603  1.0000
  C   C64       1.0  0.43281  0.10435  0.13202  1.0000
  C   C65       1.0  0.42661  0.07744  0.17273  1.0000
  H   H103      1.0  0.09651  0.03471  0.30877  1.0000
  C   C66       1.0  0.42518  0.06103  0.19262  1.0000
  H   H104      1.0  0.25965  0.44330  0.09056  1.0000
  H   H105      1.0  0.06881  0.15399  0.06047  1.0000
  H   H106      1.0  0.05461  0.02941  0.31763  1.0000
  H   H107      1.0  0.05342  0.16257  0.02644  1.0000
  C   C67       1.0  0.38692  0.10218  0.26577  1.0000
  H   H108      1.0  0.40213  0.10363  0.20637  1.0000
  H   H109      1.0  0.36851  0.34737  0.17866  1.0000
  H   H110      1.0  0.41808  0.44419  0.10478  1.0000
  H   H111      1.0  0.33337  0.35429  0.13984  1.0000
  H   H112      1.0  0.05042  0.19825  0.04043  1.0000
  H   H113      1.0  0.37163  0.07323  0.19869  1.0000
  H   H114      1.0  0.01165  0.22465  0.01535  1.0000
  C   C68       1.0  0.36786  0.43256  0.13233  1.0000
  H   H115      1.0  0.10170  0.22523  0.24366  1.0000
  C   C69       1.0  0.26890  0.42410  0.10056  1.0000
  C   C70       1.0  0.47346  0.12634  0.21980  1.0000
  H   H116      1.0  0.41072  0.11179  0.14098  1.0000
  H   H117      1.0  0.17921  0.31795  0.19265  1.0000
  C   C71       1.0  0.08199  0.02708  0.32169  1.0000
  H   H118      1.0  0.39602  0.10164  0.25082  1.0000
  H   H119      1.0  0.99679  0.21344  0.07242  1.0000
  H   H120      1.0  0.27080  0.18764  0.31240  1.0000
  C   C72       1.0  0.35161  0.30810  0.01037  1.0000
  H   H121      1.0  0.28436  0.40402  0.13757  1.0000
  S   S21       1.0  0.35920  0.03766  0.06901  1.0000
  H   H122      1.0  0.06775  0.28060  0.20682  1.0000
  C   C73       1.0  0.12519  0.30395  0.18864  1.0000
  H   H123      1.0  0.98864  0.36543  0.28236  1.0000
  C   C74       1.0  0.03527  0.41938  0.28306  1.0000
  H   H124      1.0  0.07044  0.14695  0.09511  1.0000
  C   C75       1.0  0.00141  0.39349  0.23314  1.0000
  H   H125      1.0  0.01376  0.41705  0.23173  1.0000
  H   H126      1.0  0.00451  0.45400  0.29830  1.0000
  H   H127      1.0  0.38984  0.43074  0.14238  1.0000
  H   H128      1.0  0.23586  0.23910  0.03425  1.0000
  H   H129      1.0  0.34569  0.33026  0.00177  1.0000
  H   H130      1.0  0.01141  0.36048  0.18391  1.0000
  H   H131      1.0  0.42778  0.00304  0.00184  1.0000
  H   H132      1.0  0.04147  0.08099  0.31368  1.0000
  C   C76       1.0  0.05475  0.32703  0.17962  1.0000
  H   H133      1.0  0.24171  0.30678  0.01492  1.0000
  H   H134      1.0  0.40977  0.10156  0.27517  1.0000
  H   H135      1.0  0.22747  0.35649  0.02872  1.0000
  H   H136      1.0  0.26548  0.37650  0.03739  1.0000
  C   C77       1.0  0.22028  0.24802  0.00551  1.0000
  C   C78       1.0  0.30671  0.41320  0.12923  1.0000
  H   H137      1.0  0.16719  0.28432  0.20729  1.0000
  C   C79       1.0  0.29258  0.43947  0.11525  1.0000
  H   H138      1.0  0.00802  0.36646  0.30504  1.0000
  S   S22       1.0  0.06041  0.30123  0.31245  1.0000
  H   H139      1.0  0.27053  0.33993  0.06442  1.0000
  H   H140      1.0  0.28285  0.40507  0.09235  1.0000
  H   H141      1.0  0.35884  0.31507  0.16231  1.0000
  H   H142      1.0  0.22895  0.26177  0.06391  1.0000
  H   H143      1.0  0.23400  0.39331  0.06657  1.0000
  H   H144      1.0  0.04431  0.18525  0.07214  1.0000
  C   C80       1.0  0.24392  0.25506  0.02229  1.0000
  H   H145      1.0  0.24745  0.22903  0.09197  1.0000
  C   C81       1.0  0.06764  0.44014  0.28492  1.0000
  C   C82       1.0  0.46214  0.14117  0.25228  1.0000
  H   H146      1.0  0.12384  0.28036  0.23720  1.0000
  C   C83       1.0  0.02866  0.35217  0.17225  1.0000
  H   H147      1.0  0.40483  0.04869  0.14001  1.0000
  H   H148      1.0  0.04873  0.11289  0.08436  1.0000
  H   H149      1.0  0.36780  0.45848  0.12745  1.0000
  H   H150      1.0  0.09150  0.38076  0.22447  1.0000
  C   C84       1.0  0.34517  0.46902  0.16814  1.0000
  H   H151      1.0  0.06684  0.25429  0.24573  1.0000
  H   H152      1.0  0.14622  0.32571  0.22440  1.0000
  H   H153      1.0  0.42349  0.08782  0.12068  1.0000
  H   H154      1.0  0.08595  0.43381  0.27340  1.0000
  C   C85       1.0  0.13583  0.38362  0.24188  1.0000
  H   H155      1.0  0.05921  0.35126  0.20631  1.0000
  C   C86       1.0  0.07759  0.34221  0.19534  1.0000
  H   H156      1.0  0.19322  0.25432  0.00905  1.0000
  H   H157      1.0  0.06872  0.30662  0.22669  1.0000
  H   H158      1.0  0.41961  0.03457  0.19185  1.0000
  H   H159      1.0  0.16481  0.24771  0.17925  1.0000
  S   S23       1.0  0.26455  0.41877  0.00500  1.0000
  H   H160      1.0  0.01961  0.18933  0.00064  1.0000
  C   C87       1.0  0.16347  0.29532  0.19309  1.0000
  C   C88       1.0  0.12742  0.34092  0.21638  1.0000
  H   H161      1.0  0.46868  0.12883  0.11289  1.0000
  C   C89       1.0  0.41262  0.00715  0.15766  1.0000
  H   H162      1.0  0.31843  0.47539  0.14193  1.0000
  H   H163      1.0  0.00559  0.12916  0.01962  1.0000
  H   H164      1.0  0.14291  0.35733  0.20707  1.0000
  H   H165      1.0  0.15429  0.36762  0.24959  1.0000
  C   C90       1.0  0.10950  0.36310  0.23120  1.0000
  H   H166      1.0  0.01924  0.12272  0.05237  1.0000
  H   H167      1.0  0.48349  0.03029  0.04510  1.0000
  H   H168      1.0  0.36489  0.29010  0.00110  1.0000
  H   H169      1.0  0.36933  0.31469  0.02208  1.0000
  C   C91       1.0  0.46268  0.46158  0.99557  1.0000
  C   C92       1.0  0.45271  0.99799  0.99565  1.0000
  C   C93       1.0  0.00166  0.33800  0.24611  1.0000
  C   C94       1.0  0.99172  0.22322  0.05801  1.0000
  H   H170      1.0  0.04191  0.37377  0.16607  1.0000
  H   H171      1.0  0.47492  0.10636  0.15164  1.0000
  H   H172      1.0  0.47511  0.05151  0.02317  1.0000
  C   C95       1.0  0.06335  0.21946  0.00544  1.0000
  H   H173      1.0  0.37149  0.47354  0.16266  1.0000
  H   H174      1.0  0.47977  0.07600  0.13374  1.0000
  H   H175      1.0  0.10666  0.08920  0.31996  1.0000
  H   H176      1.0  0.99078  0.14617  0.06659  1.0000
  H   H177      1.0  0.43212  0.99462  0.16652  1.0000
  H   H178      1.0  0.98839  0.30487  0.30108  1.0000
  H   H179      1.0  0.37798  0.99221  0.13497  1.0000
  C   C96       1.0  0.99612  0.39161  0.45143  1.0000
  S   S24       1.0  0.38075  0.35607  0.64178  1.0000
  Fe  Fe13      1.0  0.37583  0.19336  0.52576  1.0000
  S   S25       1.0  0.32432  0.21829  0.52938  1.0000
  S   S26       1.0  0.41185  0.20029  0.50003  1.0000
  Fe  Fe14      1.0  0.36204  0.14624  0.55939  1.0000
  S   S27       1.0  0.30992  0.16798  0.56492  1.0000
  S   S28       1.0  0.38896  0.10399  0.57523  1.0000
  Fe  Fe15      1.0  0.30217  0.16767  0.53312  1.0000
  S   S29       1.0  0.24833  0.15531  0.52167  1.0000
  Fe  Fe16      1.0  0.33555  0.21701  0.56085  1.0000
  S   S30       1.0  0.31689  0.25874  0.58024  1.0000
  S   S31       1.0  0.35284  0.14268  0.52788  1.0000
  S   S32       1.0  0.38857  0.19530  0.55697  1.0000
  Fe  Fe17      1.0  0.05408  0.04767  0.44779  1.0000
  S   S33       1.0  0.09856  0.01242  0.44498  1.0000
  H   H180      1.0  0.03414  0.09721  0.33726  1.0000
  Fe  Fe18      1.0  0.08355  0.09379  0.41627  1.0000
  S   S34       1.0  0.12899  0.06078  0.41117  1.0000
  S   S35       1.0  0.07119  0.14362  0.40254  1.0000
  Fe  Fe19      1.0  0.09197  0.01845  0.41326  1.0000
  H   H181      1.0  0.98834  0.00691  0.58580  1.0000
  Fe  Fe20      1.0  0.13212  0.05772  0.44329  1.0000
  S   S36       1.0  0.18596  0.06387  0.45628  1.0000
  S   S37       1.0  0.04618  0.05209  0.41629  1.0000
  S   S38       1.0  0.08809  0.09243  0.44815  1.0000
  H   H182      1.0  0.43439  0.33613  0.44916  1.0000
  S   S39       1.0  0.33112  0.44311  0.65671  1.0000
  C   C97       1.0  0.08432  0.16349  0.38120  1.0000
  C   C98       1.0  0.06802  0.19290  0.37574  1.0000
  C   C99       1.0  0.07789  0.20977  0.35907  1.0000
  C   C100      1.0  0.10436  0.19741  0.34766  1.0000
  C   C101      1.0  0.12097  0.16819  0.35328  1.0000
  C   C102      1.0  0.11116  0.15144  0.36998  1.0000
  H   H183      1.0  0.04742  0.20265  0.38440  1.0000
  H   H184      1.0  0.06485  0.23215  0.35497  1.0000
  C   C103      1.0  0.02035  0.45143  0.41164  1.0000
  H   H185      1.0  0.12457  0.12950  0.37434  1.0000
  C   C104      1.0  0.11916  0.45376  0.37778  1.0000
  C   C105      1.0  0.08916  0.46175  0.36783  1.0000
  C   C106      1.0  0.07766  0.44133  0.35303  1.0000
  C   C107      1.0  0.09613  0.41295  0.34783  1.0000
  C   C108      1.0  0.12637  0.40528  0.35759  1.0000
  C   C109      1.0  0.13765  0.42547  0.37252  1.0000
  C   C110      1.0  0.31177  0.19604  0.61863  1.0000
  C   C111      1.0  0.34305  0.13854  0.65976  1.0000
  H   H186      1.0  0.14086  0.38359  0.35380  1.0000
  H   H187      1.0  0.16085  0.41902  0.38012  1.0000
  C   C112      1.0  0.23179  0.12957  0.50338  1.0000
  C   C113      1.0  0.19591  0.12663  0.50138  1.0000
  C   C114      1.0  0.18143  0.10661  0.48720  1.0000
  C   C115      1.0  0.20265  0.08949  0.47457  1.0000
  C   C116      1.0  0.23853  0.09249  0.47653  1.0000
  C   C117      1.0  0.25304  0.11233  0.49081  1.0000
  H   H188      1.0  0.17916  0.13968  0.51103  1.0000
  H   H189      1.0  0.15385  0.10410  0.48621  1.0000
  H   H190      1.0  0.25528  0.07925  0.46696  1.0000
  H   H191      1.0  0.28063  0.11426  0.49208  1.0000
  C   C118      1.0  0.33522  0.28486  0.59767  1.0000
  C   C119      1.0  0.31347  0.30613  0.60791  1.0000
  C   C120      1.0  0.32671  0.32784  0.62159  1.0000
  C   C121      1.0  0.36202  0.32858  0.62521  1.0000
  C   C122      1.0  0.38372  0.30707  0.61511  1.0000
  C   C123      1.0  0.37048  0.28540  0.60142  1.0000
  H   H192      1.0  0.28613  0.30592  0.60515  1.0000
  H   H193      1.0  0.30963  0.34399  0.62929  1.0000
  H   H194      1.0  0.41108  0.30743  0.61777  1.0000
  H   H195      1.0  0.38760  0.26944  0.59360  1.0000
  C   C124      1.0  0.35436  0.04155  0.62687  1.0000
  C   C125      1.0  0.38513  0.03471  0.61734  1.0000
  C   C126      1.0  0.39522  0.05399  0.60158  1.0000
  C   C127      1.0  0.37466  0.08020  0.59504  1.0000
  C   C128      1.0  0.34377  0.08686  0.60448  1.0000
  C   C129      1.0  0.33385  0.06777  0.62031  1.0000
  C   C130      1.0  0.48600  0.24569  0.46847  1.0000
  H   H196      1.0  0.41921  0.04860  0.59446  1.0000
  H   H197      1.0  0.32744  0.10663  0.59954  1.0000
  H   H198      1.0  0.30979  0.07304  0.62739  1.0000
  H   H199      1.0  0.04302  0.45735  0.40260  1.0000
  H   H200      1.0  0.08987  0.34776  0.41127  1.0000
  H   H201      1.0  0.36571  0.12648  0.65315  1.0000
  H   H202      1.0  0.45793  0.42344  0.43500  1.0000
  S   S40       1.0  0.07961  0.38764  0.32949  1.0000
  C   C131      1.0  0.44401  0.22872  0.49269  1.0000
  C   C132      1.0  0.45630  0.25339  0.50457  1.0000
  C   C133      1.0  0.44523  0.34061  0.43478  1.0000
  H   H203      1.0  0.44521  0.25645  0.51853  1.0000
  H   H204      1.0  0.41505  0.05535  0.51502  1.0000
  H   H205      1.0  0.29338  0.99211  0.61344  1.0000
  H   H206      1.0  0.04436  0.07112  0.52435  1.0000
  H   H207      1.0  0.00927  0.03878  0.54751  1.0000
  H   H208      1.0  0.33394  0.41124  0.56636  1.0000
  H   H209      1.0  0.04537  0.48750  0.47912  1.0000
  C   C134      1.0  0.17757  0.05330  0.36580  1.0000
  C   C135      1.0  0.42132  0.43593  0.61088  1.0000
  H   H210      1.0  0.40301  0.44162  0.62248  1.0000
  H   H211      1.0  0.39408  0.22121  0.62022  1.0000
  C   C136      1.0  0.07139  0.39723  0.40498  1.0000
  H   H212      1.0  0.34675  0.32221  0.56182  1.0000
  H   H213      1.0  0.48178  0.35983  0.46388  1.0000
  C   C137      1.0  0.38693  0.19887  0.61233  1.0000
  H   H214      1.0  0.31382  0.13597  0.63384  1.0000
  H   H215      1.0  0.46523  0.43487  0.62976  1.0000
  H   H216      1.0  0.42780  0.27608  0.44391  1.0000
  H   H217      1.0  0.22409  0.20662  0.60883  1.0000
  C   C138      1.0  0.00953  0.03294  0.37005  1.0000
  H   H218      1.0  0.38806  0.16708  0.63658  1.0000
  C   C139      1.0  0.45357  0.09283  0.51927  1.0000
  H   H219      1.0  0.14931  0.09039  0.35099  1.0000
  H   H220      1.0  0.26383  0.20016  0.63580  1.0000
  C   C140      1.0  0.45266  0.41854  0.61933  1.0000
  H   H221      1.0  0.36491  0.15090  0.61700  1.0000
  H   H222      1.0  0.44481  0.39573  0.62679  1.0000
  S   S41       1.0  0.00445  0.04419  0.46556  1.0000
  C   C141      1.0  0.14367  0.06651  0.35789  1.0000
  H   H223      1.0  0.31728  0.18251  0.60528  1.0000
  H   H224      1.0  0.08437  0.40009  0.44972  1.0000
  C   C142      1.0  0.31260  0.22600  0.65933  1.0000
  C   C143      1.0  0.42855  0.40296  0.45843  1.0000
  H   H225      1.0  0.01866  0.38567  0.41171  1.0000
  H   H226      1.0  0.03094  0.00578  0.34701  1.0000
  H   H227      1.0  0.19611  0.04837  0.35414  1.0000
  N   N7        1.0  0.33542  0.18448  0.63436  1.0000
  H   H228      1.0  0.44967  0.20629  0.46522  1.0000
  H   H229      1.0  0.05105  0.46827  0.44483  1.0000
  H   H230      1.0  0.31678  0.22222  0.61523  1.0000
  H   H231      1.0  0.01685  0.44779  0.50085  1.0000
  N   N8        1.0  0.46725  0.37094  0.43485  1.0000
  C   C144      1.0  0.00185  0.46708  0.49427  1.0000
  C   C145      1.0  0.45707  0.12786  0.52761  1.0000
  C   C146      1.0  0.08147  0.36260  0.39887  1.0000
  C   C147      1.0  0.06837  0.04325  0.35540  1.0000
  C   C148      1.0  0.34316  0.21217  0.64779  1.0000
  H   H232      1.0  0.05956  0.35036  0.39180  1.0000
  H   H233      1.0  0.04800  0.37845  0.43036  1.0000
  H   H234      1.0  0.08015  0.02432  0.36480  1.0000
  H   H235      1.0  0.32231  0.48368  0.58582  1.0000
  H   H236      1.0  0.99453  0.05947  0.57732  1.0000
  C   C149      1.0  0.03096  0.03157  0.35189  1.0000
  H   H237      1.0  0.42223  0.39999  0.42818  1.0000
  C   C150      1.0  0.01813  0.48946  0.48183  1.0000
  C   C151      1.0  0.41635  0.08124  0.51970  1.0000
  H   H238      1.0  0.28951  0.40335  0.62777  1.0000
  H   H239      1.0  0.09445  0.40876  0.41124  1.0000
  H   H240      1.0  0.42252  0.41265  0.58345  1.0000
  C   C152      1.0  0.10815  0.44161  0.46225  1.0000
  C   C153      1.0  0.37301  0.46131  0.58215  1.0000
  S   S42       1.0  0.33991  0.01837  0.64688  1.0000
  C   C154      1.0  0.36001  0.40533  0.57168  1.0000
  H   H241      1.0  0.44360  0.39635  0.39881  1.0000
  H   H242      1.0  0.01976  0.38498  0.45926  1.0000
  C   C155      1.0  0.32023  0.15518  0.64443  1.0000
  H   H243      1.0  0.41959  0.45572  0.45705  1.0000
  H   H244      1.0  0.18891  0.07163  0.37551  1.0000
  C   C156      1.0  0.36195  0.36776  0.57503  1.0000
  H   H245      1.0  0.29390  0.23802  0.64967  1.0000
  C   C157      1.0  0.48422  0.38077  0.38034  1.0000
  H   H246      1.0  0.34478  0.44582  0.61369  1.0000
  C   C158      1.0  0.34053  0.47834  0.57406  1.0000
  C   C159      1.0  0.04101  0.39653  0.41924  1.0000
  H   H247      1.0  0.26562  0.16555  0.62031  1.0000
  H   H248      1.0  0.25687  0.23763  0.60808  1.0000
  H   H249      1.0  0.37744  0.41088  0.55953  1.0000
  C   C160      1.0  0.27248  0.19183  0.62167  1.0000
  H   H250      1.0  0.35347  0.23356  0.63983  1.0000
  H   H251      1.0  0.99776  0.09896  0.54205  1.0000
  H   H252      1.0  0.11962  0.42645  0.47374  1.0000
  H   H253      1.0  0.12767  0.44483  0.45087  1.0000
  H   H254      1.0  0.10134  0.46591  0.46822  1.0000
  H   H255      1.0  0.06720  0.06568  0.36435  1.0000
  H   H256      1.0  0.43058  0.45932  0.60466  1.0000
  H   H257      1.0  0.40135  0.01483  0.62223  1.0000
  H   H258      1.0  0.31515  0.35436  0.56006  1.0000
  C   C161      1.0  0.46348  0.30830  0.42900  1.0000
  H   H259      1.0  0.01412  0.05891  0.50637  1.0000
  H   H260      1.0  0.45230  0.25674  0.42535  1.0000
  H   H261      1.0  0.47419  0.30992  0.41446  1.0000
  H   H262      1.0  0.99057  0.37165  0.44124  1.0000
  H   H263      1.0  0.29638  0.43477  0.58826  1.0000
  H   H264      1.0  0.43219  0.20310  0.59471  1.0000
  H   H265      1.0  0.37025  0.20618  0.60028  1.0000
  H   H266      1.0  0.46746  0.38043  0.36762  1.0000
  H   H267      1.0  0.00830  0.05834  0.37561  1.0000
  H   H268      1.0  0.32745  0.46343  0.56322  1.0000
  H   H269      1.0  0.12588  0.07066  0.36993  1.0000
  H   H270      1.0  0.44848  0.35264  0.39671  1.0000
  H   H271      1.0  0.41461  0.16243  0.59561  1.0000
  H   H272      1.0  0.41715  0.28368  0.41924  1.0000
  C   C162      1.0  0.28184  0.42086  0.61642  1.0000
  N   N9        1.0  0.03058  0.42899  0.42779  1.0000
  C   C163      1.0  0.30556  0.41749  0.59926  1.0000
  H   H273      1.0  0.40207  0.38945  0.60169  1.0000
  S   S43       1.0  0.13384  0.47696  0.39749  1.0000
  H   H274      1.0  0.35074  0.40302  0.61447  1.0000
  H   H275      1.0  0.25385  0.02995  0.57832  1.0000
  H   H276      1.0  0.02315  0.10156  0.50984  1.0000
  C   C164      1.0  0.36893  0.17357  0.62547  1.0000
  H   H277      1.0  0.05776  0.42240  0.46644  1.0000
  H   H278      1.0  0.25919  0.20298  0.59226  1.0000
  H   H279      1.0  0.08045  0.45244  0.42820  1.0000
  H   H280      1.0  0.48457  0.30227  0.43897  1.0000
  H   H281      1.0  0.40048  0.09627  0.50987  1.0000
  H   H282      1.0  0.42255  0.34403  0.42537  1.0000
  C   C165      1.0  0.12774  0.04275  0.34328  1.0000
  C   C166      1.0  0.34370  0.42348  0.60469  1.0000
  H   H283      1.0  0.25500  0.41537  0.61222  1.0000
  H   H284      1.0  0.47159  0.41242  0.60807  1.0000
  C   C167      1.0  0.42008  0.18463  0.60410  1.0000
  H   H285      1.0  0.38081  0.47716  0.59420  1.0000
  H   H286      1.0  0.43841  0.17817  0.61560  1.0000
  C   C168      1.0  0.25199  0.21095  0.60679  1.0000
  N   N10       1.0  0.16853  0.17889  0.42947  1.0000
  C   C169      1.0  0.17573  0.14295  0.42632  1.0000
  C   C170      1.0  0.13556  0.18256  0.44062  1.0000
  C   C171      1.0  0.16264  0.19432  0.41020  1.0000
  C   C172      1.0  0.19781  0.19631  0.43923  1.0000
  C   C173      1.0  0.22008  0.17573  0.45326  1.0000
  C   C174      1.0  0.20519  0.13541  0.41203  1.0000
  C   C175      1.0  0.15009  0.23046  0.41011  1.0000
  C   C176      1.0  0.13514  0.16770  0.46080  1.0000
  C   C177      1.0  0.09992  0.17211  0.47014  1.0000
  C   C178      1.0  0.24338  0.19752  0.46515  1.0000
  C   C179      1.0  0.22072  0.10138  0.41507  1.0000
  C   C180      1.0  0.15310  0.24568  0.39033  1.0000
  H   H287      1.0  0.15224  0.13057  0.42093  1.0000
  H   H288      1.0  0.18139  0.13011  0.43984  1.0000
  H   H289      1.0  0.12897  0.20883  0.44260  1.0000
  H   H290      1.0  0.11382  0.17168  0.43255  1.0000
  H   H291      1.0  0.14340  0.17995  0.40211  1.0000
  H   H292      1.0  0.18661  0.19356  0.40159  1.0000
  H   H293      1.0  0.21622  0.20644  0.42863  1.0000
  H   H294      1.0  0.18788  0.21812  0.44698  1.0000
  H   H295      1.0  0.23683  0.15838  0.44540  1.0000
  H   H296      1.0  0.20443  0.16104  0.46317  1.0000
  H   H297      1.0  0.19494  0.13659  0.39733  1.0000
  H   H298      1.0  0.22624  0.15350  0.41311  1.0000
  H   H299      1.0  0.16520  0.24557  0.42009  1.0000
  H   H300      1.0  0.12253  0.23171  0.41421  1.0000
  H   H301      1.0  0.14090  0.14117  0.46044  1.0000
  H   H302      1.0  0.15389  0.18029  0.47001  1.0000
  H   H303      1.0  0.09984  0.15977  0.48421  1.0000
  H   H304      1.0  0.09410  0.19851  0.47221  1.0000
  H   H305      1.0  0.07940  0.16115  0.46131  1.0000
  H   H306      1.0  0.25965  0.18201  0.47455  1.0000
  H   H307      1.0  0.26048  0.21233  0.45589  1.0000
  H   H308      1.0  0.22779  0.21403  0.47427  1.0000
  H   H309      1.0  0.20066  0.08228  0.41415  1.0000
  H   H310      1.0  0.24045  0.09643  0.40405  1.0000
  H   H311      1.0  0.23321  0.09976  0.42921  1.0000
  H   H312      1.0  0.18042  0.24693  0.38581  1.0000
  H   H313      1.0  0.13853  0.23107  0.37985  1.0000
  H   H314      1.0  0.14233  0.27092  0.39043  1.0000
  C   C181      1.0  0.43850  0.27955  0.42941  1.0000
  H   H315      1.0  0.27580  0.04725  0.59849  1.0000
  H   H316      1.0  0.14163  0.15853  0.34464  1.0000
  H   H317      1.0  0.28262  0.44622  0.62204  1.0000
  H   H318      1.0  0.44889  0.40555  0.46932  1.0000
  H   H319      1.0  0.43648  0.14354  0.52129  1.0000
  C   C182      1.0  0.00455  0.48499  0.41737  1.0000
  H   H320      1.0  0.13067  0.01767  0.34931  1.0000
  C   C183      1.0  0.07621  0.42472  0.45450  1.0000
  N   N11       1.0  0.09061  0.04922  0.33808  1.0000
  N   N12       1.0  0.36928  0.42615  0.58856  1.0000
  H   H321      1.0  0.46885  0.07508  0.52779  1.0000
  H   H322      1.0  0.29551  0.16148  0.65137  1.0000
  H   H323      1.0  0.39401  0.46316  0.57141  1.0000
  C   C184      1.0  0.44423  0.40020  0.43824  1.0000
  C   C185      1.0  0.01984  0.07769  0.51721  1.0000
  H   H324      1.0  0.40558  0.08283  0.53428  1.0000
  H   H325      1.0  0.10314  0.36380  0.38862  1.0000
  C   C186      1.0  0.45888  0.22526  0.47456  1.0000
  C   C187      1.0  0.48325  0.27399  0.49843  1.0000
  C   C188      1.0  0.34314  0.34895  0.55956  1.0000
  H   H326      1.0  0.00159  0.43893  0.40222  1.0000
  H   H327      1.0  0.46041  0.16831  0.55992  1.0000
  H   H328      1.0  0.35342  0.35536  0.54532  1.0000
  H   H329      1.0  0.39417  0.43440  0.47451  1.0000
  H   H330      1.0  0.29029  0.05636  0.57476  1.0000
  H   H331      1.0  0.41305  0.38106  0.46197  1.0000
  C   C189      1.0  0.08789  0.08447  0.33163  1.0000
  C   C190      1.0  0.40405  0.41457  0.59551  1.0000
  H   H332      1.0  0.45032  0.12553  0.54289  1.0000
  H   H333      1.0  0.30233  0.39230  0.59371  1.0000
  H   H334      1.0  0.07466  0.48340  0.37168  1.0000
  H   H335      1.0  0.01757  0.04641  0.34103  1.0000
  H   H336      1.0  0.14437  0.04336  0.33038  1.0000
  H   H337      1.0  0.05427  0.44756  0.34557  1.0000
  H   H338      1.0  0.35069  0.36100  0.58891  1.0000
  H   H339      1.0  0.38337  0.43113  0.44976  1.0000
  C   C191      1.0  0.40501  0.43292  0.45995  1.0000
  H   H340      1.0  0.09487  0.10131  0.34332  1.0000
  C   C192      1.0  0.46255  0.37600  0.39824  1.0000
  H   H341      1.0  0.38918  0.35941  0.57496  1.0000
  H   H342      1.0  0.06406  0.41077  0.39194  1.0000
  C   C193      1.0  0.05979  0.44494  0.43826  1.0000
  C   C194      1.0  0.30354  0.00741  0.58452  1.0000
  C   C195      1.0  0.27931  0.03699  0.58405  1.0000
  H   H343      1.0  0.17320  0.03041  0.37399  1.0000
  H   H344      1.0  0.32938  0.01641  0.58848  1.0000
  H   H345      1.0  0.46236  0.09165  0.50433  1.0000
  H   H346      1.0  0.06274  0.14866  0.32843  1.0000
  H   H347      1.0  0.46178  0.22852  0.55558  1.0000
  C   C196      1.0  0.99051  0.08007  0.53159  1.0000
  H   H348      1.0  0.47419  0.14978  0.49590  1.0000
  C   C197      1.0  0.48424  0.21537  0.56174  1.0000
  H   H349      1.0  0.30481  0.99752  0.56993  1.0000
  H   H350      1.0  0.46788  0.19159  0.52673  1.0000
  C   C198      1.0  0.99961  0.42472  0.44067  1.0000
  H   H351      1.0  0.36395  0.20506  0.65782  1.0000
  H   H352      1.0  0.02074  0.01652  0.38103  1.0000
  H   H353      1.0  0.48242  0.21639  0.57742  1.0000
  H   H354      1.0  0.99836  0.44485  0.45130  1.0000
  C   C199      1.0  0.48480  0.17967  0.55524  1.0000
  C   C200      1.0  0.48554  0.37572  0.41618  1.0000
  H   H355      1.0  0.00420  0.99243  0.56329  1.0000
  H   H356      1.0  0.05695  0.99911  0.65853  1.0000
  H   H357      1.0  0.03224  0.15593  0.79806  1.0000
  H   H358      1.0  0.18681  0.48323  0.75137  1.0000
  Fe  Fe21      1.0  0.40504  0.43328  0.69430  1.0000
  S   S44       1.0  0.35998  0.39917  0.69288  1.0000
  S   S45       1.0  0.45205  0.43037  0.71408  1.0000
  H   H359      1.0  0.23589  0.01901  0.97615  1.0000
  Fe  Fe22      1.0  0.32762  0.44534  0.68897  1.0000
  S   S46       1.0  0.27599  0.44935  0.70530  1.0000
  H   H360      1.0  0.15494  0.09437  0.90077  1.0000
  C   C201      1.0  0.16303  0.99725  0.91946  1.0000
  Fe  Fe23      1.0  0.11451  0.09048  0.81419  1.0000
  S   S47       1.0  0.06263  0.06782  0.81807  1.0000
  S   S48       1.0  0.13718  0.13190  0.83198  1.0000
  Fe  Fe24      1.0  0.13237  0.04653  0.77991  1.0000
  S   S49       1.0  0.08120  0.02101  0.78179  1.0000
  S   S50       1.0  0.16985  0.04285  0.75466  1.0000
  Fe  Fe25      1.0  0.05766  0.07094  0.78627  1.0000
  H   H361      1.0  0.22478  0.07516  0.85208  1.0000
  Fe  Fe26      1.0  0.08995  0.01964  0.81345  1.0000
  S   S51       1.0  0.11793  0.46651  0.82767  1.0000
  S   S52       1.0  0.10794  0.09676  0.78261  1.0000
  S   S53       1.0  0.14264  0.04205  0.81136  1.0000
  Fe  Fe27      1.0  0.13889  0.30308  0.94334  1.0000
  S   S54       1.0  0.09810  0.34044  0.94915  1.0000
  S   S55       1.0  0.19254  0.30492  0.95694  1.0000
  Fe  Fe28      1.0  0.09216  0.26556  0.91553  1.0000
  S   S56       1.0  0.04901  0.30230  0.91943  1.0000
  S   S57       1.0  0.07526  0.22029  0.89865  1.0000
  Fe  Fe29      1.0  0.08983  0.34112  0.91752  1.0000
  S   S58       1.0  0.08124  0.39302  0.90578  1.0000
  Fe  Fe30      1.0  0.06060  0.29850  0.95057  1.0000
  S   S59       1.0  0.01923  0.30005  0.97391  1.0000
  S   S60       1.0  0.13231  0.30500  0.91139  1.0000
  S   S61       1.0  0.10219  0.26058  0.94702  1.0000
  C   C202      1.0  0.46821  0.02114  0.98340  1.0000
  H   H362      1.0  0.02634  0.06425  0.85612  1.0000
  H   H363      1.0  0.19555  0.41005  0.99181  1.0000
  C   C203      1.0  0.10739  0.44678  0.84959  1.0000
  C   C204      1.0  0.11518  0.41322  0.85184  1.0000
  C   C205      1.0  0.10754  0.39635  0.86887  1.0000
  C   C206      1.0  0.09175  0.41283  0.88392  1.0000
  C   C207      1.0  0.08392  0.44636  0.88171  1.0000
  C   C208      1.0  0.09177  0.46327  0.86472  1.0000
  H   H364      1.0  0.12731  0.40017  0.84027  1.0000
  H   H365      1.0  0.11377  0.37061  0.87029  1.0000
  H   H366      1.0  0.07175  0.45944  0.89324  1.0000
  H   H367      1.0  0.47471  0.25843  0.84159  1.0000
  C   C209      1.0  0.11929  0.15635  0.85036  1.0000
  C   C210      1.0  0.08601  0.15148  0.85726  1.0000
  C   C211      1.0  0.07316  0.17114  0.87211  1.0000
  C   C212      1.0  0.09325  0.19610  0.88014  1.0000
  C   C213      1.0  0.12642  0.20115  0.87310  1.0000
  C   C214      1.0  0.13935  0.18129  0.85834  1.0000
  H   H368      1.0  0.07030  0.13248  0.85123  1.0000
  H   H369      1.0  0.04741  0.16709  0.87740  1.0000
  H   H370      1.0  0.14216  0.22027  0.87906  1.0000
  H   H371      1.0  0.16514  0.18532  0.85309  1.0000
  H   H372      1.0  0.17933  0.02022  0.89379  1.0000
  H   H373      1.0  0.03593  0.13973  0.75420  1.0000
  H   H374      1.0  0.99842  0.05404  0.70112  1.0000
  H   H375      1.0  0.08534  0.14995  0.72369  1.0000
  C   C215      1.0  0.47360  0.39558  0.72391  1.0000
  Fe  Fe31      1.0  0.37772  0.47502  0.66002  1.0000
  H   H376      1.0  0.99161  0.18172  0.78138  1.0000
  H   H377      1.0  0.01137  0.18070  0.73169  1.0000
  C   C216      1.0  0.40676  0.42817  0.76591  1.0000
  C   C217      1.0  0.06895  0.03546  0.86774  1.0000
  Fe  Fe32      1.0  0.36688  0.39986  0.66098  1.0000
  C   C218      1.0  0.20017  0.45432  0.86777  1.0000
  C   C219      1.0  0.45942  0.36418  0.72358  1.0000
  H   H378      1.0  0.38701  0.41338  0.77339  1.0000
  H   H379      1.0  0.43505  0.36034  0.71660  1.0000
  C   C220      1.0  0.21199  0.33672  0.97046  1.0000
  C   C221      1.0  0.24702  0.33410  0.97528  1.0000
  H   H380      1.0  0.13970  0.47362  0.68695  1.0000
  H   H381      1.0  0.26162  0.31301  0.97058  1.0000
  H   H382      1.0  0.21760  0.44401  0.73031  1.0000
  H   H383      1.0  0.37879  0.99853  0.91770  1.0000
  H   H384      1.0  0.48291  0.38384  0.85632  1.0000
  H   H385      1.0  0.08383  0.00006  0.68992  1.0000
  H   H386      1.0  0.09428  0.43511  0.93967  1.0000
  H   H387      1.0  0.14268  0.03415  0.86316  1.0000
  H   H388      1.0  0.17197  0.04801  0.91343  1.0000
  H   H389      1.0  0.02825  0.43372  0.95730  1.0000
  H   H390      1.0  0.18580  0.40905  0.88091  1.0000
  H   H391      1.0  0.08560  0.48902  0.86327  1.0000
  H   H392      1.0  0.20264  0.47574  0.94708  1.0000
  C   C222      1.0  0.06219  0.01725  0.68726  1.0000
  H   H393      1.0  0.44117  0.29480  0.79780  1.0000
  C   C223      1.0  0.32463  0.25227  0.67317  1.0000
  C   C224      1.0  0.00946  0.13788  0.74979  1.0000
  H   H394      1.0  0.10765  0.08136  0.92469  1.0000
  H   H395      1.0  0.24677  0.37035  0.91926  1.0000
  H   H396      1.0  0.44145  0.42932  0.82993  1.0000
  C   C225      1.0  0.25182  0.46644  0.95937  1.0000
  H   H397      1.0  0.07140  0.01126  0.87479  1.0000
  H   H398      1.0  0.09883  0.03736  0.74256  1.0000
  C   C226      1.0  0.02979  0.03685  0.72531  1.0000
  C   C227      1.0  0.10587  0.10147  0.91411  1.0000
  H   H399      1.0  0.01246  0.17967  0.83815  1.0000
  H   H400      1.0  0.44153  0.38547  0.82939  1.0000
  C   C228      1.0  0.99810  0.39138  0.93041  1.0000
  H   H401      1.0  0.23829  0.48000  0.93097  1.0000
  H   H402      1.0  0.27699  0.45489  0.95596  1.0000
  H   H403      1.0  0.10181  0.13837  0.93613  1.0000
  C   C229      1.0  0.45090  0.41808  0.79190  1.0000
  H   H404      1.0  0.14521  0.13027  0.92840  1.0000
  H   H405      1.0  0.07465  0.27857  0.84438  1.0000
  C   C230      1.0  0.18600  0.43534  0.88477  1.0000
  C   C231      1.0  0.47639  0.33782  0.73269  1.0000
  N   N13       1.0  0.48472  0.40343  0.79828  1.0000
  H   H406      1.0  0.28341  0.99251  0.95801  1.0000
  N   N14       1.0  0.19640  0.42363  0.92051  1.0000
  C   C232      1.0  0.16173  0.43691  0.92637  1.0000
  C   C233      1.0  0.20774  0.44154  0.90282  1.0000
  C   C234      1.0  0.19311  0.38731  0.91708  1.0000
  C   C235      1.0  0.09289  0.02818  0.72810  1.0000
  C   C236      1.0  0.14822  0.42532  0.94597  1.0000
  C   C237      1.0  0.22549  0.37010  0.90881  1.0000
  H   H407      1.0  0.12453  0.08556  0.73127  1.0000
  C   C238      1.0  0.12771  0.09369  0.89625  1.0000
  C   C239      1.0  0.11365  0.44129  0.95061  1.0000
  C   C240      1.0  0.21829  0.33433  0.90410  1.0000
  H   H408      1.0  0.14189  0.42983  0.91586  1.0000
  S   S62       1.0  0.41351  0.43191  0.66295  1.0000
  H   H409      1.0  0.01754  0.20656  0.76570  1.0000
  H   H410      1.0  0.46277  0.34086  0.81646  1.0000
  H   H411      1.0  0.17078  0.38213  0.90771  1.0000
  H   H412      1.0  0.18717  0.37425  0.93059  1.0000
  H   H413      1.0  0.44994  0.44457  0.79565  1.0000
  H   H414      1.0  0.02532  0.26782  0.82289  1.0000
  H   H415      1.0  0.14450  0.39846  0.94604  1.0000
  H   H416      1.0  0.16614  0.43171  0.95756  1.0000
  H   H417      1.0  0.43315  0.35453  0.79826  1.0000
  H   H418      1.0  0.23440  0.38200  0.89555  1.0000
  C   C241      1.0  0.02662  0.40748  0.96140  1.0000
  H   H419      1.0  0.19209  0.06751  0.88094  1.0000
  C   C242      1.0  0.16200  0.02642  0.90578  1.0000
  H   H420      1.0  0.11136  0.10099  0.70849  1.0000
  H   H421      1.0  0.00868  0.41538  0.92569  1.0000
  H   H422      1.0  0.24203  0.32249  0.89861  1.0000
  H   H423      1.0  0.20999  0.32080  0.91700  1.0000
  H   H424      1.0  0.19806  0.33262  0.89307  1.0000
  C   C243      1.0  0.00587  0.16913  0.82417  1.0000
  H   H425      1.0  0.20696  0.46846  0.90519  1.0000
  H   H426      1.0  0.24873  0.42079  0.93073  1.0000
  H   H427      1.0  0.17551  0.10223  0.86835  1.0000
  C   C244      1.0  0.26352  0.35871  0.98591  1.0000
  H   H428      1.0  0.11882  0.00980  0.89035  1.0000
  H   H429      1.0  0.99549  0.22831  0.80559  1.0000
  H   H430      1.0  0.18669  0.07596  0.83784  1.0000
  H   H431      1.0  0.16151  0.46416  0.92612  1.0000
  H   H432      1.0  0.10437  0.43217  0.96456  1.0000
  C   C245      1.0  0.22735  0.46469  0.94251  1.0000
  C   C246      1.0  0.21989  0.02052  0.72991  1.0000
  C   C247      1.0  0.06841  0.08346  0.72640  1.0000
  H   H433      1.0  0.02559  0.38899  0.86067  1.0000
  H   H434      1.0  0.09816  0.13450  0.74672  1.0000
  C   C248      1.0  0.19359  0.36426  0.97658  1.0000
  H   H435      1.0  0.16657  0.36647  0.97330  1.0000
  H   H436      1.0  0.06229  0.08429  0.74187  1.0000
  C   C249      1.0  0.22653  0.46898  0.73133  1.0000
  H   H437      1.0  0.08339  0.03463  0.85419  1.0000
  H   H438      1.0  0.03772  0.00561  0.69155  1.0000
  C   C250      1.0  0.22294  0.42883  0.93575  1.0000
  C   C251      1.0  0.12520  0.03238  0.89832  1.0000
  C   C252      1.0  0.45924  0.34473  0.80100  1.0000
  H   H439      1.0  0.21620  0.04381  0.72283  1.0000
  C   C253      1.0  0.25561  0.47856  0.72071  1.0000
  H   H440      1.0  0.06555  0.06241  0.89360  1.0000
  H   H441      1.0  0.42890  0.40705  0.79953  1.0000
  H   H442      1.0  0.45643  0.31326  0.77612  1.0000
  H   H443      1.0  0.08493  0.03393  0.66060  1.0000
  N   N15       1.0  0.04636  0.20612  0.80419  1.0000
  H   H444      1.0  0.40412  0.45427  0.77007  1.0000
  C   C254      1.0  0.06065  0.22577  0.82060  1.0000
  C   C255      1.0  0.07420  0.20317  0.78930  1.0000
  C   C256      1.0  0.03692  0.17196  0.81054  1.0000
  C   C257      1.0  0.10423  0.09950  0.72368  1.0000
  H   H445      1.0  0.24040  0.45383  0.97182  1.0000
  C   C258      1.0  0.10870  0.18794  0.79610  1.0000
  C   C259      1.0  0.03509  0.24754  0.83198  1.0000
  C   C260      1.0  0.05255  0.26335  0.84900  1.0000
  C   C261      1.0  0.99625  0.13332  0.82753  1.0000
  H   H446      1.0  0.03395  0.27926  0.85665  1.0000
  C   C262      1.0  0.13601  0.18941  0.78053  1.0000
  H   H447      1.0  0.30091  0.12241  0.67802  1.0000
  C   C263      1.0  0.10436  0.13445  0.73136  1.0000
  H   H448      1.0  0.07419  0.20938  0.83087  1.0000
  H   H449      1.0  0.08066  0.24317  0.81547  1.0000
  H   H450      1.0  0.07984  0.22772  0.78306  1.0000
  H   H451      1.0  0.06565  0.18753  0.77734  1.0000
  H   H452      1.0  0.98982  0.12114  0.81392  1.0000
  H   H453      1.0  0.05889  0.16015  0.81804  1.0000
  C   C264      1.0  0.24513  0.38631  0.99199  1.0000
  C   C265      1.0  0.44282  0.41537  0.77039  1.0000
  H   H454      1.0  0.99385  0.34706  0.90317  1.0000
  H   H455      1.0  0.09499  0.05717  0.69381  1.0000
  H   H456      1.0  0.10501  0.16183  0.79976  1.0000
  H   H457      1.0  0.11913  0.20055  0.80873  1.0000
  H   H458      1.0  0.21766  0.41297  0.94829  1.0000
  H   H459      1.0  0.03388  0.35625  0.87720  1.0000
  H   H460      1.0  0.02769  0.03791  0.74109  1.0000
  H   H461      1.0  0.06182  0.24430  0.85901  1.0000
  H   H462      1.0  0.10719  0.03252  0.91059  1.0000
  H   H463      1.0  0.04969  0.10016  0.71936  1.0000
  H   H464      1.0  0.99510  0.35603  0.86300  1.0000
  H   H465      1.0  0.46100  0.43025  0.76188  1.0000
  C   C266      1.0  0.99457  0.39119  0.88625  1.0000
  H   H466      1.0  0.02466  0.24881  0.79047  1.0000
  H   H467      1.0  0.12728  0.17625  0.76768  1.0000
  H   H468      1.0  0.14188  0.21523  0.77678  1.0000
  H   H469      1.0  0.15998  0.17745  0.78568  1.0000
  C   C267      1.0  0.01639  0.22396  0.79519  1.0000
  H   H470      1.0  0.44407  0.40585  0.86215  1.0000
  C   C268      1.0  0.08200  0.06340  0.88070  1.0000
  H   H471      1.0  0.12457  0.11484  0.88632  1.0000
  C   C269      1.0  0.11817  0.13291  0.92359  1.0000
  H   H472      1.0  0.01774  0.11991  0.83441  1.0000
  H   H473      1.0  0.05150  0.06901  0.69168  1.0000
  H   H474      1.0  0.07593  0.08705  0.87348  1.0000
  H   H475      1.0  0.33701  0.27285  0.66540  1.0000
  N   N16       1.0  0.06476  0.04884  0.71915  1.0000
  H   H476      1.0  0.11737  0.03073  0.72000  1.0000
  H   H477      1.0  0.11626  0.46832  0.95139  1.0000
  C   C270      1.0  0.20050  0.01331  0.74630  1.0000
  C   C271      1.0  0.19834  0.06534  0.85084  1.0000
  C   C272      1.0  0.17733  0.07504  0.86827  1.0000
  H   H478      1.0  0.01506  0.03857  0.87616  1.0000
  C   C273      1.0  0.46757  0.40620  0.85319  1.0000
  H   H479      1.0  0.46485  0.31378  0.73255  1.0000
  C   C274      1.0  0.46108  0.31107  0.79163  1.0000
  H   H480      1.0  0.25898  0.00405  0.71005  1.0000
  N   N17       1.0  0.11962  0.06224  0.88599  1.0000
  H   H481      1.0  0.15914  0.44361  0.88696  1.0000
  H   H482      1.0  0.99359  0.36624  0.95796  1.0000
  H   H483      1.0  0.13028  0.14523  0.72943  1.0000
  H   H484      1.0  0.02254  0.02060  0.85322  1.0000
  H   H485      1.0  0.45497  0.04392  0.98037  1.0000
  H   H486      1.0  0.23513  0.43601  0.89950  1.0000
  C   C275      1.0  0.01333  0.37177  0.87085  1.0000
  H   H487      1.0  0.29965  0.20665  0.66772  1.0000
  H   H488      1.0  0.12732  0.07323  0.85609  1.0000
  H   H489      1.0  0.07852  0.10556  0.91033  1.0000
  C   C276      1.0  0.99955  0.20709  0.77791  1.0000
  S   S63       1.0  0.00493  0.08294  0.77336  1.0000
  C   C277      1.0  0.14062  0.06007  0.86789  1.0000
  H   H490      1.0  0.34316  0.24180  0.68355  1.0000
  H   H491      1.0  0.35198  0.15651  0.67037  1.0000
  H   H492      1.0  0.22701  0.44668  0.86466  1.0000
  H   H493      1.0  0.11625  0.15398  0.91360  1.0000
  H   H494      1.0  0.05835  0.23414  0.99241  1.0000
  H   H495      1.0  0.01285  0.23340  0.83726  1.0000
  C   C278      1.0  0.98894  0.11278  0.75708  1.0000
  H   H496      1.0  0.29062  0.35669  0.98904  1.0000
  H   H497      1.0  0.48661  0.29951  0.79392  1.0000
  H   H498      1.0  0.14731  0.00235  0.93229  1.0000
  S   S64       1.0  0.37267  0.47949  0.69193  1.0000
  C   C279      1.0  0.32334  0.11184  0.67039  1.0000
  C   C280      1.0  0.06853  0.04974  0.69785  1.0000
  C   C281      1.0  0.99518  0.39166  0.95241  1.0000
  C   C282      1.0  0.03089  0.04017  0.86307  1.0000
  H   H499      1.0  0.40208  0.42635  0.75040  1.0000
  H   H500      1.0  0.34049  0.09986  0.68095  1.0000
  H   H501      1.0  0.48282  0.42817  0.85694  1.0000
  H   H502      1.0  0.19996  0.03829  0.84948  1.0000
  H   H503      1.0  0.01344  0.40716  0.89335  1.0000
  H   H504      1.0  0.44414  0.38961  0.76552  1.0000
  C   C283      1.0  0.45758  0.40711  0.83225  1.0000
  H   H505      1.0  0.02611  0.01071  0.72174  1.0000
  H   H506      1.0  0.30223  0.26222  0.68110  1.0000
  H   H507      1.0  0.03316  0.47009  0.74458  1.0000
  H   H508      1.0  0.03872  0.03926  0.66214  1.0000
  H   H509      1.0  0.00278  0.23369  0.96063  1.0000
  C   C284      1.0  0.06063  0.02289  0.66583  1.0000
  H   H510      1.0  0.05042  0.39469  0.95682  1.0000
  H   H511      1.0  0.22827  0.26242  0.99284  1.0000
  H   H512      1.0  0.99803  0.08138  0.72106  1.0000
  H   H513      1.0  0.20626  0.00605  0.95788  1.0000
  C   C285      1.0  0.98932  0.26973  0.98156  1.0000
  H   H514      1.0  0.31433  0.09271  0.66045  1.0000
  H   H515      1.0  0.19862  0.99529  0.98234  1.0000
  H   H516      1.0  0.18247  0.47830  0.69625  1.0000
  C   C286      1.0  0.21010  0.38888  0.98719  1.0000
  C   C287      1.0  0.99837  0.05531  0.71683  1.0000
  C   C288      1.0  0.05317  0.48878  0.74725  1.0000
  H   H517      1.0  0.18425  0.44931  0.85506  1.0000
  H   H518      1.0  0.01896  0.37341  0.92723  1.0000
  C   C289      1.0  0.24425  0.99799  0.72260  1.0000
  H   H519      1.0  0.02478  0.40574  0.97709  1.0000
  H   H520      1.0  0.07737  0.47594  0.75121  1.0000
  C   C290      1.0  0.99544  0.16106  0.73702  1.0000
  H   H521      1.0  0.19930  0.48109  0.87049  1.0000
  C   C291      1.0  0.21885  0.99892  0.97140  1.0000
  H   H522      1.0  0.32665  0.99898  0.93756  1.0000
  H   H523      1.0  0.48720  0.01615  0.92106  1.0000
  C   C292      1.0  0.20893  0.49124  0.74332  1.0000
  C   C293      1.0  0.48773  0.36757  0.79336  1.0000
  H   H524      1.0  0.18992  0.99243  0.92393  1.0000
  H   H525      1.0  0.43944  0.68814  0.25442  1.0000
  S   S65       1.0  0.40375  0.95031  0.06464  1.0000
  C   C294      1.0  0.05420  0.66854  0.30988  1.0000
  Fe  Fe33      1.0  0.32327  0.93271  0.03314  1.0000
  S   S66       1.0  0.36618  0.89629  0.03710  1.0000
  S   S67       1.0  0.27183  0.92455  0.01789  1.0000
  Fe  Fe34      1.0  0.36429  0.91007  0.06807  1.0000
  S   S68       1.0  0.35291  0.87800  0.09427  1.0000
  Fe  Fe35      1.0  0.40176  0.93993  0.03314  1.0000
  S   S69       1.0  0.45051  0.93750  0.01452  1.0000
  S   S70       1.0  0.31998  0.94521  0.06412  1.0000
  S   S71       1.0  0.35870  0.97528  0.02729  1.0000
  Fe  Fe36      1.0  0.37123  0.70494  0.15296  1.0000
  S   S72       1.0  0.32244  0.67505  0.15295  1.0000
  S   S73       1.0  0.38865  0.73494  0.12693  1.0000
  Fe  Fe37      1.0  0.39740  0.67165  0.19014  1.0000
  S   S74       1.0  0.35016  0.64072  0.19222  1.0000
  S   S75       1.0  0.44006  0.67117  0.21279  1.0000
  Fe  Fe38      1.0  0.35626  0.63210  0.16078  1.0000
  S   S76       1.0  0.35876  0.57899  0.15018  1.0000
  Fe  Fe39      1.0  0.32016  0.68642  0.18443  1.0000
  S   S77       1.0  0.26918  0.69377  0.20082  1.0000
  S   S78       1.0  0.40517  0.66107  0.15917  1.0000
  S   S79       1.0  0.36738  0.71836  0.18397  1.0000
  Fe  Fe40      1.0  0.15637  0.80885  0.27338  1.0000
  S   S80       1.0  0.11244  0.77406  0.27545  1.0000
  S   S81       1.0  0.19684  0.80775  0.24950  1.0000
  Fe  Fe41      1.0  0.12920  0.84827  0.30818  1.0000
  S   S82       1.0  0.08343  0.81492  0.31216  1.0000
  Fe  Fe42      1.0  0.12146  0.77368  0.30710  1.0000
  Fe  Fe43      1.0  0.07845  0.81829  0.28009  1.0000
  S   S83       1.0  0.02759  0.81929  0.26331  1.0000
  S   S84       1.0  0.16740  0.80677  0.30469  1.0000
  S   S85       1.0  0.12212  0.85340  0.27654  1.0000
  C   C295      1.0  0.02035  0.88079  0.24580  1.0000
  H   H526      1.0  0.47212  0.55519  0.22556  1.0000
  C   C296      1.0  0.10505  0.87442  0.22742  1.0000
  H   H527      1.0  0.04326  0.88800  0.25331  1.0000
  C   C297      1.0  0.46448  0.63850  0.22333  1.0000
  H   H528      1.0  0.18392  0.79121  0.17073  1.0000
  H   H529      1.0  0.06081  0.72054  0.23036  1.0000
  C   C298      1.0  0.25024  0.72580  0.21464  1.0000
  C   C299      1.0  0.26151  0.75823  0.21371  1.0000
  C   C300      1.0  0.24512  0.78276  0.22462  1.0000
  C   C301      1.0  0.21748  0.77529  0.23681  1.0000
  C   C302      1.0  0.20643  0.74277  0.23793  1.0000
  C   C303      1.0  0.22253  0.71832  0.22681  1.0000
  H   H530      1.0  0.28244  0.76456  0.20428  1.0000
  H   H531      1.0  0.25381  0.80782  0.22350  1.0000
  H   H532      1.0  0.18516  0.73656  0.24713  1.0000
  H   H533      1.0  0.21346  0.69336  0.22765  1.0000
  H   H534      1.0  0.17676  0.79619  0.02926  1.0000
  H   H535      1.0  0.48303  0.51514  0.03436  1.0000
  C   C304      1.0  0.17640  0.77217  0.18122  1.0000
  C   C305      1.0  0.35082  0.80949  0.03844  1.0000
  H   H536      1.0  0.13910  0.91591  0.22265  1.0000
  C   C306      1.0  0.07191  0.85967  0.18315  1.0000
  C   C307      1.0  0.37808  0.77480  0.11815  1.0000
  C   C308      1.0  0.39190  0.78503  0.10062  1.0000
  C   C309      1.0  0.38471  0.81645  0.09311  1.0000
  C   C310      1.0  0.36329  0.83808  0.10299  1.0000
  C   C311      1.0  0.34911  0.82774  0.12041  1.0000
  C   C312      1.0  0.35648  0.79638  0.12798  1.0000
  H   H537      1.0  0.40854  0.76867  0.09284  1.0000
  H   H538      1.0  0.39592  0.82400  0.07976  1.0000
  H   H539      1.0  0.33254  0.84425  0.12821  1.0000
  H   H540      1.0  0.34562  0.78900  0.14146  1.0000
  C   C313      1.0  0.33486  0.53389  0.09181  1.0000
  C   C314      1.0  0.31899  0.56338  0.09736  1.0000
  C   C315      1.0  0.32521  0.57709  0.11535  1.0000
  C   C316      1.0  0.34731  0.56132  0.12808  1.0000
  C   C317      1.0  0.36233  0.53125  0.12278  1.0000
  C   C318      1.0  0.35638  0.51771  0.10469  1.0000
  H   H541      1.0  0.30216  0.57602  0.08752  1.0000
  H   H542      1.0  0.31308  0.59993  0.11934  1.0000
  H   H543      1.0  0.37963  0.51898  0.13250  1.0000
  C   C319      1.0  0.45527  0.71428  0.08083  1.0000
  H   H544      1.0  0.45718  0.55033  0.06216  1.0000
  H   H545      1.0  0.16030  0.83210  0.04141  1.0000
  H   H546      1.0  0.08386  0.88696  0.21977  1.0000
  H   H547      1.0  0.43795  0.59905  0.20967  1.0000
  H   H548      1.0  0.47101  0.61661  0.11726  1.0000
  C   C320      1.0  0.06976  0.83331  0.19902  1.0000
  N   N18       1.0  0.41390  0.62917  0.09216  1.0000
  C   C321      1.0  0.43473  0.66003  0.09410  1.0000
  C   C322      1.0  0.41611  0.61047  0.11060  1.0000
  C   C323      1.0  0.42810  0.60920  0.07594  1.0000
  C   C324      1.0  0.37670  0.63683  0.08805  1.0000
  C   C325      1.0  0.35804  0.65867  0.10277  1.0000
  C   C326      1.0  0.43035  0.68588  0.07810  1.0000
  C   C327      1.0  0.41171  0.57486  0.07318  1.0000
  C   C328      1.0  0.45202  0.59662  0.11591  1.0000
  H   H549      1.0  0.30558  0.49755  0.18267  1.0000
  C   C329      1.0  0.32154  0.66697  0.09639  1.0000
  H   H550      1.0  0.42870  0.66307  0.27477  1.0000
  C   C330      1.0  0.43032  0.55548  0.05778  1.0000
  C   C331      1.0  0.00735  0.84916  0.24831  1.0000
  H   H551      1.0  0.42895  0.67245  0.10783  1.0000
  H   H552      1.0  0.40791  0.62621  0.12262  1.0000
  H   H553      1.0  0.39777  0.58994  0.11065  1.0000
  H   H554      1.0  0.45640  0.60610  0.07732  1.0000
  H   H555      1.0  0.42441  0.62245  0.06228  1.0000
  H   H556      1.0  0.37387  0.64821  0.07377  1.0000
  H   H557      1.0  0.36160  0.61394  0.08738  1.0000
  H   H558      1.0  0.37168  0.68197  0.10480  1.0000
  H   H559      1.0  0.35620  0.64599  0.11668  1.0000
  H   H560      1.0  0.46258  0.65392  0.09476  1.0000
  H   H561      1.0  0.40396  0.69632  0.07815  1.0000
  H   H562      1.0  0.38448  0.57722  0.06873  1.0000
  H   H563      1.0  0.41273  0.55984  0.08629  1.0000
  H   H564      1.0  0.02034  0.70342  0.26923  1.0000
  H   H565      1.0  0.07472  0.65013  0.31276  1.0000
  C   C332      1.0  0.04190  0.64120  0.27980  1.0000
  H   H566      1.0  0.28638  0.83262  0.03465  1.0000
  H   H567      1.0  0.05340  0.58889  0.25497  1.0000
  H   H568      1.0  0.30659  0.64431  0.09389  1.0000
  H   H569      1.0  0.30844  0.68130  0.10767  1.0000
  H   H570      1.0  0.32206  0.68194  0.08321  1.0000
  H   H571      1.0  0.20531  0.91609  0.00137  1.0000
  H   H572      1.0  0.99961  0.67314  0.31851  1.0000
  H   H573      1.0  0.17165  0.83430  0.01665  1.0000
  S   S86       1.0  0.13027  0.72279  0.32042  1.0000
  H   H574      1.0  0.41707  0.53173  0.05561  1.0000
  H   H575      1.0  0.43014  0.56913  0.04412  1.0000
  H   H576      1.0  0.28578  0.76378  0.07020  1.0000
  C   C333      1.0  0.12402  0.80518  0.19153  1.0000
  H   H577      1.0  0.05263  0.84246  0.21057  1.0000
  N   N19       1.0  0.10364  0.82170  0.20703  1.0000
  H   H578      1.0  0.12214  0.66008  0.29666  1.0000
  C   C334      1.0  0.28825  0.81717  0.04766  1.0000
  H   H579      1.0  0.14669  0.84051  0.22293  1.0000
  C   C335      1.0  0.21540  0.83306  0.03565  1.0000
  H   H580      1.0  0.11497  0.91740  0.24451  1.0000
  H   H581      1.0  0.26565  0.77108  0.11223  1.0000
  N   N20       1.0  0.26145  0.82766  0.06193  1.0000
  C   C336      1.0  0.26340  0.86437  0.06427  1.0000
  H   H582      1.0  0.08814  0.88066  0.18725  1.0000
  H   H583      1.0  0.30859  0.76759  0.10251  1.0000
  C   C337      1.0  0.26761  0.81191  0.08103  1.0000
  H   H584      1.0  0.15120  0.88996  0.24243  1.0000
  H   H585      1.0  0.27929  0.73386  0.10076  1.0000
  C   C338      1.0  0.23313  0.88052  0.07527  1.0000
  C   C339      1.0  0.23881  0.91717  0.07787  1.0000
  N   N21       1.0  0.04990  0.67368  0.28881  1.0000
  C   C340      1.0  0.28126  0.76094  0.10040  1.0000
  C   C341      1.0  0.17877  0.82323  0.03053  1.0000
  H   H586      1.0  0.24711  0.81901  0.09121  1.0000
  H   H587      1.0  0.29174  0.82133  0.08749  1.0000
  H   H588      1.0  0.15998  0.75365  0.17422  1.0000
  H   H589      1.0  0.33234  0.84414  0.05900  1.0000
  H   H590      1.0  0.28745  0.87112  0.07180  1.0000
  H   H591      1.0  0.43290  0.55745  0.13416  1.0000
  C   C342      1.0  0.22667  0.81738  0.05476  1.0000
  H   H592      1.0  0.07900  0.69618  0.26603  1.0000
  H   H593      1.0  0.34666  0.78368  0.03416  1.0000
  H   H594      1.0  0.08288  0.84883  0.17004  1.0000
  H   H595      1.0  0.13173  0.82344  0.18058  1.0000
  C   C343      1.0  0.02083  0.69725  0.28461  1.0000
  H   H596      1.0  0.26539  0.87689  0.05025  1.0000
  H   H597      1.0  0.10791  0.78726  0.18377  1.0000
  H   H598      1.0  0.20859  0.87771  0.06750  1.0000
  H   H599      1.0  0.23012  0.86964  0.08959  1.0000
  H   H600      1.0  0.47677  0.56909  0.13856  1.0000
  H   H601      1.0  0.21611  0.92830  0.08496  1.0000
  H   H602      1.0  0.26164  0.92142  0.08694  1.0000
  C   C344      1.0  0.04128  0.64090  0.25778  1.0000
  H   H603      1.0  0.01358  0.92787  0.23211  1.0000
  H   H604      1.0  0.42509  0.49993  0.99875  1.0000
  H   H605      1.0  0.16870  0.66595  0.27328  1.0000
  H   H606      1.0  0.05556  0.81253  0.19267  1.0000
  H   H607      1.0  0.34725  0.82574  0.02591  1.0000
  C   C345      1.0  0.26858  0.77390  0.08129  1.0000
  H   H608      1.0  0.04542  0.74433  0.29154  1.0000
  N   N22       1.0  0.33148  0.69676  0.25710  1.0000
  C   C346      1.0  0.31571  0.69471  0.27665  1.0000
  C   C347      1.0  0.36773  0.68353  0.25793  1.0000
  C   C348      1.0  0.33073  0.73215  0.25081  1.0000
  C   C349      1.0  0.31158  0.67679  0.24302  1.0000
  C   C350      1.0  0.30751  0.63992  0.24786  1.0000
  C   C351      1.0  0.27635  0.70130  0.27781  1.0000
  C   C352      1.0  0.34870  0.73979  0.23168  1.0000
  C   C353      1.0  0.39359  0.70413  0.26951  1.0000
  C   C354      1.0  0.42935  0.68852  0.26915  1.0000
  C   C355      1.0  0.28254  0.62353  0.23421  1.0000
  C   C356      1.0  0.26367  0.70035  0.29833  1.0000
  C   C357      1.0  0.35114  0.77670  0.22832  1.0000
  H   H609      1.0  0.32813  0.71265  0.28626  1.0000
  H   H610      1.0  0.32095  0.67040  0.28328  1.0000
  H   H611      1.0  0.36795  0.65856  0.26433  1.0000
  H   H612      1.0  0.37843  0.67996  0.24339  1.0000
  H   H613      1.0  0.34172  0.74825  0.26193  1.0000
  H   H614      1.0  0.30376  0.74080  0.24906  1.0000
  H   H615      1.0  0.28567  0.68761  0.24081  1.0000
  H   H616      1.0  0.32417  0.67770  0.22885  1.0000
  H   H617      1.0  0.29750  0.63607  0.26241  1.0000
  H   H618      1.0  0.33266  0.62712  0.24659  1.0000
  H   H619      1.0  0.26958  0.72571  0.27192  1.0000
  H   H620      1.0  0.26176  0.68255  0.26989  1.0000
  H   H621      1.0  0.33354  0.72934  0.21990  1.0000
  H   H622      1.0  0.37515  0.72968  0.23098  1.0000
  H   H623      1.0  0.39613  0.72920  0.26358  1.0000
  H   H624      1.0  0.38536  0.70595  0.28454  1.0000
  H   H625      1.0  0.21627  0.86016  0.03609  1.0000
  H   H626      1.0  0.09222  0.75258  0.20657  1.0000
  H   H627      1.0  0.22616  0.79045  0.05245  1.0000
  H   H628      1.0  0.29180  0.62584  0.21935  1.0000
  H   H629      1.0  0.28035  0.59710  0.23773  1.0000
  H   H630      1.0  0.25665  0.63499  0.23526  1.0000
  H   H631      1.0  0.27646  0.71958  0.30685  1.0000
  H   H632      1.0  0.38657  0.96112  0.15249  1.0000
  Fe  Fe44      1.0  0.35918  0.98424  0.05897  1.0000
  H   H633      1.0  0.36234  0.78142  0.21406  1.0000
  H   H634      1.0  0.32531  0.78834  0.22893  1.0000
  H   H635      1.0  0.36799  0.78808  0.23911  1.0000
  H   H636      1.0  0.01619  0.63253  0.28450  1.0000
  H   H637      1.0  0.26879  0.67597  0.30480  1.0000
  H   H638      1.0  0.05956  0.75500  0.24621  1.0000
  C   C358      1.0  0.07454  0.74305  0.23469  1.0000
  C   C359      1.0  0.07798  0.76609  0.21771  1.0000
  H   H639      1.0  0.24242  0.92946  0.06391  1.0000
  C   C360      1.0  0.11500  0.66555  0.28176  1.0000
  H   H640      1.0  0.02276  0.70914  0.00411  1.0000
  H   H641      1.0  0.34885  0.51196  0.18611  1.0000
  H   H642      1.0  0.23550  0.70501  0.29870  1.0000
  H   H643      1.0  0.05162  0.77131  0.21253  1.0000
  C   C361      1.0  0.14582  0.68225  0.27240  1.0000
  H   H644      1.0  0.33094  0.80202  0.06637  1.0000
  H   H645      1.0  0.28348  0.79176  0.04270  1.0000
  H   H646      1.0  0.03814  0.89147  0.16676  1.0000
  H   H647      1.0  0.23240  0.82457  0.02401  1.0000
  H   H648      1.0  0.04363  0.97069  0.31192  1.0000
  H   H649      1.0  0.07987  0.81038  0.23402  1.0000
  C   C362      1.0  0.45807  0.60546  0.21952  1.0000
  H   H650      1.0  0.13631  0.86411  0.20270  1.0000
  H   H651      1.0  0.43543  0.67516  0.06396  1.0000
  H   H652      1.0  0.08935  0.71047  0.28876  1.0000
  H   H653      1.0  0.11088  0.64207  0.27431  1.0000
  H   H654      1.0  0.34722  0.90692  0.99753  1.0000
  H   H655      1.0  0.14053  0.68756  0.25722  1.0000
  H   H656      1.0  0.24239  0.76405  0.07899  1.0000
  C   C363      1.0  0.12915  0.90100  0.23466  1.0000
  C   C364      1.0  0.08264  0.68793  0.28093  1.0000
  H   H657      1.0  0.20647  0.82208  0.06563  1.0000
  C   C365      1.0  0.12450  0.84989  0.21451  1.0000
  H   H658      1.0  0.15196  0.70548  0.27977  1.0000
  H   H659      1.0  0.37770  0.81198  0.04349  1.0000
  C   C366      1.0  0.32606  0.81902  0.05436  1.0000
  H   H660      1.0  0.32748  0.51936  0.16391  1.0000
  S   S87       1.0  0.32852  0.51960  0.06830  1.0000
  C   C367      1.0  0.15756  0.78762  0.19801  1.0000
  H   H661      1.0  0.99060  0.91335  0.27845  1.0000
  H   H662      1.0  0.10037  0.73589  0.24001  1.0000
  H   H663      1.0  0.17541  0.80515  0.20474  1.0000
  H   H664      1.0  0.20012  0.75971  0.18633  1.0000
  H   H665      1.0  0.46137  0.57897  0.10513  1.0000
  C   C368      1.0  0.45079  0.57850  0.13491  1.0000
  C   C369      1.0  0.03620  0.87315  0.17840  1.0000
  C   C370      1.0  0.09642  0.79836  0.22321  1.0000
  H   H666      1.0  0.36910  0.49529  0.10046  1.0000
  H   H667      1.0  0.15213  0.76770  0.20831  1.0000
  C   C371      1.0  0.47753  0.58058  0.22860  1.0000
  H   H668      1.0  0.09385  0.86161  0.23979  1.0000
  H   H669      1.0  0.12051  0.79209  0.23096  1.0000
  C   C372      1.0  0.27442  0.86535  0.99804  1.0000
  H   H670      1.0  0.44210  0.59517  0.14641  1.0000
  C   C373      1.0  0.07196  0.96863  0.31037  1.0000
  C   C374      1.0  0.02188  0.73050  0.29522  1.0000
  H   H671      1.0  0.44723  0.70304  0.27797  1.0000
  C   C375      1.0  0.00327  0.90348  0.23382  1.0000
  H   H672      1.0  0.06025  0.62198  0.28476  1.0000
  H   H673      1.0  0.48227  0.70565  0.07950  1.0000
  H   H674      1.0  0.01468  0.63158  0.31606  1.0000
  H   H675      1.0  0.07948  0.94263  0.31272  1.0000
  H   H676      1.0  0.02464  0.88541  0.19096  1.0000
  H   H677      1.0  0.01891  0.85319  0.17373  1.0000
  H   H678      1.0  0.06636  0.64829  0.25168  1.0000
  H   H679      1.0  0.07959  0.97570  0.29573  1.0000
  C   C376      1.0  0.09001  0.99016  0.32490  1.0000
  C   C377      1.0  0.25486  0.89254  0.00361  1.0000
  H   H680      1.0  0.02118  0.65776  0.25226  1.0000
  H   H681      1.0  0.11809  0.98560  0.32348  1.0000
  H   H682      1.0  0.03286  0.60710  0.23459  1.0000
  C   C378      1.0  0.46942  0.96839  0.99983  1.0000
  H   H683      1.0  0.41888  0.97109  0.13509  1.0000
  C   C379      1.0  0.33081  0.50140  0.17563  1.0000
  C   C380      1.0  0.03335  0.60667  0.25034  1.0000
  H   H684      1.0  0.30073  0.86296  0.00275  1.0000
  H   H685      1.0  0.45160  0.72549  0.09504  1.0000
  H   H686      1.0  0.99553  0.68568  0.28753  1.0000
  C   C381      1.0  0.00819  0.72952  0.99837  1.0000
  H   H687      1.0  0.45052  0.73337  0.06987  1.0000
  H   H688      1.0  0.99303  0.77597  0.29712  1.0000
  H   H689      1.0  0.00785  0.59832  0.25551  1.0000
  S   S88       1.0  0.14581  0.89352  0.32506  1.0000
  C   C382      1.0  0.39818  0.98143  0.14418  1.0000
  H   H690      1.0  0.02110  0.72707  0.31082  1.0000
  H   H691      1.0  0.06342  0.69132  0.31673  1.0000
  H   H692      1.0  0.99061  0.75656  0.27431  1.0000
  C   C383      1.0  0.22072  0.89519  0.99719  1.0000
  H   H693      1.0  0.48330  0.54432  0.01516  1.0000
  C   C384      1.0  0.02187  0.65653  0.32073  1.0000
  C   C385      1.0  0.99108  0.75196  0.28985  1.0000
  H   H694      1.0  0.15465  0.73223  0.40181  1.0000
  S   S89       1.0  0.32051  0.85590  0.64334  1.0000
  Fe  Fe45      1.0  0.39817  0.68811  0.52587  1.0000
  S   S90       1.0  0.36096  0.73007  0.52361  1.0000
  S   S91       1.0  0.45008  0.68751  0.51001  1.0000
  Fe  Fe46      1.0  0.35452  0.65351  0.55735  1.0000
  S   S92       1.0  0.31622  0.69517  0.55706  1.0000
  S   S93       1.0  0.33493  0.61145  0.57640  1.0000
  Fe  Fe47      1.0  0.31941  0.69137  0.52514  1.0000
  S   S94       1.0  0.26842  0.69181  0.50861  1.0000
  Fe  Fe48      1.0  0.36111  0.72945  0.55566  1.0000
  S   S95       1.0  0.37728  0.77569  0.57173  1.0000
  S   S96       1.0  0.35662  0.64919  0.52539  1.0000
  S   S97       1.0  0.39943  0.68812  0.55799  1.0000
  Fe  Fe49      1.0  0.06941  0.55298  0.44188  1.0000
  S   S98       1.0  0.11869  0.52409  0.44342  1.0000
  S   S99       1.0  0.01810  0.54411  0.45751  1.0000
  Fe  Fe50      1.0  0.09869  0.59878  0.41061  1.0000
  S   S100      1.0  0.14910  0.57155  0.40976  1.0000
  S   S101      1.0  0.08460  0.64755  0.39610  1.0000
  Fe  Fe51      1.0  0.11759  0.52532  0.41142  1.0000
  H   H695      1.0  0.26546  0.56355  0.57238  1.0000
  Fe  Fe52      1.0  0.14665  0.57252  0.44171  1.0000
  S   S102      1.0  0.19783  0.58160  0.45722  1.0000
  S   S103      1.0  0.06719  0.55249  0.40985  1.0000
  S   S104      1.0  0.09739  0.60146  0.44262  1.0000
  H   H696      1.0  0.08282  0.67373  0.43615  1.0000
  C   C386      1.0  0.39948  0.68825  0.62186  1.0000
  C   C387      1.0  0.09897  0.66835  0.37535  1.0000
  C   C388      1.0  0.08803  0.70086  0.37220  1.0000
  C   C389      1.0  0.09766  0.71813  0.35565  1.0000
  C   C390      1.0  0.11836  0.70301  0.34199  1.0000
  C   C391      1.0  0.12964  0.67063  0.34524  1.0000
  C   C392      1.0  0.12023  0.65344  0.36186  1.0000
  H   H697      1.0  0.07162  0.71266  0.38255  1.0000
  H   H698      1.0  0.08880  0.74299  0.35339  1.0000
  H   H699      1.0  0.42122  0.63883  0.64610  1.0000
  H   H700      1.0  0.12892  0.62851  0.36407  1.0000
  C   C393      1.0  0.09954  0.95171  0.37528  1.0000
  C   C394      1.0  0.13299  0.95761  0.36889  1.0000
  C   C395      1.0  0.14673  0.93939  0.35364  1.0000
  C   C396      1.0  0.12748  0.91471  0.34474  1.0000
  C   C397      1.0  0.09419  0.90850  0.35130  1.0000
  C   C398      1.0  0.08033  0.92697  0.36642  1.0000
  H   H701      1.0  0.25823  0.89905  0.64421  1.0000
  H   H702      1.0  0.22033  0.71953  0.55366  1.0000
  H   H703      1.0  0.32580  0.52479  0.56115  1.0000
  H   H704      1.0  0.05447  0.92211  0.37127  1.0000
  C   C399      1.0  0.24936  0.66122  0.49400  1.0000
  C   C400      1.0  0.21437  0.66405  0.48910  1.0000
  C   C401      1.0  0.19819  0.64035  0.47764  1.0000
  C   C402      1.0  0.21683  0.61333  0.47095  1.0000
  C   C403      1.0  0.25178  0.61050  0.47590  1.0000
  C   C404      1.0  0.26797  0.63427  0.48726  1.0000
  H   H705      1.0  0.19961  0.68470  0.49427  1.0000
  H   H706      1.0  0.17121  0.64274  0.47420  1.0000
  H   H707      1.0  0.26649  0.58970  0.47088  1.0000
  H   H708      1.0  0.29492  0.63183  0.49070  1.0000
  C   C405      1.0  0.36122  0.79661  0.59209  1.0000
  C   C406      1.0  0.38297  0.81844  0.60166  1.0000
  C   C407      1.0  0.37116  0.83670  0.61738  1.0000
  C   C408      1.0  0.33723  0.83347  0.62368  1.0000
  C   C409      1.0  0.31552  0.81150  0.61415  1.0000
  C   C410      1.0  0.32741  0.79308  0.59851  1.0000
  H   H709      1.0  0.40928  0.82107  0.59701  1.0000
  H   H710      1.0  0.38834  0.85310  0.62469  1.0000
  H   H711      1.0  0.28924  0.80876  0.61890  1.0000
  H   H712      1.0  0.31026  0.77657  0.59127  1.0000
  C   C411      1.0  0.37970  0.54121  0.62190  1.0000
  C   C412      1.0  0.34445  0.54241  0.61817  1.0000
  C   C413      1.0  0.33142  0.56427  0.60434  1.0000
  C   C414      1.0  0.35325  0.58519  0.59400  1.0000
  C   C415      1.0  0.38853  0.58402  0.59771  1.0000
  C   C416      1.0  0.40159  0.56219  0.61158  1.0000
  H   H713      1.0  0.22449  0.60326  0.41574  1.0000
  H   H714      1.0  0.30421  0.56487  0.60160  1.0000
  H   H715      1.0  0.40578  0.59972  0.58985  1.0000
  H   H716      1.0  0.42892  0.56149  0.61434  1.0000
  C   C417      1.0  0.19098  0.73416  0.36751  1.0000
  H   H717      1.0  0.14826  0.97612  0.37573  1.0000
  H   H718      1.0  0.10582  0.68016  0.45813  1.0000
  C   C418      1.0  0.47336  0.67926  0.44398  1.0000
  H   H719      1.0  0.28664  0.93430  0.54107  1.0000
  C   C419      1.0  0.46837  0.71608  0.49358  1.0000
  C   C420      1.0  0.44834  0.73863  0.48342  1.0000
  H   H720      1.0  0.34239  0.63868  0.64502  1.0000
  H   H721      1.0  0.42079  0.73913  0.48551  1.0000
  H   H722      1.0  0.31271  0.59019  0.51433  1.0000
  H   H723      1.0  0.24718  0.91223  0.54456  1.0000
  H   H724      1.0  0.19168  0.53415  0.50753  1.0000
  C   C421      1.0  0.09568  0.69225  0.44514  1.0000
  H   H725      1.0  0.45868  0.72476  0.61419  1.0000
  H   H726      1.0  0.42396  0.85097  0.50458  1.0000
  C   C422      1.0  0.29538  0.92589  0.61363  1.0000
  H   H727      1.0  0.18363  0.74706  0.43046  1.0000
  H   H728      1.0  0.47237  0.72750  0.41466  1.0000
  H   H729      1.0  0.22473  0.54380  0.56802  1.0000
  C   C423      1.0  0.39561  0.63969  0.65308  1.0000
  C   C424      1.0  0.22287  0.66644  0.55319  1.0000
  H   H730      1.0  0.18530  0.70924  0.45930  1.0000
  H   H731      1.0  0.17255  0.94433  0.34874  1.0000
  H   H732      1.0  0.22563  0.71048  0.38682  1.0000
  H   H733      1.0  0.17583  0.63592  0.40220  1.0000
  H   H734      1.0  0.21332  0.65685  0.42999  1.0000
  H   H735      1.0  0.24363  0.58109  0.60426  1.0000
  H   H736      1.0  0.24035  0.61646  0.57478  1.0000
  H   H737      1.0  0.13472  0.72868  0.44316  1.0000
  H   H738      1.0  0.39115  0.58645  0.65296  1.0000
  C   C425      1.0  0.19763  0.57852  0.53837  1.0000
  H   H739      1.0  0.44799  0.77780  0.46269  1.0000
  H   H740      1.0  0.21032  0.59210  0.50888  1.0000
  S   S105      1.0  0.38753  0.92820  0.65768  1.0000
  C   C426      1.0  0.35466  0.70328  0.64563  1.0000
  C   C427      1.0  0.23733  0.56475  0.57501  1.0000
  S   S106      1.0  0.07994  0.97498  0.39374  1.0000
  C   C428      1.0  0.27099  0.56991  0.53125  1.0000
  H   H741      1.0  0.41925  0.68838  0.63321  1.0000
  H   H742      1.0  0.25636  0.95134  0.57045  1.0000
  H   H743      1.0  0.22098  0.66507  0.56887  1.0000
  N   N23       1.0  0.22125  0.60368  0.54694  1.0000
  C   C429      1.0  0.20234  0.64526  0.40081  1.0000
  H   H744      1.0  0.44256  0.86735  0.58135  1.0000
  H   H745      1.0  0.30857  0.93024  0.62738  1.0000
  H   H746      1.0  0.44333  0.70686  0.59235  1.0000
  N   N24       1.0  0.30938  0.94857  0.59844  1.0000
  H   H747      1.0  0.34499  0.74727  0.62765  1.0000
  N   N25       1.0  0.36461  0.67987  0.62992  1.0000
  C   C430      1.0  0.21038  0.67074  0.41643  1.0000
  H   H748      1.0  0.27579  0.61396  0.54831  1.0000
  H   H749      1.0  0.47374  0.86006  0.51784  1.0000
  C   C431      1.0  0.12455  0.70892  0.43408  1.0000
  H   H750      1.0  0.31823  0.54784  0.52087  1.0000
  H   H751      1.0  0.40764  0.66904  0.61153  1.0000
  H   H752      1.0  0.25056  0.75061  0.45443  1.0000
  H   H753      1.0  0.47153  0.87733  0.55026  1.0000
  H   H754      1.0  0.11279  0.72012  0.42126  1.0000
  C   C432      1.0  0.20886  0.71556  0.45125  1.0000
  H   H755      1.0  0.24020  0.92969  0.60562  1.0000
  H   H756      1.0  0.34898  0.96960  0.61603  1.0000
  H   H757      1.0  0.07615  0.71074  0.44939  1.0000
  C   C433      1.0  0.99918  0.51468  0.47322  1.0000
  H   H758      1.0  0.36529  0.52620  0.57436  1.0000
  H   H759      1.0  0.16781  0.75019  0.36755  1.0000
  H   H760      1.0  0.29418  0.67290  0.63308  1.0000
  H   H761      1.0  0.32458  0.57923  0.53837  1.0000
  C   C434      1.0  0.33375  0.73435  0.63994  1.0000
  H   H762      1.0  0.20875  0.76570  0.46184  1.0000
  C   C435      1.0  0.29101  0.98126  0.59898  1.0000
  C   C436      1.0  0.18768  0.58461  0.51734  1.0000
  H   H763      1.0  0.16813  0.60448  0.51635  1.0000
  C   C437      1.0  0.36705  0.64561  0.63810  1.0000
  H   H764      1.0  0.17316  0.57729  0.54659  1.0000
  C   C438      1.0  0.20605  0.69883  0.54729  1.0000
  H   H765      1.0  0.25405  0.62432  0.40005  1.0000
  C   C439      1.0  0.22312  0.59820  0.56811  1.0000
  H   H766      1.0  0.20659  0.70190  0.53164  1.0000
  H   H767      1.0  0.16046  0.66985  0.44140  1.0000
  H   H768      1.0  0.41752  0.94589  0.59502  1.0000
  H   H769      1.0  0.37115  0.62742  0.62657  1.0000
  H   H770      1.0  0.18492  0.71098  0.36010  1.0000
  H   H771      1.0  0.22100  0.59845  0.39044  1.0000
  H   H772      1.0  0.17897  0.69989  0.55226  1.0000
  H   H773      1.0  0.35878  0.96990  0.59137  1.0000
  H   H774      1.0  0.03506  0.98768  0.48566  1.0000
  S   S107      1.0  0.39785  0.51443  0.63930  1.0000
  H   H775      1.0  0.25707  0.90930  0.57884  1.0000
  C   C440      1.0  0.30751  0.93267  0.57918  1.0000
  H   H776      1.0  0.05067  0.63845  0.34523  1.0000
  H   H777      1.0  0.19718  0.60193  0.57454  1.0000
  C   C441      1.0  0.36994  0.92416  0.60543  1.0000
  C   C442      1.0  0.43845  0.72608  0.60312  1.0000
  H   H778      1.0  0.28762  0.89230  0.54954  1.0000
  C   C443      1.0  0.27349  0.91600  0.55021  1.0000
  N   N26       1.0  0.18433  0.69799  0.41879  1.0000
  C   C444      1.0  0.40750  0.93392  0.60806  1.0000
  C   C445      1.0  0.43464  0.67356  0.44490  1.0000
  C   C446      1.0  0.34676  0.95492  0.60278  1.0000
  H   H779      1.0  0.30137  0.89987  0.61013  1.0000
  H   H780      1.0  0.42705  0.81561  0.55442  1.0000
  C   C447      1.0  0.02852  0.65484  0.34206  1.0000
  H   H781      1.0  0.03383  0.67965  0.34768  1.0000
  H   H782      1.0  0.32351  0.94627  0.56872  1.0000
  H   H783      1.0  0.31896  0.90768  0.57967  1.0000
  C   C448      1.0  0.42766  0.87521  0.56869  1.0000
  H   H784      1.0  0.36443  0.50686  0.55142  1.0000
  C   C449      1.0  0.15303  0.68396  0.42849  1.0000
  H   H785      1.0  0.22681  0.69437  0.45179  1.0000
  H   H786      1.0  0.36889  0.90772  0.59301  1.0000
  H   H787      1.0  0.36195  0.91000  0.61814  1.0000
  H   H788      1.0  0.48481  0.66791  0.45688  1.0000
  H   H789      1.0  0.17762  0.63693  0.54854  1.0000
  H   H790      1.0  0.39969  0.74197  0.62242  1.0000
  H   H791      1.0  0.16373  0.55997  0.49365  1.0000
  C   C450      1.0  0.20302  0.72699  0.38772  1.0000
  H   H792      1.0  0.14576  0.65870  0.33480  1.0000
  H   H793      1.0  0.21149  0.75051  0.39399  1.0000
  C   C451      1.0  0.24427  0.89986  0.63051  1.0000
  C   C452      1.0  0.23175  0.56057  0.59636  1.0000
  H   H794      1.0  0.45522  0.76580  0.56091  1.0000
  C   C453      1.0  0.46387  0.76052  0.47042  1.0000
  H   H795      1.0  0.21162  0.74677  0.35945  1.0000
  H   H796      1.0  0.41021  0.95114  0.62010  1.0000
  H   H797      1.0  0.42326  0.91176  0.61110  1.0000
  C   C454      1.0  0.33881  0.67914  0.61395  1.0000
  C   C455      1.0  0.30337  0.66418  0.61907  1.0000
  C   C456      1.0  0.27613  0.67255  0.60422  1.0000
  H   H798      1.0  0.34928  0.66469  0.60185  1.0000
  H   H799      1.0  0.33435  0.70391  0.60791  1.0000
  H   H800      1.0  0.30554  0.63702  0.61971  1.0000
  H   H801      1.0  0.23189  0.73662  0.47636  1.0000
  H   H802      1.0  0.38376  0.72492  0.60047  1.0000
  H   H803      1.0  0.20387  0.55970  0.59972  1.0000
  C   C457      1.0  0.25683  0.60345  0.53823  1.0000
  H   H804      1.0  0.28357  0.66225  0.59026  1.0000
  H   H805      1.0  0.25116  0.66172  0.60848  1.0000
  H   H806      1.0  0.27281  0.69950  0.60289  1.0000
  H   H807      1.0  0.25792  0.62004  0.52571  1.0000
  H   H808      1.0  0.02401  0.50014  0.42458  1.0000
  H   H809      1.0  0.42431  0.68353  0.45842  1.0000
  H   H810      1.0  0.26303  0.97851  0.59673  1.0000
  C   C458      1.0  0.43219  0.80341  0.51906  1.0000
  C   C459      1.0  0.40900  0.83163  0.51186  1.0000
  H   H811      1.0  0.43097  0.87453  0.53841  1.0000
  C   C460      1.0  0.34964  0.51101  0.56469  1.0000
  C   C461      1.0  0.27126  0.92815  0.57066  1.0000
  H   H812      1.0  0.22481  0.73286  0.42383  1.0000
  C   C462      1.0  0.38251  0.81904  0.49770  1.0000
  H   H813      1.0  0.20871  0.55354  0.53937  1.0000
  C   C463      1.0  0.45133  0.82729  0.54962  1.0000
  H   H814      1.0  0.44065  0.78885  0.50666  1.0000
  H   H815      1.0  0.99514  0.94681  0.58512  1.0000
  H   H816      1.0  0.42153  0.68624  0.43295  1.0000
  H   H817      1.0  0.24378  0.53727  0.60121  1.0000
  H   H818      1.0  0.14957  0.54559  0.51653  1.0000
  H   H819      1.0  0.32725  0.52656  0.62598  1.0000
  H   H820      1.0  0.07902  0.88969  0.34463  1.0000
  H   H821      1.0  0.41495  0.78686  0.52722  1.0000
  H   H822      1.0  0.01368  0.50760  0.38972  1.0000
  H   H823      1.0  0.39451  0.84236  0.52391  1.0000
  H   H824      1.0  0.25167  0.95147  0.62664  1.0000
  H   H825      1.0  0.44290  0.74499  0.53957  1.0000
  H   H826      1.0  0.25698  0.56191  0.51840  1.0000
  C   C464      1.0  0.30896  0.57206  0.52591  1.0000
  C   C465      1.0  0.22604  0.74397  0.46151  1.0000
  C   C466      1.0  0.40283  0.72196  0.61196  1.0000
  H   H827      1.0  0.14056  0.66560  0.41926  1.0000
  H   H828      1.0  0.21642  0.90256  0.63360  1.0000
  H   H829      1.0  0.47041  0.82166  0.56098  1.0000
  H   H830      1.0  0.36602  0.80009  0.50441  1.0000
  H   H831      1.0  0.36580  0.83957  0.49291  1.0000
  H   H832      1.0  0.39549  0.80838  0.48508  1.0000
  C   C467      1.0  0.17366  0.71210  0.39988  1.0000
  H   H833      1.0  0.26834  0.55044  0.54206  1.0000
  C   C468      1.0  0.17224  0.55411  0.50832  1.0000
  C   C469      1.0  0.48315  0.78196  0.53499  1.0000
  N   N27       1.0  0.46278  0.81282  0.53087  1.0000
  H   H834      1.0  0.43997  0.75038  0.59603  1.0000
  H   H835      1.0  0.42891  0.64696  0.44441  1.0000
  H   H836      1.0  0.20492  0.65630  0.38648  1.0000
  C   C470      1.0  0.22709  0.61611  0.40188  1.0000
  H   H837      1.0  0.23642  0.68067  0.41342  1.0000
  H   H838      1.0  0.25030  0.66719  0.54904  1.0000
  H   H839      1.0  0.15984  0.69345  0.39137  1.0000
  C   C471      1.0  0.20026  0.72479  0.43044  1.0000
  C   C472      1.0  0.20492  0.63696  0.54370  1.0000
  H   H840      1.0  0.47157  0.66834  0.41398  1.0000
  H   H841      1.0  0.20431  0.64285  0.52827  1.0000
  H   H842      1.0  0.30707  0.72768  0.63609  1.0000
  C   C473      1.0  0.25647  0.92870  0.61842  1.0000
  H   H843      1.0  0.24849  0.87635  0.62295  1.0000
  H   H844      1.0  0.00983  0.94782  0.50852  1.0000
  H   H845      1.0  0.47821  0.76891  0.38951  1.0000
  C   C474      1.0  0.44613  0.86500  0.55049  1.0000
  C   C475      1.0  0.46490  0.75564  0.54735  1.0000
  C   C476      1.0  0.99223  0.50399  0.39992  1.0000
  H   H846      1.0  0.42485  0.90226  0.56899  1.0000
  H   H847      1.0  0.31487  0.77967  0.65230  1.0000
  H   H848      1.0  0.40161  0.86424  0.56932  1.0000
  H   H849      1.0  0.33881  0.69068  0.65660  1.0000
  C   C477      1.0  0.99349  0.96609  0.50193  1.0000
  H   H850      1.0  0.47803  0.70596  0.44459  1.0000
  C   C478      1.0  0.00789  0.98862  0.48890  1.0000
  H   H851      1.0  0.37803  0.71147  0.65334  1.0000
  H   H852      1.0  0.47573  0.70840  0.56032  1.0000
  H   H853      1.0  0.47900  0.82001  0.49104  1.0000
  H   H854      1.0  0.08211  0.98211  0.33927  1.0000
  C   C479      1.0  0.33161  0.75866  0.65634  1.0000
  H   H855      1.0  0.00554  0.64509  0.34949  1.0000
  H   H856      1.0  0.35749  0.76839  0.65970  1.0000
  H   H857      1.0  0.48681  0.70988  0.39289  1.0000
  C   C480      1.0  0.48642  0.83615  0.52055  1.0000
  H   H858      1.0  0.20471  0.88045  0.94398  1.0000
  H   H859      1.0  0.36616  0.60655  0.67122  1.0000
  Fe  Fe53      1.0  0.39601  0.92408  0.68959  1.0000
  S   S108      1.0  0.35095  0.89056  0.69409  1.0000
  S   S109      1.0  0.45129  0.91433  0.70068  1.0000
  H   H860      1.0  0.03331  0.52137  0.72622  1.0000
  Fe  Fe54      1.0  0.31939  0.93687  0.69852  1.0000
  S   S110      1.0  0.27970  0.93790  0.72295  1.0000
  H   H861      1.0  0.99092  0.69597  0.76384  1.0000
  S   S111      1.0  0.36506  0.97029  0.69549  1.0000
  Fe  Fe55      1.0  0.13037  0.59236  0.81688  1.0000
  S   S112      1.0  0.08175  0.56258  0.81997  1.0000
  S   S113      1.0  0.15285  0.63476  0.83442  1.0000
  Fe  Fe56      1.0  0.15492  0.55259  0.78160  1.0000
  S   S114      1.0  0.10811  0.52090  0.78267  1.0000
  S   S115      1.0  0.19788  0.55365  0.75897  1.0000
  Fe  Fe57      1.0  0.07778  0.56736  0.78788  1.0000
  S   S116      1.0  0.02639  0.57317  0.77182  1.0000
  Fe  Fe58      1.0  0.11561  0.51831  0.81448  1.0000
  C   C481      1.0  0.11344  0.53334  0.70061  1.0000
  S   S117      1.0  0.12436  0.59941  0.78531  1.0000
  S   S118      1.0  0.16439  0.54773  0.81298  1.0000
  Fe  Fe59      1.0  0.15734  0.81259  0.94885  1.0000
  S   S119      1.0  0.11833  0.85310  0.95098  1.0000
  S   S120      1.0  0.20841  0.81234  0.96526  1.0000
  Fe  Fe60      1.0  0.11621  0.77673  0.91710  1.0000
  S   S121      1.0  0.07621  0.81675  0.91737  1.0000
  S   S122      1.0  0.09751  0.73536  0.89750  1.0000
  Fe  Fe61      1.0  0.11937  0.85293  0.91893  1.0000
  S   S123      1.0  0.13437  0.89895  0.90198  1.0000
  Fe  Fe62      1.0  0.07857  0.81267  0.94928  1.0000
  S   S124      1.0  0.02662  0.81063  0.96504  1.0000
  S   S125      1.0  0.15950  0.81323  0.91684  1.0000
  S   S126      1.0  0.11762  0.77204  0.94908  1.0000
  C   C482      1.0  0.01209  0.57625  0.68766  1.0000
  H   H862      1.0  0.10652  0.69699  0.93882  1.0000
  H   H863      1.0  0.46503  0.97696  0.76702  1.0000
  C   C483      1.0  0.08937  0.95485  0.85059  1.0000
  C   C484      1.0  0.06936  0.93154  0.86030  1.0000
  C   C485      1.0  0.08245  0.91445  0.87619  1.0000
  C   C486      1.0  0.11594  0.92027  0.88242  1.0000
  C   C487      1.0  0.13583  0.94384  0.87282  1.0000
  C   C488      1.0  0.12268  0.96102  0.85699  1.0000
  H   H864      1.0  0.04350  0.92668  0.85551  1.0000
  H   H865      1.0  0.06666  0.89682  0.88360  1.0000
  H   H866      1.0  0.16179  0.94850  0.87749  1.0000
  H   H867      1.0  0.06624  0.98768  0.74238  1.0000
  C   C489      1.0  0.13693  0.66184  0.85232  1.0000
  C   C490      1.0  0.10250  0.66224  0.85809  1.0000
  C   C491      1.0  0.09112  0.68473  0.87198  1.0000
  C   C492      1.0  0.11395  0.70697  0.88046  1.0000
  C   C493      1.0  0.14845  0.70641  0.87481  1.0000
  C   C494      1.0  0.15975  0.68413  0.86078  1.0000
  H   H868      1.0  0.08458  0.64538  0.85174  1.0000
  H   H869      1.0  0.06438  0.68489  0.87617  1.0000
  H   H870      1.0  0.16641  0.72313  0.88122  1.0000
  H   H871      1.0  0.18645  0.68407  0.85651  1.0000
  C   C495      1.0  0.24952  0.96769  0.73154  1.0000
  C   C496      1.0  0.22996  0.96042  0.74788  1.0000
  C   C497      1.0  0.46574  0.51453  0.97943  1.0000
  C   C498      1.0  0.21976  0.52379  0.74466  1.0000
  H   H872      1.0  0.14524  0.84856  0.81117  1.0000
  H   H873      1.0  0.04442  0.50425  0.75927  1.0000
  H   H874      1.0  0.23374  0.93712  0.75494  1.0000
  H   H875      1.0  0.16796  0.87467  0.82746  1.0000
  H   H876      1.0  0.48114  0.86321  0.82114  1.0000
  C   C499      1.0  0.22145  0.88126  0.93121  1.0000
  C   C500      1.0  0.47040  0.88894  0.71876  1.0000
  C   C501      1.0  0.36344  0.91044  0.98473  1.0000
  C   C502      1.0  0.45101  0.87254  0.73258  1.0000
  C   C503      1.0  0.03210  0.81947  0.87225  1.0000
  H   H877      1.0  0.42330  0.87475  0.73242  1.0000
  C   C504      1.0  0.22562  0.84376  0.97992  1.0000
  H   H878      1.0  0.07457  0.55313  0.74333  1.0000
  C   C505      1.0  0.12411  0.57957  0.72145  1.0000
  H   H879      1.0  0.15317  0.97479  0.91250  1.0000
  H   H880      1.0  0.12114  0.54825  0.68804  1.0000
  H   H881      1.0  0.01785  0.60187  0.68338  1.0000
  C   C506      1.0  0.35969  0.97857  0.91626  1.0000
  C   C507      1.0  0.44877  0.49263  0.99187  1.0000
  H   H882      1.0  0.28716  0.88963  0.94495  1.0000
  H   H883      1.0  0.10562  0.89539  0.80348  1.0000
  C   C508      1.0  0.02548  0.62898  0.74849  1.0000
  C   C509      1.0  0.08582  0.53636  0.73263  1.0000
  C   C510      1.0  0.39083  0.60691  0.66328  1.0000
  H   H884      1.0  0.04940  0.63581  0.75510  1.0000
  H   H885      1.0  0.37373  0.95549  0.91302  1.0000
  H   H886      1.0  0.35838  0.91377  0.95459  1.0000
  H   H887      1.0  0.12729  0.98191  0.75106  1.0000
  N   N28       1.0  0.29078  0.94157  0.95070  1.0000
  H   H888      1.0  0.17989  0.87350  0.98069  1.0000
  H   H889      1.0  0.14434  0.56711  0.73004  1.0000
  C   C511      1.0  0.02508  0.75329  0.98710  1.0000
  H   H890      1.0  0.32523  0.96069  0.97213  1.0000
  C   C512      1.0  0.23934  0.96718  0.96901  1.0000
  H   H891      1.0  0.34231  0.98477  0.90427  1.0000
  C   C513      1.0  0.04521  0.55706  0.69157  1.0000
  Fe  Fe63      1.0  0.34110  0.89678  0.66269  1.0000
  H   H892      1.0  0.25524  0.97861  0.94022  1.0000
  H   H893      1.0  0.99554  0.57667  0.70052  1.0000
  H   H894      1.0  0.10561  0.69793  0.96438  1.0000
  H   H895      1.0  0.38264  0.89025  0.98413  1.0000
  H   H896      1.0  0.27827  0.51871  0.78114  1.0000
  H   H897      1.0  0.09176  0.66168  0.95212  1.0000
  C   C514      1.0  0.00679  0.77997  0.97963  1.0000
  C   C515      1.0  0.47919  0.95975  0.75764  1.0000
  C   C516      1.0  0.26660  0.51106  0.72221  1.0000
  H   H898      1.0  0.28868  0.51903  0.71411  1.0000
  H   H899      1.0  0.05990  0.55559  0.67806  1.0000
  H   H900      1.0  0.04263  0.69439  0.96451  1.0000
  H   H901      1.0  0.32101  0.53272  0.78724  1.0000
  H   H902      1.0  0.27510  0.82009  0.98221  1.0000
  H   H903      1.0  0.02858  0.74904  0.92411  1.0000
  H   H904      1.0  0.06574  0.49275  0.71787  1.0000
  H   H905      1.0  0.01008  0.64234  0.91055  1.0000
  H   H906      1.0  0.13897  0.97548  0.72650  1.0000
  H   H907      1.0  0.00261  0.75151  0.94466  1.0000
  H   H908      1.0  0.48446  0.92180  0.77846  1.0000
  C   C517      1.0  0.01053  0.64950  0.73451  1.0000
  H   H909      1.0  0.00478  0.70077  0.90021  1.0000
  S   S127      1.0  0.07185  0.97473  0.83028  1.0000
  H   H910      1.0  0.29565  0.95372  0.92095  1.0000
  H   H911      1.0  0.45201  0.84103  0.75732  1.0000
  C   C518      1.0  0.00907  0.60011  0.75413  1.0000
  C   C519      1.0  0.13087  0.89946  0.81037  1.0000
  H   H912      1.0  0.25057  0.96105  0.98301  1.0000
  H   H913      1.0  0.15002  0.90530  0.79916  1.0000
  H   H914      1.0  0.09490  0.51525  0.69510  1.0000
  C   C520      1.0  0.11134  0.60889  0.73359  1.0000
  C   C521      1.0  0.14116  0.63124  0.73889  1.0000
  H   H915      1.0  0.13745  0.59006  0.70882  1.0000
  H   H916      1.0  0.13853  0.97850  0.84950  1.0000
  H   H917      1.0  0.09922  0.60021  0.74687  1.0000
  H   H918      1.0  0.09231  0.62420  0.72586  1.0000
  H   H919      1.0  0.13153  0.65149  0.74796  1.0000
  H   H920      1.0  0.16105  0.61737  0.74690  1.0000
  H   H921      1.0  0.15303  0.64197  0.72596  1.0000
  H   H922      1.0  0.03463  0.66327  0.93526  1.0000
  H   H923      1.0  0.16677  0.50685  0.67873  1.0000
  H   H924      1.0  0.20464  0.88152  0.91851  1.0000
  H   H925      1.0  0.04979  0.58312  0.71834  1.0000
  H   H926      1.0  0.25724  0.55856  0.73465  1.0000
  C   C522      1.0  0.06727  0.57435  0.70685  1.0000
  C   C523      1.0  0.24862  0.53348  0.73392  1.0000
  C   C524      1.0  0.29852  0.53700  0.77787  1.0000
  S   S128      1.0  0.30593  0.94004  0.66764  1.0000
  C   C525      1.0  0.46746  0.85338  0.74675  1.0000
  N   N29       1.0  0.12119  0.82751  0.84705  1.0000
  C   C526      1.0  0.09531  0.82557  0.86301  1.0000
  C   C527      1.0  0.15692  0.82696  0.85537  1.0000
  C   C528      1.0  0.11641  0.86038  0.83738  1.0000
  C   C529      1.0  0.11689  0.80063  0.83255  1.0000
  C   C530      1.0  0.10350  0.76700  0.83988  1.0000
  C   C531      1.0  0.05727  0.83125  0.85707  1.0000
  C   C532      1.0  0.14239  0.86899  0.82139  1.0000
  C   C533      1.0  0.16820  0.79508  0.86558  1.0000
  C   C534      1.0  0.20421  0.79859  0.87395  1.0000
  C   C535      1.0  0.10907  0.74006  0.82520  1.0000
  H   H927      1.0  0.16684  0.53004  0.71129  1.0000
  H   H928      1.0  0.35812  0.97019  0.94619  1.0000
  H   H929      1.0  0.10131  0.84408  0.87410  1.0000
  H   H930      1.0  0.09706  0.80180  0.87063  1.0000
  H   H931      1.0  0.17654  0.83059  0.84412  1.0000
  H   H932      1.0  0.15992  0.84772  0.86550  1.0000
  H   H933      1.0  0.11766  0.88046  0.84798  1.0000
  H   H934      1.0  0.09048  0.86214  0.83084  1.0000
  H   H935      1.0  0.09859  0.80835  0.82123  1.0000
  H   H936      1.0  0.14168  0.79630  0.82500  1.0000
  H   H937      1.0  0.07556  0.76836  0.84290  1.0000
  H   H938      1.0  0.11606  0.75902  0.85314  1.0000
  C   C536      1.0  0.00317  0.74154  0.93003  1.0000
  H   H939      1.0  0.05123  0.81866  0.84360  1.0000
  H   H940      1.0  0.03441  0.83474  0.88516  1.0000
  C   C537      1.0  0.31292  0.93718  0.96806  1.0000
  H   H941      1.0  0.15039  0.78860  0.87727  1.0000
  H   H942      1.0  0.16963  0.77456  0.85536  1.0000
  H   H943      1.0  0.21093  0.77614  0.88212  1.0000
  H   H944      1.0  0.22351  0.80187  0.86248  1.0000
  H   H945      1.0  0.20543  0.81990  0.88366  1.0000
  H   H946      1.0  0.09753  0.71688  0.83040  1.0000
  H   H947      1.0  0.09674  0.74674  0.81152  1.0000
  H   H948      1.0  0.13697  0.73567  0.82290  1.0000
  N   N30       1.0  0.09710  0.55533  0.71531  1.0000
  C   C538      1.0  0.14559  0.51356  0.70715  1.0000
  H   H949      1.0  0.30676  0.53337  0.76293  1.0000
  H   H950      1.0  0.07598  0.97928  0.71806  1.0000
  C   C539      1.0  0.25982  0.84110  0.98634  1.0000
  H   H951      1.0  0.45478  0.53855  0.97689  1.0000
  C   C540      1.0  0.11815  0.97263  0.73719  1.0000
  H   H952      1.0  0.07667  0.59689  0.69956  1.0000
  C   C541      1.0  0.34112  0.91024  0.96694  1.0000
  H   H953      1.0  0.47815  0.89289  0.98564  1.0000
  H   H954      1.0  0.41212  0.60287  0.67350  1.0000
  N   N31       1.0  0.26002  0.61177  0.80622  1.0000
  C   C542      1.0  0.23918  0.62610  0.79012  1.0000
  C   C543      1.0  0.27235  0.57770  0.80107  1.0000
  C   C544      1.0  0.23633  0.60886  0.82318  1.0000
  C   C545      1.0  0.28941  0.63355  0.81191  1.0000
  C   C546      1.0  0.31598  0.64230  0.79638  1.0000
  C   C547      1.0  0.22362  0.66065  0.79351  1.0000
  C   C548      1.0  0.24977  0.58836  0.84027  1.0000
  C   C549      1.0  0.28444  0.57175  0.78034  1.0000
  H   H955      1.0  0.03690  0.79335  0.87594  1.0000
  C   C550      1.0  0.33891  0.67051  0.80269  1.0000
  C   C551      1.0  0.20269  0.67200  0.77637  1.0000
  C   C552      1.0  0.22359  0.58828  0.85648  1.0000
  H   H956      1.0  0.21759  0.60926  0.78664  1.0000
  H   H957      1.0  0.25447  0.62784  0.77689  1.0000
  H   H958      1.0  0.29353  0.56988  0.81071  1.0000
  H   H959      1.0  0.25109  0.55978  0.80324  1.0000
  H   H960      1.0  0.21146  0.59805  0.81883  1.0000
  H   H961      1.0  0.22977  0.63346  0.82894  1.0000
  H   H962      1.0  0.27934  0.65678  0.81807  1.0000
  H   H963      1.0  0.30443  0.62200  0.82356  1.0000
  H   H964      1.0  0.30372  0.64982  0.78289  1.0000
  H   H965      1.0  0.33318  0.62100  0.79388  1.0000
  H   H966      1.0  0.20593  0.66080  0.80585  1.0000
  H   H967      1.0  0.24420  0.67886  0.79589  1.0000
  H   H968      1.0  0.27404  0.59851  0.84589  1.0000
  H   H969      1.0  0.25430  0.56245  0.83624  1.0000
  H   H970      1.0  0.26261  0.57444  0.77042  1.0000
  H   H971      1.0  0.30444  0.58901  0.77567  1.0000
  H   H972      1.0  0.47947  0.89554  0.94490  1.0000
  H   H973      1.0  0.12875  0.92086  0.81998  1.0000
  H   H974      1.0  0.05237  0.75119  0.98445  1.0000
  H   H975      1.0  0.35240  0.66417  0.81610  1.0000
  H   H976      1.0  0.35854  0.67552  0.79160  1.0000
  H   H977      1.0  0.32344  0.69315  0.80481  1.0000
  H   H978      1.0  0.18081  0.65517  0.77400  1.0000
  H   H979      1.0  0.19218  0.69692  0.77900  1.0000
  H   H980      1.0  0.21897  0.67282  0.76341  1.0000
  H   H981      1.0  0.23369  0.57370  0.86859  1.0000
  H   H982      1.0  0.21838  0.61364  0.86144  1.0000
  H   H983      1.0  0.19903  0.57721  0.85178  1.0000
  H   H984      1.0  0.11247  0.94615  0.73880  1.0000
  C   C553      1.0  0.20573  0.98302  0.75524  1.0000
  H   H985      1.0  0.05238  0.85782  0.85485  1.0000
  C   C554      1.0  0.03571  0.69031  0.93361  1.0000
  H   H986      1.0  0.05714  0.72965  0.95140  1.0000
  H   H987      1.0  0.10834  0.52514  0.73990  1.0000
  H   H988      1.0  0.02344  0.67182  0.73038  1.0000
  C   C555      1.0  0.05544  0.70259  0.95126  1.0000
  C   C556      1.0  0.05843  0.50964  0.72946  1.0000
  C   C557      1.0  0.09205  0.68886  0.95160  1.0000
  H   H989      1.0  0.25630  0.90410  0.96117  1.0000
  H   H990      1.0  0.05209  0.69513  0.92090  1.0000
  H   H991      1.0  0.00539  0.82191  0.86691  1.0000
  H   H992      1.0  0.99754  0.56443  0.67604  1.0000
  H   H993      1.0  0.99305  0.72748  0.78160  1.0000
  H   H994      1.0  0.03798  0.53187  0.69565  1.0000
  C   C558      1.0  0.26999  0.91089  0.94788  1.0000
  C   C559      1.0  0.33933  0.97511  0.93471  1.0000
  H   H995      1.0  0.32929  0.88563  0.96595  1.0000
  H   H996      1.0  0.32588  0.92442  0.92894  1.0000
  H   H997      1.0  0.37745  0.93398  0.98599  1.0000
  H   H998      1.0  0.32053  0.74691  0.66918  1.0000
  C   C560      1.0  0.20621  0.87108  0.98541  1.0000
  H   H999      1.0  0.00200  0.80775  0.92073  1.0000
  H   H1000     1.0  0.23759  0.85874  0.93082  1.0000
  H   H1001     1.0  0.22603  0.93331  0.93245  1.0000
  H   H1002     1.0  0.46017  0.94534  0.74946  1.0000
  C   C561      1.0  0.31237  0.94734  0.93323  1.0000
  H   H1003     1.0  0.22088  0.94771  0.96516  1.0000
  C   C562      1.0  0.24365  0.91199  0.93137  1.0000
  H   H1004     1.0  0.25719  0.91329  0.91753  1.0000
  H   H1005     1.0  0.19113  0.97695  0.76783  1.0000
  H   H1006     1.0  0.48314  0.96585  0.94004  1.0000
  Fe  Fe64      1.0  0.35296  0.97146  0.66402  1.0000
  H   H1007     1.0  0.46708  0.85744  0.97177  1.0000
  H   H1008     1.0  0.29681  0.93069  0.98045  1.0000
  H   H1009     1.0  0.13939  0.49735  0.71933  1.0000
  C   C563      1.0  0.26781  0.97103  0.95371  1.0000
  N   N32       1.0  0.00019  0.70455  0.93061  1.0000
  H   H1010     1.0  0.46819  0.98363  0.90745  1.0000
  H   H1011     1.0  0.48500  0.86443  0.79569  1.0000
  H   H1012     1.0  0.39566  0.65931  0.66392  1.0000
  C   C564      1.0  0.08575  0.99108  0.73102  1.0000
  H   H1013     1.0  0.25626  0.49240  0.96325  1.0000
  C   C565      1.0  0.15931  0.49181  0.69123  1.0000
  H   H1014     1.0  0.48713  0.92366  0.91483  1.0000
  C   C566      1.0  0.49281  0.04998  0.03548  1.0000
  S   S129      1.0  0.64819  0.03456  0.31499  1.0000
  Fe  Fe65      1.0  0.58097  0.06392  0.27734  1.0000
  S   S130      1.0  0.63343  0.08658  0.28076  1.0000
  S   S131      1.0  0.54735  0.08069  0.25198  1.0000
  Fe  Fe66      1.0  0.65457  0.03508  0.28317  1.0000
  S   S132      1.0  0.70824  0.02111  0.27167  1.0000
  Fe  Fe67      1.0  0.62306  0.08417  0.31221  1.0000
  C   C567      1.0  0.90049  0.42301  0.26258  1.0000
  S   S133      1.0  0.56961  0.06404  0.30882  1.0000
  Fe  Fe68      1.0  0.82433  0.44101  0.18776  1.0000
  S   S134      1.0  0.86962  0.47387  0.19293  1.0000
  S   S135      1.0  0.77194  0.44506  0.20334  1.0000
  Fe  Fe69      1.0  0.86358  0.40008  0.15750  1.0000
  S   S136      1.0  0.91045  0.43151  0.16134  1.0000
  S   S137      1.0  0.87699  0.36112  0.13489  1.0000
  Fe  Fe70      1.0  0.90182  0.42738  0.19271  1.0000
  S   S138      1.0  0.94998  0.42174  0.21164  1.0000
  Fe  Fe71      1.0  0.87493  0.47506  0.16097  1.0000
  H   H1015     1.0  0.57831  0.48479  0.00331  1.0000
  S   S139      1.0  0.85634  0.39404  0.18923  1.0000
  S   S140      1.0  0.82825  0.44428  0.15557  1.0000
  Fe  Fe72      1.0  0.80116  0.15885  0.03387  1.0000
  S   S141      1.0  0.85272  0.13553  0.02870  1.0000
  S   S142      1.0  0.75036  0.14936  0.01806  1.0000
  Fe  Fe73      1.0  0.83189  0.20758  0.06298  1.0000
  S   S143      1.0  0.88533  0.18762  0.05906  1.0000
  S   S144      1.0  0.81349  0.24492  0.08515  1.0000
  Fe  Fe74      1.0  0.87394  0.18685  0.02769  1.0000
  S   S145      1.0  0.91078  0.19262  0.00233  1.0000
  Fe  Fe75      1.0  0.86059  0.13782  0.06033  1.0000
  S   S146      1.0  0.89150  0.09956  0.07702  1.0000
  S   S147      1.0  0.82182  0.21033  0.03144  1.0000
  S   S148      1.0  0.80756  0.15768  0.06573  1.0000
  C   C568      1.0  0.97841  0.19555  0.04509  1.0000
  H   H1016     1.0  0.91232  0.42508  0.11966  1.0000
  C   C569      1.0  0.95389  0.35781  0.22625  1.0000
  H   H1017     1.0  0.95935  0.26203  0.04620  1.0000
  H   H1018     1.0  0.92933  0.35347  0.21958  1.0000
  C   C570      1.0  0.85869  0.32850  0.12154  1.0000
  C   C571      1.0  0.82395  0.32011  0.12276  1.0000
  C   C572      1.0  0.81072  0.29459  0.11149  1.0000
  C   C573      1.0  0.83191  0.27704  0.09883  1.0000
  C   C574      1.0  0.86677  0.28509  0.09779  1.0000
  C   C575      1.0  0.87998  0.31062  0.10908  1.0000
  H   H1019     1.0  0.80724  0.33328  0.13239  1.0000
  H   H1020     1.0  0.78377  0.28848  0.11255  1.0000
  H   H1021     1.0  0.88349  0.27177  0.08825  1.0000
  H   H1022     1.0  0.90694  0.31671  0.10809  1.0000
  C   C576      1.0  0.85613  0.02407  0.12201  1.0000
  C   C577      1.0  0.83179  0.04209  0.11145  1.0000
  C   C578      1.0  0.84209  0.06550  0.09782  1.0000
  C   C579      1.0  0.87699  0.07135  0.09461  1.0000
  C   C580      1.0  0.90138  0.05348  0.10524  1.0000
  C   C581      1.0  0.89106  0.03000  0.11886  1.0000
  H   H1023     1.0  0.80471  0.03763  0.11370  1.0000
  H   H1024     1.0  0.82299  0.07851  0.08955  1.0000
  H   H1025     1.0  0.92846  0.05760  0.10281  1.0000
  C   C582      1.0  0.60238  0.25097  0.30765  1.0000
  H   H1026     1.0  0.64355  0.10744  0.05280  1.0000
  H   H1027     1.0  0.54503  0.02714  0.17828  1.0000
  C   C583      1.0  0.95497  0.12763  0.03263  1.0000
  C   C584      1.0  0.90606  0.46262  0.09726  1.0000
  H   H1028     1.0  0.92433  0.47333  0.08685  1.0000
  H   H1029     1.0  0.55696  0.15745  0.23701  1.0000
  H   H1030     1.0  0.71169  0.18376  0.28930  1.0000
  C   C585      1.0  0.55066  0.19434  0.25910  1.0000
  H   H1031     1.0  0.69139  0.14770  0.99371  1.0000
  N   N33       1.0  0.97564  0.40867  0.29866  1.0000
  C   C586      1.0  0.58840  0.03173  0.00348  1.0000
  H   H1032     1.0  0.85988  0.41609  0.11033  1.0000
  H   H1033     1.0  0.52960  0.18119  0.26644  1.0000
  C   C587      1.0  0.96944  0.38848  0.22430  1.0000
  C   C588      1.0  0.79313  0.40811  0.10895  1.0000
  H   H1034     1.0  0.68225  0.10652  0.03870  1.0000
  C   C589      1.0  0.95672  0.34835  0.30582  1.0000
  H   H1035     1.0  0.53560  0.09232  0.02021  1.0000
  C   C590      1.0  0.72118  0.46539  0.22843  1.0000
  H   H1036     1.0  0.64402  0.02819  0.00832  1.0000
  C   C591      1.0  0.63645  0.09216  0.02345  1.0000
  H   H1037     1.0  0.96986  0.41372  0.26826  1.0000
  C   C592      1.0  0.55021  0.18382  0.23832  1.0000
  H   H1038     1.0  0.71011  0.44160  0.22581  1.0000
  N   N34       1.0  0.58041  0.06634  0.00959  1.0000
  C   C593      1.0  0.94181  0.10441  0.01738  1.0000
  Fe  Fe76      1.0  0.59582  0.01432  0.30973  1.0000
  H   H1039     1.0  0.77488  0.01662  0.25419  1.0000
  H   H1040     1.0  0.57137  0.45358  0.22335  1.0000
  S   S149      1.0  0.60299  0.01231  0.27792  1.0000
  C   C594      1.0  0.95653  0.45615  0.11965  1.0000
  H   H1041     1.0  0.54624  0.04082  0.04154  1.0000
  N   N35       1.0  0.84564  0.17582  0.13106  1.0000
  C   C595      1.0  0.86991  0.16932  0.11474  1.0000
  C   C596      1.0  0.80907  0.17387  0.12404  1.0000
  C   C597      1.0  0.85161  0.21067  0.13744  1.0000
  C   C598      1.0  0.85131  0.15281  0.14768  1.0000
  C   C599      1.0  0.86452  0.11766  0.14305  1.0000
  C   C600      1.0  0.90836  0.17649  0.11896  1.0000
  C   C601      1.0  0.82613  0.22437  0.15244  1.0000
  C   C602      1.0  0.79696  0.14016  0.11685  1.0000
  C   C603      1.0  0.76017  0.14216  0.10933  1.0000
  C   C604      1.0  0.86165  0.09492  0.16024  1.0000
  C   C605      1.0  0.93268  0.15782  0.10580  1.0000
  C   C606      1.0  0.84000  0.25544  0.16165  1.0000
  H   H1042     1.0  0.86255  0.18463  0.10223  1.0000
  H   H1043     1.0  0.86772  0.14382  0.10956  1.0000
  H   H1044     1.0  0.79065  0.18037  0.13550  1.0000
  H   H1045     1.0  0.80484  0.19219  0.11249  1.0000
  H   H1046     1.0  0.85078  0.22771  0.12505  1.0000
  H   H1047     1.0  0.87778  0.21319  0.14355  1.0000
  H   H1048     1.0  0.87031  0.16313  0.15780  1.0000
  H   H1049     1.0  0.82719  0.15050  0.15611  1.0000
  H   H1050     1.0  0.89195  0.11827  0.13877  1.0000
  H   H1051     1.0  0.85026  0.10622  0.13132  1.0000
  H   H1052     1.0  0.91323  0.20311  0.11701  1.0000
  H   H1053     1.0  0.91518  0.16998  0.13377  1.0000
  H   H1054     1.0  0.82107  0.20620  0.16384  1.0000
  H   H1055     1.0  0.80139  0.23100  0.14554  1.0000
  H   H1056     1.0  0.81361  0.13111  0.10525  1.0000
  H   H1057     1.0  0.79674  0.12207  0.12862  1.0000
  H   H1058     1.0  0.75797  0.16086  0.09790  1.0000
  H   H1059     1.0  0.75266  0.11805  0.10344  1.0000
  H   H1060     1.0  0.74202  0.14859  0.12093  1.0000
  H   H1061     1.0  0.83434  0.09198  0.16449  1.0000
  H   H1062     1.0  0.87203  0.07033  0.15656  1.0000
  H   H1063     1.0  0.87655  0.10466  0.17237  1.0000
  H   H1064     1.0  0.62447  0.29517  0.29520  1.0000
  H   H1065     1.0  0.95961  0.16500  0.10872  1.0000
  H   H1066     1.0  0.93033  0.13103  0.10825  1.0000
  H   H1067     1.0  0.86345  0.24988  0.17004  1.0000
  H   H1068     1.0  0.84633  0.27408  0.15069  1.0000
  H   H1069     1.0  0.82031  0.26599  0.17131  1.0000
  H   H1070     1.0  0.97460  0.26956  0.06985  1.0000
  H   H1071     1.0  0.84493  0.08430  0.99868  1.0000
  H   H1072     1.0  0.97228  0.46706  0.32259  1.0000
  H   H1073     1.0  0.85964  0.37741  0.08416  1.0000
  C   C607      1.0  0.52936  0.04204  0.02889  1.0000
  C   C608      1.0  0.96752  0.27663  0.99704  1.0000
  H   H1074     1.0  0.83626  0.46681  0.06786  1.0000
  H   H1075     1.0  0.51409  0.11771  0.31275  1.0000
  C   C609      1.0  0.84967  0.43727  0.10222  1.0000
  C   C610      1.0  0.91942  0.40585  0.27882  1.0000
  H   H1076     1.0  0.52230  0.07823  0.16270  1.0000
  H   H1077     1.0  0.68876  0.18263  0.31156  1.0000
  H   H1078     1.0  0.90057  0.38383  0.09466  1.0000
  C   C611      1.0  0.56053  0.18806  0.30086  1.0000
  H   H1079     1.0  0.63277  0.11768  0.01837  1.0000
  H   H1080     1.0  0.58382  0.01418  0.01530  1.0000
  C   C612      1.0  0.88526  0.42207  0.07361  1.0000
  H   H1081     1.0  0.51767  0.09487  0.21567  1.0000
  H   H1082     1.0  0.52407  0.18760  0.23236  1.0000
  H   H1083     1.0  0.65704  0.18566  0.27163  1.0000
  H   H1084     1.0  0.93306  0.46325  0.30912  1.0000
  H   H1085     1.0  0.53683  0.20156  0.29660  1.0000
  H   H1086     1.0  0.61140  0.24340  0.27754  1.0000
  H   H1087     1.0  0.87483  0.41176  0.26062  1.0000
  H   H1088     1.0  0.79856  0.45089  0.09157  1.0000
  N   N36       1.0  0.87499  0.44874  0.08739  1.0000
  H   H1089     1.0  0.91694  0.03161  0.23266  1.0000
  H   H1090     1.0  0.56872  0.19849  0.22986  1.0000
  H   H1091     1.0  0.86899  0.01388  0.07312  1.0000
  N   N37       1.0  0.59046  0.19797  0.28853  1.0000
  H   H1092     1.0  0.60585  0.19747  0.25903  1.0000
  H   H1093     1.0  0.56772  0.24585  0.28416  1.0000
  H   H1094     1.0  0.80716  0.38523  0.11258  1.0000
  H   H1095     1.0  0.68538  0.14893  0.29511  1.0000
  C   C613      1.0  0.98367  0.37239  0.29736  1.0000
  C   C614      1.0  0.61179  0.48991  0.22663  1.0000
  H   H1096     1.0  0.90341  0.40867  0.29172  1.0000
  H   H1097     1.0  0.97728  0.16156  0.01299  1.0000
  H   H1098     1.0  0.77390  0.08245  0.00868  1.0000
  C   C615      1.0  0.96996  0.33278  0.23703  1.0000
  H   H1099     1.0  0.62480  0.18735  0.31192  1.0000
  H   H1100     1.0  0.69174  0.45857  0.31940  1.0000
  H   H1101     1.0  0.59029  0.15950  0.26729  1.0000
  H   H1102     1.0  0.79291  0.25163  0.99638  1.0000
  C   C616      1.0  0.50191  0.10739  0.22597  1.0000
  C   C617      1.0  0.73443  0.11813  0.00278  1.0000
  H   H1103     1.0  0.55047  0.14010  0.28722  1.0000
  H   H1104     1.0  0.49209  0.07354  0.04329  1.0000
  H   H1105     1.0  0.86754  0.42166  0.06123  1.0000
  H   H1106     1.0  0.54490  0.22093  0.25952  1.0000
  H   H1107     1.0  0.88781  0.36389  0.05324  1.0000
  C   C618      1.0  0.60109  0.07543  0.02694  1.0000
  H   H1108     1.0  0.92948  0.36967  0.06417  1.0000
  H   H1109     1.0  0.52673  0.06505  0.00132  1.0000
  H   H1110     1.0  0.91503  0.42039  0.24910  1.0000
  C   C619      1.0  0.90224  0.36305  0.06681  1.0000
  H   H1111     1.0  0.96682  0.20685  0.03221  1.0000
  H   H1112     1.0  0.49621  0.11998  0.27338  1.0000
  H   H1113     1.0  0.91097  0.42754  0.06742  1.0000
  C   C620      1.0  0.75941  0.99745  0.24809  1.0000
  H   H1114     1.0  0.88090  0.01129  0.22203  1.0000
  H   H1115     1.0  0.51953  0.03651  0.19913  1.0000
  H   H1116     1.0  0.87984  0.00545  0.25687  1.0000
  H   H1117     1.0  0.52844  0.01744  0.02222  1.0000
  H   H1118     1.0  0.97181  0.43821  0.12804  1.0000
  C   C621      1.0  0.59274  0.23486  0.28846  1.0000
  H   H1119     1.0  0.57852  0.13372  0.01046  1.0000
  H   H1120     1.0  0.89843  0.47946  0.05442  1.0000
  C   C622      1.0  0.54250  0.06784  0.01441  1.0000
  H   H1121     1.0  0.94079  0.42041  0.09955  1.0000
  H   H1122     1.0  0.89681  0.44945  0.26566  1.0000
  H   H1123     1.0  0.60547  0.05338  0.03599  1.0000
  C   C623      1.0  0.60439  0.28820  0.30567  1.0000
  H   H1124     1.0  0.49559  0.08604  0.18298  1.0000
  H   H1125     1.0  0.94059  0.24057  0.06619  1.0000
  C   C624      1.0  0.92800  0.43833  0.10904  1.0000
  C   C625      1.0  0.81355  0.42821  0.09457  1.0000
  C   C626      1.0  0.75227  0.47381  0.21934  1.0000
  H   H1126     1.0  0.58634  0.09261  0.03615  1.0000
  H   H1127     1.0  0.90151  0.33756  0.07233  1.0000
  C   C627      1.0  0.58590  0.18645  0.26837  1.0000
  C   C628      1.0  0.65764  0.09372  0.04163  1.0000
  C   C629      1.0  0.88605  0.38627  0.08128  1.0000
  C   C630      1.0  0.95701  0.41600  0.31699  1.0000
  H   H1128     1.0  0.76785  0.40145  0.10286  1.0000
  H   H1129     1.0  0.93356  0.14449  0.03624  1.0000
  H   H1130     1.0  0.81541  0.41404  0.08122  1.0000
  H   H1131     1.0  0.64128  0.48436  0.00198  1.0000
  H   H1132     1.0  0.92661  0.25932  0.01539  1.0000
  H   H1133     1.0  0.92686  0.16342  0.09075  1.0000
  C   C631      1.0  0.55262  0.15089  0.30155  1.0000
  S   S150      1.0  0.84117  0.99435  0.13862  1.0000
  H   H1134     1.0  0.57333  0.13768  0.30925  1.0000
  H   H1135     1.0  0.65216  0.07946  0.01267  1.0000
  H   H1136     1.0  0.91895  0.09113  0.02281  1.0000
  C   C632      1.0  0.98664  0.14714  0.02538  1.0000
  C   C633      1.0  0.53277  0.04713  0.18657  1.0000
  H   H1137     1.0  0.89806  0.48311  0.10671  1.0000
  C   C634      1.0  0.62267  0.18258  0.29644  1.0000
  C   C635      1.0  0.62543  0.02450  0.99668  1.0000
  H   H1138     1.0  0.66093  0.21961  0.28770  1.0000
  C   C636      1.0  0.51887  0.14447  0.31203  1.0000
  H   H1139     1.0  0.66374  0.06866  0.04686  1.0000
  H   H1140     1.0  0.91010  0.01636  0.12683  1.0000
  C   C637      1.0  0.49025  0.12176  0.25847  1.0000
  H   H1141     1.0  0.92141  0.37957  0.27499  1.0000
  H   H1142     1.0  0.93234  0.40275  0.31796  1.0000
  C   C638      1.0  0.51054  0.10477  0.24533  1.0000
  H   H1143     1.0  0.84573  0.45665  0.11312  1.0000
  C   C639      1.0  0.68748  0.17598  0.29630  1.0000
  C   C640      1.0  0.70460  0.48709  0.24118  1.0000
  H   H1144     1.0  0.76175  0.21985  0.00029  1.0000
  H   H1145     1.0  0.59905  0.44710  0.24353  1.0000
  C   C641      1.0  0.50737  0.06640  0.17428  1.0000
  H   H1146     1.0  0.94547  0.47442  0.12959  1.0000
  H   H1147     1.0  0.62141  0.15548  0.29523  1.0000
  H   H1148     1.0  0.55326  0.06371  0.19171  1.0000
  C   C642      1.0  0.65683  0.19282  0.28679  1.0000
  C   C643      1.0  0.94321  0.25354  0.00353  1.0000
  H   H1149     1.0  0.62942  0.47548  0.21748  1.0000
  H   H1150     1.0  0.95390  0.44734  0.28115  1.0000
  C   C644      1.0  0.72475  0.99447  0.25368  1.0000
  H   H1151     1.0  0.95750  0.30929  0.23851  1.0000
  H   H1152     1.0  0.96185  0.08612  0.01358  1.0000
  H   H1153     1.0  0.92328  0.99276  0.22111  1.0000
  H   H1154     1.0  0.96103  0.11264  0.04536  1.0000
  H   H1155     1.0  0.56688  0.47897  0.24417  1.0000
  C   C645      1.0  0.90521  0.00735  0.22996  1.0000
  C   C646      1.0  0.95580  0.42015  0.28146  1.0000
  C   C647      1.0  0.75098  0.08784  0.00057  1.0000
  H   H1156     1.0  0.94377  0.29670  0.30578  1.0000
  H   H1157     1.0  0.56515  0.19520  0.31585  1.0000
  H   H1158     1.0  0.61114  0.29912  0.31957  1.0000
  C   C648      1.0  0.96178  0.31355  0.29846  1.0000
  C   C649      1.0  0.57319  0.12485  0.99593  1.0000
  H   H1159     1.0  0.92997  0.35550  0.30255  1.0000
  H   H1160     1.0  0.49707  0.15621  0.30440  1.0000
  H   H1161     1.0  0.62773  0.24227  0.31284  1.0000
  H   H1162     1.0  0.95935  0.34770  0.32152  1.0000
  C   C650      1.0  0.85798  0.47631  0.07644  1.0000
  H   H1163     1.0  0.95643  0.18464  0.05282  1.0000
  H   H1164     1.0  0.93420  0.11841  0.00450  1.0000
  S   S151      1.0  0.60616  0.46087  0.32141  1.0000
  H   H1165     1.0  0.78860  0.42243  0.12207  1.0000
  H   H1166     1.0  0.49249  0.02891  0.15451  1.0000
  H   H1167     1.0  0.95648  0.31265  0.28299  1.0000
  H   H1168     1.0  0.96943  0.30006  0.00405  1.0000
  C   C651      1.0  0.58557  0.46599  0.23489  1.0000
  C   C652      1.0  0.96483  0.25041  0.06015  1.0000
  H   H1169     1.0  0.58289  0.24559  0.31871  1.0000
  C   C653      1.0  0.94032  0.22318  0.99459  1.0000
  H   H1170     1.0  0.68140  0.47961  0.24840  1.0000
  H   H1171     1.0  0.57924  0.29853  0.30112  1.0000
  C   C654      1.0  0.94850  0.45254  0.32083  1.0000
  H   H1172     1.0  0.97394  0.46883  0.10955  1.0000
  H   H1173     1.0  0.54491  0.12585  0.99376  1.0000
  H   H1174     1.0  0.96972  0.09251  0.56866  1.0000
  C   C655      1.0  0.92059  0.41264  0.61305  1.0000
  Fe  Fe77      1.0  0.56752  0.29872  0.44709  1.0000
  S   S152      1.0  0.61110  0.26390  0.44103  1.0000
  S   S153      1.0  0.53273  0.29675  0.47362  1.0000
  Fe  Fe78      1.0  0.58806  0.34377  0.41309  1.0000
  S   S154      1.0  0.63260  0.31135  0.40470  1.0000
  S   S155      1.0  0.57047  0.39350  0.40117  1.0000
  Fe  Fe79      1.0  0.59655  0.26878  0.41007  1.0000
  S   S156      1.0  0.57908  0.22528  0.39173  1.0000
  Fe  Fe80      1.0  0.64371  0.30909  0.43631  1.0000
  S   S157      1.0  0.69740  0.31223  0.44978  1.0000
  S   S158      1.0  0.55127  0.30181  0.41660  1.0000
  S   S159      1.0  0.60112  0.34340  0.44423  1.0000
  S   S160      1.0  0.87337  0.10761  0.64807  1.0000
  S   S161      1.0  0.89117  0.27236  0.64187  1.0000
  Fe  Fe81      1.0  0.81540  0.42806  0.51721  1.0000
  S   S162      1.0  0.85861  0.39163  0.52050  1.0000
  S   S163      1.0  0.76999  0.42763  0.49626  1.0000
  Fe  Fe82      1.0  0.83963  0.46783  0.55259  1.0000
  S   S164      1.0  0.88412  0.43373  0.55784  1.0000
  S   S165      1.0  0.83103  0.03270  0.57202  1.0000
  Fe  Fe83      1.0  0.89208  0.43615  0.52590  1.0000
  S   S166      1.0  0.94720  0.44012  0.51403  1.0000
  Fe  Fe84      1.0  0.84726  0.39256  0.55200  1.0000
  S   S167      1.0  0.83015  0.34840  0.56998  1.0000
  S   S168      1.0  0.84925  0.47257  0.52105  1.0000
  S   S169      1.0  0.80239  0.42673  0.54820  1.0000
  C   C656      1.0  0.70682  0.46654  0.34884  1.0000
  C   C657      1.0  0.69696  0.32651  0.54804  1.0000
  H   H1175     1.0  0.98297  0.02464  0.36711  1.0000
  H   H1176     1.0  0.50587  0.35684  0.41422  1.0000
  H   H1177     1.0  0.82783  0.45886  0.65614  1.0000
  C   C658      1.0  0.87308  0.29415  0.62241  1.0000
  C   C659      1.0  0.83857  0.29115  0.61724  1.0000
  C   C660      1.0  0.82584  0.30826  0.60127  1.0000
  C   C661      1.0  0.84728  0.32879  0.59043  1.0000
  C   C662      1.0  0.88167  0.33202  0.59572  1.0000
  C   C663      1.0  0.89442  0.31487  0.61164  1.0000
  H   H1178     1.0  0.82178  0.27556  0.62548  1.0000
  H   H1179     1.0  0.79920  0.30550  0.59727  1.0000
  H   H1180     1.0  0.89861  0.34718  0.58732  1.0000
  H   H1181     1.0  0.92118  0.31730  0.61549  1.0000
  C   C664      1.0  0.86012  0.08694  0.62711  1.0000
  C   C665      1.0  0.83743  0.10097  0.61400  1.0000
  C   C666      1.0  0.82875  0.08396  0.59730  1.0000
  C   C667      1.0  0.84206  0.05245  0.59363  1.0000
  C   C668      1.0  0.86431  0.03819  0.60688  1.0000
  C   C669      1.0  0.87339  0.05543  0.62344  1.0000
  H   H1182     1.0  0.82614  0.12462  0.61686  1.0000
  H   H1183     1.0  0.81108  0.09500  0.58730  1.0000
  C   C670      1.0  0.51718  0.39746  0.45356  1.0000
  H   H1184     1.0  0.89074  0.04417  0.63354  1.0000
  H   H1185     1.0  0.91894  0.07683  0.58737  1.0000
  H   H1186     1.0  0.92741  0.00846  0.57131  1.0000
  H   H1187     1.0  0.95684  0.15387  0.63230  1.0000
  H   H1188     1.0  0.51853  0.02752  0.34137  1.0000
  H   H1189     1.0  0.91533  0.27502  0.54337  1.0000
  C   C671      1.0  0.71771  0.34541  0.46173  1.0000
  C   C672      1.0  0.70159  0.37581  0.46434  1.0000
  C   C673      1.0  0.71822  0.40079  0.47463  1.0000
  C   C674      1.0  0.75106  0.39577  0.48256  1.0000
  C   C675      1.0  0.76750  0.36569  0.47954  1.0000
  C   C676      1.0  0.75090  0.34072  0.46924  1.0000
  H   H1190     1.0  0.67622  0.38000  0.45855  1.0000
  H   H1191     1.0  0.70538  0.42408  0.47665  1.0000
  H   H1192     1.0  0.79293  0.36156  0.48526  1.0000
  H   H1193     1.0  0.76381  0.31748  0.46717  1.0000
  C   C677      1.0  0.62439  0.15326  0.34766  1.0000
  C   C678      1.0  0.64576  0.17614  0.35665  1.0000
  C   C679      1.0  0.63239  0.19870  0.36992  1.0000
  C   C680      1.0  0.59737  0.19866  0.37439  1.0000
  C   C681      1.0  0.57593  0.17596  0.36522  1.0000
  C   C682      1.0  0.58931  0.15337  0.35197  1.0000
  C   C683      1.0  0.98728  0.01280  0.48047  1.0000
  H   H1194     1.0  0.64925  0.21589  0.37684  1.0000
  H   H1195     1.0  0.54881  0.17565  0.36860  1.0000
  H   H1196     1.0  0.57258  0.13583  0.34531  1.0000
  C   C684      1.0  0.59364  0.44196  0.34316  1.0000
  C   C685      1.0  0.57342  0.45796  0.35673  1.0000
  C   C686      1.0  0.56640  0.44266  0.37432  1.0000
  C   C687      1.0  0.57944  0.41123  0.37858  1.0000
  C   C688      1.0  0.59932  0.39510  0.36493  1.0000
  C   C689      1.0  0.60624  0.41035  0.34734  1.0000
  H   H1197     1.0  0.82893  0.46317  0.60874  1.0000
  H   H1198     1.0  0.55087  0.45533  0.38472  1.0000
  H   H1199     1.0  0.60950  0.37094  0.36795  1.0000
  H   H1200     1.0  0.95622  0.19785  0.63007  1.0000
  C   C690      1.0  0.95082  0.01068  0.56230  1.0000
  C   C691      1.0  0.53137  0.16980  0.47565  1.0000
  C   C692      1.0  0.92773  0.45634  0.33913  1.0000
  H   H1201     1.0  0.54689  0.19099  0.47074  1.0000
  H   H1202     1.0  0.65992  0.43558  0.38113  1.0000
  H   H1203     1.0  0.63375  0.01458  0.39987  1.0000
  H   H1204     1.0  0.85621  0.05888  0.53516  1.0000
  C   C693      1.0  0.67411  0.43271  0.41034  1.0000
  H   H1205     1.0  0.69394  0.08527  0.35381  1.0000
  C   C694      1.0  0.66512  0.34222  0.55755  1.0000
  C   C695      1.0  0.90966  0.04451  0.53042  1.0000
  H   H1206     1.0  0.93580  0.03220  0.47862  1.0000
  C   C696      1.0  0.68261  0.48305  0.38944  1.0000
  H   H1207     1.0  0.72471  0.06053  0.36650  1.0000
  C   C697      1.0  0.67269  0.48344  0.35441  1.0000
  H   H1208     1.0  0.52032  0.09849  0.52772  1.0000
  H   H1209     1.0  0.87465  0.01395  0.60434  1.0000
  H   H1210     1.0  0.67370  0.31898  0.58510  1.0000
  C   C698      1.0  0.85474  0.39386  0.63361  1.0000
  H   H1211     1.0  0.82547  0.30533  0.53382  1.0000
  H   H1212     1.0  0.69520  0.04138  0.35038  1.0000
  H   H1213     1.0  0.51980  0.39385  0.48438  1.0000
  H   H1214     1.0  0.56769  0.11822  0.56373  1.0000
  C   C699      1.0  0.49846  0.27019  0.48040  1.0000
  H   H1215     1.0  0.97259  0.40672  0.32918  1.0000
  H   H1216     1.0  0.94174  0.08610  0.61904  1.0000
  H   H1217     1.0  0.53591  0.39991  0.44172  1.0000
  H   H1218     1.0  0.92841  0.04748  0.51873  1.0000
  H   H1219     1.0  0.89104  0.43950  0.64788  1.0000
  H   H1220     1.0  0.67441  0.44796  0.42334  1.0000
  C   C700      1.0  0.69520  0.40518  0.53147  1.0000
  H   H1221     1.0  0.74267  0.38340  0.52348  1.0000
  H   H1222     1.0  0.81395  0.34064  0.64496  1.0000
  C   C701      1.0  0.80176  0.30384  0.52514  1.0000
  H   H1223     1.0  0.69242  0.35569  0.50195  1.0000
  H   H1224     1.0  0.97064  0.40619  0.59989  1.0000
  H   H1225     1.0  0.61695  0.32369  0.50110  1.0000
  N   N38       1.0  0.60728  0.05350  0.38480  1.0000
  C   C702      1.0  0.60917  0.01884  0.39222  1.0000
  C   C703      1.0  0.63496  0.05783  0.36998  1.0000
  C   C704      1.0  0.61208  0.07667  0.40117  1.0000
  C   C705      1.0  0.57298  0.06061  0.37568  1.0000
  C   C706      1.0  0.56102  0.03564  0.36057  1.0000
  C   C707      1.0  0.51825  0.12273  0.53477  1.0000
  C   C708      1.0  0.61387  0.11356  0.39588  1.0000
  C   C709      1.0  0.67255  0.05685  0.37727  1.0000
  C   C710      1.0  0.69804  0.06125  0.36095  1.0000
  N   N39       1.0  0.49175  0.14386  0.52497  1.0000
  H   H1226     1.0  0.67737  0.07677  0.38755  1.0000
  C   C711      1.0  0.62112  0.13452  0.41330  1.0000
  H   H1227     1.0  0.62189  0.39771  0.33697  1.0000
  H   H1228     1.0  0.60437  0.12567  0.54871  1.0000
  H   H1229     1.0  0.63297  0.03846  0.35899  1.0000
  H   H1230     1.0  0.63121  0.08120  0.36209  1.0000
  H   H1231     1.0  0.63544  0.07000  0.40944  1.0000
  H   H1232     1.0  0.59041  0.07430  0.41139  1.0000
  C   C712      1.0  0.87344  0.45172  0.63757  1.0000
  H   H1233     1.0  0.57354  0.08487  0.36841  1.0000
  N   N40       1.0  0.95651  0.04582  0.55640  1.0000
  H   H1234     1.0  0.51269  0.19228  0.53022  1.0000
  H   H1235     1.0  0.68939  0.45695  0.53764  1.0000
  H   H1236     1.0  0.75942  0.41362  0.58551  1.0000
  H   H1237     1.0  0.58900  0.12197  0.38992  1.0000
  H   H1238     1.0  0.63439  0.11857  0.38535  1.0000
  H   H1239     1.0  0.50816  0.22808  0.55735  1.0000
  H   H1240     1.0  0.67846  0.03306  0.38419  1.0000
  S   S170      1.0  0.82591  0.19828  0.65733  1.0000
  H   H1241     1.0  0.50365  0.36085  0.37898  1.0000
  H   H1242     1.0  0.62178  0.16078  0.40909  1.0000
  C   C713      1.0  0.96799  0.06634  0.57293  1.0000
  H   H1243     1.0  0.55849  0.01063  0.36659  1.0000
  H   H1244     1.0  0.93510  0.39693  0.58456  1.0000
  H   H1245     1.0  0.52685  0.07011  0.34605  1.0000
  C   C714      1.0  0.92308  0.05973  0.54904  1.0000
  C   C715      1.0  0.66022  0.45232  0.39347  1.0000
  H   H1246     1.0  0.65531  0.28981  0.65839  1.0000
  H   H1247     1.0  0.68961  0.40933  0.51618  1.0000
  H   H1248     1.0  0.67295  0.17631  0.35343  1.0000
  C   C716      1.0  0.72183  0.37689  0.53363  1.0000
  C   C717      1.0  0.73948  0.32226  0.52277  1.0000
  C   C718      1.0  0.52261  0.17387  0.49666  1.0000
  N   N41       1.0  0.85845  0.42678  0.62406  1.0000
  C   C719      1.0  0.82485  0.43914  0.61597  1.0000
  H   H1249     1.0  0.55239  0.37053  0.47209  1.0000
  C   C720      1.0  0.88326  0.42278  0.60772  1.0000
  H   H1250     1.0  0.50607  0.04486  0.36384  1.0000
  H   H1251     1.0  0.67181  0.36670  0.56317  1.0000
  C   C721      1.0  0.80676  0.41641  0.60158  1.0000
  H   H1252     1.0  0.64491  0.29691  0.56960  1.0000
  H   H1253     1.0  0.50957  0.12246  0.49856  1.0000
  H   H1254     1.0  0.55568  0.41445  0.47342  1.0000
  H   H1255     1.0  0.90460  0.01809  0.53245  1.0000
  H   H1256     1.0  0.80583  0.44416  0.62731  1.0000
  H   H1257     1.0  0.92227  0.48269  0.34168  1.0000
  H   H1258     1.0  0.63053  0.33374  0.58124  1.0000
  H   H1259     1.0  0.88452  0.44602  0.59939  1.0000
  H   H1260     1.0  0.87419  0.40373  0.59772  1.0000
  H   H1261     1.0  0.84888  0.37463  0.62299  1.0000
  H   H1262     1.0  0.55241  0.06298  0.38659  1.0000
  H   H1263     1.0  0.50756  0.16897  0.46700  1.0000
  H   H1264     1.0  0.64640  0.12794  0.41956  1.0000
  H   H1265     1.0  0.82213  0.41431  0.58840  1.0000
  H   H1266     1.0  0.80267  0.39157  0.60754  1.0000
  C   C722      1.0  0.95998  0.08526  0.60690  1.0000
  H   H1267     1.0  0.76913  0.31336  0.54902  1.0000
  H   H1268     1.0  0.80754  0.31395  0.51082  1.0000
  H   H1269     1.0  0.71490  0.43473  0.55477  1.0000
  H   H1270     1.0  0.73249  0.44483  0.53169  1.0000
  H   H1271     1.0  0.49964  0.39937  0.41615  1.0000
  H   H1272     1.0  0.60061  0.13139  0.42412  1.0000
  H   H1273     1.0  0.56721  0.13401  0.52107  1.0000
  H   H1274     1.0  0.97894  0.02807  0.53010  1.0000
  H   H1275     1.0  0.94189  0.39894  0.45845  1.0000
  H   H1276     1.0  0.78259  0.34906  0.53602  1.0000
  H   H1277     1.0  0.57948  0.03459  0.34859  1.0000
  H   H1278     1.0  0.65931  0.35678  0.51899  1.0000
  H   H1279     1.0  0.73379  0.37852  0.54794  1.0000
  H   H1280     1.0  0.50954  0.19790  0.49825  1.0000
  H   H1281     1.0  0.92508  0.08664  0.54690  1.0000
  C   C723      1.0  0.57766  0.11621  0.54899  1.0000
  H   H1282     1.0  0.73251  0.29593  0.52177  1.0000
  H   H1283     1.0  0.88057  0.08690  0.52039  1.0000
  H   H1284     1.0  0.90226  0.05631  0.55972  1.0000
  H   H1285     1.0  0.86663  0.04821  0.51108  1.0000
  H   H1286     1.0  0.80227  0.40025  0.64514  1.0000
  C   C724      1.0  0.77308  0.32364  0.53460  1.0000
  H   H1287     1.0  0.87957  0.38597  0.63999  1.0000
  H   H1288     1.0  0.64325  0.34450  0.54760  1.0000
  C   C725      1.0  0.70894  0.43729  0.53944  1.0000
  H   H1289     1.0  0.74610  0.32995  0.50812  1.0000
  C   C726      1.0  0.84791  0.47346  0.64895  1.0000
  C   C727      1.0  0.58029  0.00848  0.40618  1.0000
  H   H1290     1.0  0.92122  0.38716  0.61860  1.0000
  N   N42       1.0  0.87494  0.20071  0.59012  1.0000
  C   C728      1.0  0.87127  0.23229  0.57907  1.0000
  C   C729      1.0  0.84605  0.19874  0.60441  1.0000
  C   C730      1.0  0.90813  0.20236  0.60118  1.0000
  C   C731      1.0  0.87588  0.17069  0.57762  1.0000
  C   C732      1.0  0.85498  0.17207  0.55888  1.0000
  C   C733      1.0  0.90227  0.24168  0.56633  1.0000
  C   C734      1.0  0.91598  0.17274  0.61440  1.0000
  C   C735      1.0  0.80913  0.19688  0.59639  1.0000
  C   C736      1.0  0.78238  0.19860  0.61225  1.0000
  C   C737      1.0  0.85395  0.13847  0.54944  1.0000
  C   C738      1.0  0.89233  0.26781  0.55172  1.0000
  C   C739      1.0  0.95248  0.17454  0.62227  1.0000
  H   H1291     1.0  0.86733  0.25312  0.58896  1.0000
  H   H1292     1.0  0.84791  0.23225  0.57012  1.0000
  H   H1293     1.0  0.84880  0.17664  0.61347  1.0000
  H   H1294     1.0  0.84734  0.21995  0.61430  1.0000
  H   H1295     1.0  0.90869  0.22497  0.61003  1.0000
  H   H1296     1.0  0.93044  0.20415  0.59136  1.0000
  H   H1297     1.0  0.90278  0.16486  0.57328  1.0000
  H   H1298     1.0  0.86723  0.14882  0.58583  1.0000
  H   H1299     1.0  0.86704  0.18926  0.54865  1.0000
  H   H1300     1.0  0.82821  0.18038  0.56107  1.0000
  H   H1301     1.0  0.92307  0.25206  0.57523  1.0000
  H   H1302     1.0  0.91283  0.22010  0.55875  1.0000
  H   H1303     1.0  0.91331  0.14910  0.60689  1.0000
  H   H1304     1.0  0.89828  0.17255  0.62671  1.0000
  H   H1305     1.0  0.80351  0.21726  0.58644  1.0000
  H   H1306     1.0  0.80541  0.17308  0.58916  1.0000
  H   H1307     1.0  0.78564  0.17767  0.62222  1.0000
  H   H1308     1.0  0.78463  0.22195  0.62017  1.0000
  H   H1309     1.0  0.75618  0.19730  0.60611  1.0000
  H   H1310     1.0  0.83931  0.14008  0.53596  1.0000
  H   H1311     1.0  0.88038  0.12985  0.54618  1.0000
  H   H1312     1.0  0.84115  0.12025  0.55880  1.0000
  C   C740      1.0  0.96644  0.46953  0.49840  1.0000
  H   H1313     1.0  0.87270  0.25826  0.54179  1.0000
  H   H1314     1.0  0.88199  0.28998  0.55887  1.0000
  H   H1315     1.0  0.72605  0.48521  0.34471  1.0000
  H   H1316     1.0  0.97170  0.17287  0.61065  1.0000
  H   H1317     1.0  0.94015  0.04042  0.59597  1.0000
  H   H1318     1.0  0.66080  0.29334  0.51972  1.0000
  C   C741      1.0  0.63962  0.31264  0.49392  1.0000
  H   H1319     1.0  0.71754  0.32692  0.55895  1.0000
  H   H1320     1.0  0.71709  0.45116  0.36053  1.0000
  H   H1321     1.0  0.64704  0.32834  0.48169  1.0000
  C   C742      1.0  0.66966  0.30877  0.50773  1.0000
  C   C743      1.0  0.77159  0.43015  0.59597  1.0000
  H   H1322     1.0  0.93167  0.42899  0.62392  1.0000
  C   C744      1.0  0.65293  0.32159  0.57440  1.0000
  H   H1323     1.0  0.69049  0.29570  0.50001  1.0000
  C   C745      1.0  0.94427  0.41382  0.59574  1.0000
  C   C746      1.0  0.95203  0.01364  0.48502  1.0000
  C   C747      1.0  0.87622  0.06076  0.52396  1.0000
  H   H1324     1.0  0.55436  0.01362  0.40040  1.0000
  H   H1325     1.0  0.65254  0.46451  0.35525  1.0000
  H   H1326     1.0  0.79438  0.27772  0.52385  1.0000
  H   H1327     1.0  0.75450  0.43202  0.60856  1.0000
  C   C748      1.0  0.55532  0.13615  0.53533  1.0000
  H   H1328     1.0  0.63215  0.28830  0.48834  1.0000
  C   C749      1.0  0.52595  0.04527  0.35252  1.0000
  H   H1329     1.0  0.96532  0.11075  0.60230  1.0000
  H   H1330     1.0  0.50980  0.11703  0.54953  1.0000
  C   C750      1.0  0.49874  0.14601  0.50383  1.0000
  H   H1331     1.0  0.88974  0.46963  0.62970  1.0000
  C   C751      1.0  0.68235  0.34261  0.51466  1.0000
  H   H1332     1.0  0.54649  0.14703  0.47335  1.0000
  S   S171      1.0  0.64311  0.12502  0.33140  1.0000
  H   H1333     1.0  0.55619  0.16201  0.53996  1.0000
  H   H1334     1.0  0.54698  0.17508  0.50460  1.0000
  H   H1335     1.0  0.58296  0.02164  0.41983  1.0000
  N   N43       1.0  0.70947  0.34236  0.52997  1.0000
  H   H1336     1.0  0.69167  0.30009  0.54573  1.0000
  H   H1337     1.0  0.63340  0.45921  0.39705  1.0000
  H   H1338     1.0  0.70050  0.42356  0.40737  1.0000
  H   H1339     1.0  0.67060  0.39991  0.53867  1.0000
  H   H1340     1.0  0.96737  0.08873  0.52388  1.0000
  H   H1341     1.0  0.65731  0.41123  0.41300  1.0000
  H   H1342     1.0  0.56337  0.48214  0.35369  1.0000
  C   C752      1.0  0.94431  0.06569  0.59068  1.0000
  H   H1343     1.0  0.94543  0.43908  0.58985  1.0000
  H   H1344     1.0  0.51191  0.34693  0.44678  1.0000
  H   H1345     1.0  0.57829  0.09001  0.54480  1.0000
  H   H1346     1.0  0.94239  0.44651  0.35143  1.0000
  C   C753      1.0  0.82797  0.39161  0.64976  1.0000
  C   C754      1.0  0.53747  0.39378  0.47199  1.0000
  H   H1347     1.0  0.49737  0.24235  0.45459  1.0000
  H   H1348     1.0  0.97534  0.42692  0.43236  1.0000
  H   H1349     1.0  0.50634  0.16728  0.56269  1.0000
  C   C755      1.0  0.48944  0.17774  0.53342  1.0000
  C   C756      1.0  0.82405  0.35619  0.65655  1.0000
  H   H1350     1.0  0.96359  0.36825  0.47254  1.0000
  H   H1351     1.0  0.77435  0.45476  0.58935  1.0000
  H   H1352     1.0  0.50235  0.42059  0.45453  1.0000
  H   H1353     1.0  0.97151  0.41085  0.47683  1.0000
  C   C757      1.0  0.96643  0.39257  0.46562  1.0000
  C   C758      1.0  0.49391  0.36728  0.45022  1.0000
  H   H1354     1.0  0.60971  0.00120  0.38030  1.0000
  C   C759      1.0  0.98420  0.04647  0.54136  1.0000
  C   C760      1.0  0.70174  0.44430  0.33169  1.0000
  H   H1355     1.0  0.90284  0.44328  0.33805  1.0000
  H   H1356     1.0  0.70943  0.47400  0.38837  1.0000
  H   H1357     1.0  0.63242  0.25453  0.64987  1.0000
  H   H1358     1.0  0.49773  0.40466  0.38073  1.0000
  H   H1359     1.0  0.98227  0.48236  0.42708  1.0000
  H   H1360     1.0  0.98422  0.07355  0.61180  1.0000
  H   H1361     1.0  0.49254  0.29289  0.50777  1.0000
  H   H1362     1.0  0.83503  0.49119  0.63924  1.0000
  H   H1363     1.0  0.68328  0.42445  0.33512  1.0000
  H   H1364     1.0  0.94538  0.99535  0.54966  1.0000
  C   C761      1.0  0.98132  0.99374  0.57267  1.0000
  H   H1365     1.0  0.97105  0.49075  0.39281  1.0000
  H   H1366     1.0  0.51999  0.15414  0.32671  1.0000
  H   H1367     1.0  0.72663  0.43296  0.32757  1.0000
  H   H1368     1.0  0.91380  0.13250  0.73417  1.0000
  C   C762      1.0  0.55026  0.41404  0.79433  1.0000
  Fe  Fe85      1.0  0.82007  0.20192  0.68936  1.0000
  S   S172      1.0  0.86373  0.23732  0.69291  1.0000
  S   S173      1.0  0.76654  0.20566  0.70332  1.0000
  H   H1369     1.0  0.86730  0.21618  0.93162  1.0000
  Fe  Fe86      1.0  0.89732  0.19228  0.69661  1.0000
  S   S174      1.0  0.94378  0.19130  0.71668  1.0000
  C   C763      1.0  0.50533  0.39999  0.73313  1.0000
  S   S175      1.0  0.85331  0.15714  0.69478  1.0000
  Fe  Fe87      1.0  0.56756  0.04588  0.94115  1.0000
  H   H1370     1.0  0.55438  0.42160  0.80924  1.0000
  S   S176      1.0  0.51898  0.04559  0.95989  1.0000
  Fe  Fe88      1.0  0.61000  0.08605  0.91137  1.0000
  S   S177      1.0  0.64971  0.04571  0.90905  1.0000
  S   S178      1.0  0.62368  0.13592  0.89816  1.0000
  H   H1371     1.0  0.51158  0.35301  0.67531  1.0000
  C   C764      1.0  0.51821  0.32927  0.68218  1.0000
  Fe  Fe89      1.0  0.64639  0.04366  0.94107  1.0000
  S   S179      1.0  0.69351  0.04083  0.96062  1.0000
  S   S180      1.0  0.56515  0.05142  0.90928  1.0000
  S   S181      1.0  0.60848  0.08473  0.94341  1.0000
  Fe  Fe90      1.0  0.64842  0.29734  0.78269  1.0000
  S   S182      1.0  0.60740  0.26109  0.77546  1.0000
  S   S183      1.0  0.70130  0.29762  0.76798  1.0000
  Fe  Fe91      1.0  0.60268  0.33275  0.81220  1.0000
  S   S184      1.0  0.55952  0.29810  0.80611  1.0000
  S   S185      1.0  0.58014  0.36847  0.83403  1.0000
  Fe  Fe92      1.0  0.59859  0.25770  0.80708  1.0000
  S   S186      1.0  0.58079  0.21040  0.82155  1.0000
  Fe  Fe93      1.0  0.57156  0.30481  0.77534  1.0000
  S   S187      1.0  0.52715  0.30845  0.75410  1.0000
  S   S188      1.0  0.64171  0.29165  0.81460  1.0000
  S   S189      1.0  0.61281  0.34160  0.78101  1.0000
  C   C765      1.0  0.55277  0.33209  0.69226  1.0000
  C   C766      1.0  0.50769  0.34241  0.74226  1.0000
  H   H1372     1.0  0.95287  0.44525  0.93982  1.0000
  H   H1373     1.0  0.50048  0.29250  0.83386  1.0000
  H   H1374     1.0  0.98430  0.32479  0.93710  1.0000
  H   H1375     1.0  0.49755  0.32326  0.69251  1.0000
  H   H1376     1.0  0.96348  0.04060  0.73954  1.0000
  C   C767      1.0  0.61230  0.15499  0.87624  1.0000
  C   C768      1.0  0.63189  0.18167  0.86967  1.0000
  C   C769      1.0  0.62303  0.19857  0.85285  1.0000
  C   C770      1.0  0.59399  0.18940  0.84254  1.0000
  C   C771      1.0  0.57455  0.16260  0.84903  1.0000
  C   C772      1.0  0.58368  0.14539  0.86571  1.0000
  H   H1377     1.0  0.65424  0.18917  0.87760  1.0000
  H   H1378     1.0  0.63883  0.21842  0.84776  1.0000
  H   H1379     1.0  0.55218  0.15510  0.84111  1.0000
  H   H1380     1.0  0.56829  0.12502  0.87056  1.0000
  C   C773      1.0  0.62348  0.45057  0.87188  1.0000
  C   C774      1.0  0.58811  0.44495  0.87076  1.0000
  C   C775      1.0  0.57542  0.41992  0.85897  1.0000
  C   C776      1.0  0.59781  0.40025  0.84813  1.0000
  C   C777      1.0  0.63313  0.40590  0.84917  1.0000
  C   C778      1.0  0.64583  0.43088  0.86100  1.0000
  C   C779      1.0  0.93137  0.43380  0.93199  1.0000
  H   H1381     1.0  0.54806  0.41574  0.85832  1.0000
  H   H1382     1.0  0.65071  0.39100  0.84098  1.0000
  H   H1383     1.0  0.67323  0.43501  0.86175  1.0000
  H   H1384     1.0  0.93559  0.36842  0.94383  1.0000
  C   C780      1.0  0.52233  0.37361  0.74220  1.0000
  H   H1385     1.0  0.83658  0.40622  0.66208  1.0000
  C   C781      1.0  0.80116  0.20819  0.97928  1.0000
  H   H1386     1.0  0.54650  0.37749  0.74935  1.0000
  C   C782      1.0  0.83373  0.10150  0.97010  1.0000
  H   H1387     1.0  0.50928  0.39084  0.82492  1.0000
  C   C783      1.0  0.74857  0.23238  0.72081  1.0000
  C   C784      1.0  0.71537  0.22594  0.72790  1.0000
  C   C785      1.0  0.70044  0.24564  0.74220  1.0000
  C   C786      1.0  0.71844  0.27228  0.74958  1.0000
  C   C787      1.0  0.75156  0.27881  0.74243  1.0000
  C   C788      1.0  0.76655  0.25907  0.72816  1.0000
  H   H1388     1.0  0.70124  0.20528  0.72246  1.0000
  H   H1389     1.0  0.67524  0.23991  0.74772  1.0000
  H   H1390     1.0  0.76581  0.29929  0.74801  1.0000
  H   H1391     1.0  0.79205  0.26445  0.72292  1.0000
  C   C789      1.0  0.96085  0.15941  0.73126  1.0000
  H   H1392     1.0  0.89849  0.47571  0.93781  1.0000
  H   H1393     1.0  0.80573  0.35518  0.66863  1.0000
  C   C790      1.0  0.58631  0.00260  0.82668  1.0000
  H   H1394     1.0  0.55465  0.27909  0.69427  1.0000
  C   C791      1.0  0.48989  0.40860  0.81934  1.0000
  H   H1395     1.0  0.88218  0.17716  0.92244  1.0000
  Fe  Fe94      1.0  0.60480  0.01074  0.90861  1.0000
  C   C792      1.0  0.51602  0.27087  0.86085  1.0000
  C   C793      1.0  0.90778  0.46162  0.92535  1.0000
  H   H1396     1.0  0.92369  0.40821  0.90541  1.0000
  C   C794      1.0  0.94280  0.35954  0.92953  1.0000
  C   C795      1.0  0.56196  0.30017  0.70320  1.0000
  H   H1397     1.0  0.58734  0.18483  0.72655  1.0000
  H   H1398     1.0  0.76200  0.16102  0.92642  1.0000
  C   C796      1.0  0.98634  0.23938  0.97258  1.0000
  C   C797      1.0  0.50129  0.26810  0.84086  1.0000
  C   C798      1.0  0.51289  0.42155  0.78788  1.0000
  H   H1399     1.0  0.91795  0.35726  0.92182  1.0000
  H   H1400     1.0  0.60608  0.46066  0.96565  1.0000
  C   C799      1.0  0.53865  0.34491  0.88259  1.0000
  H   H1401     1.0  0.87790  0.47689  0.67498  1.0000
  H   H1402     1.0  0.57208  0.45939  0.78328  1.0000
  H   H1403     1.0  0.61754  0.20876  0.73990  1.0000
  H   H1404     1.0  0.81284  0.08322  0.96865  1.0000
  C   C800      1.0  0.95438  0.11109  0.75130  1.0000
  H   H1405     1.0  0.71383  0.10399  0.93716  1.0000
  H   H1406     1.0  0.53392  0.46712  0.96680  1.0000
  H   H1407     1.0  0.95648  0.21357  0.75878  1.0000
  H   H1408     1.0  0.93825  0.09175  0.75681  1.0000
  N   N44       1.0  0.96590  0.38352  0.91936  1.0000
  H   H1409     1.0  0.72932  0.16147  0.94469  1.0000
  H   H1410     1.0  0.92181  0.47863  0.91578  1.0000
  H   H1411     1.0  0.61381  0.22686  0.70629  1.0000
  S   S190      1.0  0.90846  0.18945  0.66547  1.0000
  H   H1412     1.0  0.55053  0.35285  0.70236  1.0000
  C   C801      1.0  0.78016  0.18182  0.96883  1.0000
  H   H1413     1.0  0.96172  0.43211  0.90697  1.0000
  H   H1414     1.0  0.90694  0.19850  0.94006  1.0000
  C   C802      1.0  0.96473  0.04026  0.72380  1.0000
  H   H1415     1.0  0.51201  0.41618  0.77248  1.0000
  H   H1416     1.0  0.88509  0.45173  0.91779  1.0000
  C   C803      1.0  0.93596  0.30419  0.94575  1.0000
  H   H1417     1.0  0.90867  0.30353  0.94122  1.0000
  C   C804      1.0  0.96189  0.21638  0.97901  1.0000
  H   H1418     1.0  0.66887  0.10665  0.97100  1.0000
  H   H1419     1.0  0.51241  0.99538  0.90332  1.0000
  C   C805      1.0  0.64202  0.26697  0.66278  1.0000
  C   C806      1.0  0.70820  0.07091  0.97698  1.0000
  H   H1420     1.0  0.50458  0.42876  0.98900  1.0000
  H   H1421     1.0  0.76039  0.17221  0.97885  1.0000
  H   H1422     1.0  0.95342  0.35803  0.89330  1.0000
  C   C807      1.0  0.94563  0.41425  0.91492  1.0000
  Fe  Fe95      1.0  0.86267  0.15648  0.66312  1.0000
  H   H1423     1.0  0.51066  0.38942  0.88948  1.0000
  C   C808      1.0  0.51625  0.36517  0.89601  1.0000
  C   C809      1.0  0.57630  0.43255  0.78215  1.0000
  H   H1424     1.0  0.55633  0.38763  0.79310  1.0000
  H   H1425     1.0  0.51931  0.31004  0.67110  1.0000
  H   H1426     1.0  0.57429  0.42511  0.76706  1.0000
  H   H1427     1.0  0.96240  0.01461  0.71881  1.0000
  N   N45       1.0  0.57011  0.28913  0.87946  1.0000
  C   C810      1.0  0.54835  0.31140  0.89162  1.0000
  C   C811      1.0  0.57407  0.25658  0.88944  1.0000
  C   C812      1.0  0.60442  0.30536  0.87631  1.0000
  C   C813      1.0  0.55366  0.28332  0.86038  1.0000
  C   C814      1.0  0.85861  0.08834  0.98504  1.0000
  C   C815      1.0  0.62227  0.45745  0.97847  1.0000
  C   C816      1.0  0.63277  0.28374  0.86724  1.0000
  C   C817      1.0  0.59293  0.25732  0.90880  1.0000
  C   C818      1.0  0.59926  0.22267  0.91634  1.0000
  H   H1428     1.0  0.91623  0.41824  0.94179  1.0000
  H   H1429     1.0  0.61032  0.43869  0.98780  1.0000
  C   C819      1.0  0.66552  0.30343  0.86384  1.0000
  H   H1430     1.0  0.56208  0.31720  0.90501  1.0000
  C   C820      1.0  0.73791  0.06445  0.98778  1.0000
  H   H1431     1.0  0.54847  0.24572  0.89239  1.0000
  H   H1432     1.0  0.58712  0.23849  0.88006  1.0000
  H   H1433     1.0  0.61470  0.31541  0.88980  1.0000
  H   H1434     1.0  0.60141  0.32705  0.86683  1.0000
  H   H1435     1.0  0.55458  0.30586  0.85147  1.0000
  H   H1436     1.0  0.56859  0.26476  0.85223  1.0000
  H   H1437     1.0  0.56107  0.00446  0.83399  1.0000
  H   H1438     1.0  0.57061  0.45982  0.87904  1.0000
  H   H1439     1.0  0.56203  0.35942  0.87955  1.0000
  H   H1440     1.0  0.59707  0.02763  0.82524  1.0000
  H   H1441     1.0  0.62412  0.27419  0.85341  1.0000
  H   H1442     1.0  0.63959  0.26268  0.87650  1.0000
  H   H1443     1.0  0.61819  0.26957  0.90776  1.0000
  H   H1444     1.0  0.57711  0.27045  0.91949  1.0000
  H   H1445     1.0  0.61095  0.22377  0.93067  1.0000
  H   H1446     1.0  0.57483  0.20881  0.91736  1.0000
  H   H1447     1.0  0.61724  0.20925  0.90688  1.0000
  H   H1448     1.0  0.70918  0.13106  0.91712  1.0000
  H   H1449     1.0  0.59903  0.25143  0.67950  1.0000
  H   H1450     1.0  0.93761  0.31458  0.96026  1.0000
  H   H1451     1.0  0.60270  0.42679  0.78717  1.0000
  C   C821      1.0  0.72747  0.20720  0.79318  1.0000
  H   H1452     1.0  0.81665  0.22242  0.96895  1.0000
  H   H1453     1.0  0.66026  0.32464  0.85431  1.0000
  H   H1454     1.0  0.67596  0.31252  0.87747  1.0000
  H   H1455     1.0  0.68521  0.28760  0.85700  1.0000
  N   N46       1.0  0.80198  0.17358  0.76102  1.0000
  C   C822      1.0  0.82654  0.19359  0.74913  1.0000
  C   C823      1.0  0.78149  0.15167  0.74813  1.0000
  C   C824      1.0  0.77699  0.19719  0.77026  1.0000
  C   C825      1.0  0.81992  0.15386  0.77632  1.0000
  C   C826      1.0  0.85681  0.14114  0.77182  1.0000
  C   C827      1.0  0.84466  0.22192  0.75972  1.0000
  C   C828      1.0  0.74634  0.18172  0.78114  1.0000
  C   C829      1.0  0.80175  0.12521  0.73707  1.0000
  C   C830      1.0  0.77943  0.10965  0.72178  1.0000
  C   C831      1.0  0.86960  0.11762  0.78721  1.0000
  C   C832      1.0  0.87615  0.23403  0.74888  1.0000
  C   C833      1.0  0.94045  0.13406  0.73837  1.0000
  H   H1456     1.0  0.81282  0.20478  0.73684  1.0000
  H   H1457     1.0  0.84661  0.17804  0.74249  1.0000
  H   H1458     1.0  0.76198  0.13768  0.75629  1.0000
  H   H1459     1.0  0.76676  0.16689  0.73777  1.0000
  H   H1460     1.0  0.76587  0.21411  0.75945  1.0000
  H   H1461     1.0  0.79054  0.21310  0.78056  1.0000
  H   H1462     1.0  0.82233  0.16848  0.78956  1.0000
  H   H1463     1.0  0.80393  0.13240  0.78042  1.0000
  H   H1464     1.0  0.87522  0.16177  0.77112  1.0000
  H   H1465     1.0  0.85825  0.12816  0.75812  1.0000
  H   H1466     1.0  0.82666  0.24300  0.76122  1.0000
  H   H1467     1.0  0.85293  0.21425  0.77411  1.0000
  H   H1468     1.0  0.75508  0.16163  0.79064  1.0000
  H   H1469     1.0  0.72727  0.17186  0.77098  1.0000
  H   H1470     1.0  0.82462  0.13527  0.72990  1.0000
  H   H1471     1.0  0.81000  0.10539  0.74691  1.0000
  H   H1472     1.0  0.79435  0.09035  0.71430  1.0000
  H   H1473     1.0  0.75622  0.09830  0.72817  1.0000
  H   H1474     1.0  0.77138  0.12835  0.71115  1.0000
  H   H1475     1.0  0.86954  0.12978  0.80127  1.0000
  H   H1476     1.0  0.85318  0.09547  0.78785  1.0000
  H   H1477     1.0  0.89633  0.10976  0.78392  1.0000
  H   H1478     1.0  0.86856  0.24342  0.73469  1.0000
  H   H1479     1.0  0.88850  0.25422  0.75680  1.0000
  H   H1480     1.0  0.89518  0.21391  0.74711  1.0000
  H   H1481     1.0  0.51472  0.24618  0.86743  1.0000
  H   H1482     1.0  0.71781  0.22760  0.78413  1.0000
  H   H1483     1.0  0.70510  0.19569  0.80034  1.0000
  H   H1484     1.0  0.75103  0.04120  0.98617  1.0000
  H   H1485     1.0  0.95731  0.31141  0.91806  1.0000
  H   H1486     1.0  0.57180  0.21565  0.74269  1.0000
  S   S191      1.0  0.60543  0.00451  0.94051  1.0000
  C   C834      1.0  0.59328  0.23469  0.71626  1.0000
  H   H1487     1.0  0.57279  0.33822  0.68163  1.0000
  H   H1488     1.0  0.74554  0.10361  0.91836  1.0000
  S   S192      1.0  0.64132  0.48141  0.88665  1.0000
  H   H1489     1.0  0.94597  0.27868  0.94625  1.0000
  H   H1490     1.0  0.51659  0.42415  0.73344  1.0000
  H   H1491     1.0  0.61377  0.09004  0.98899  1.0000
  H   H1492     1.0  0.54397  0.29881  0.71547  1.0000
  N   N47       1.0  0.59869  0.29733  0.70995  1.0000
  C   C835      1.0  0.51039  0.47452  0.97377  1.0000
  C   C836      1.0  0.60122  0.26927  0.72390  1.0000
  C   C837      1.0  0.60719  0.32832  0.72059  1.0000
  C   C838      1.0  0.62429  0.29317  0.69395  1.0000
  C   C839      1.0  0.72815  0.11946  0.92685  1.0000
  C   C840      1.0  0.64249  0.32868  0.73081  1.0000
  H   H1493     1.0  0.74472  0.21727  0.80421  1.0000
  C   C841      1.0  0.50051  0.01508  0.97503  1.0000
  H   H1494     1.0  0.50097  0.43329  0.82203  1.0000
  C   C842      1.0  0.65299  0.36345  0.73614  1.0000
  C   C843      1.0  0.69153  0.10111  0.97928  1.0000
  H   H1495     1.0  0.62756  0.26733  0.72986  1.0000
  H   H1496     1.0  0.58383  0.27399  0.73617  1.0000
  H   H1497     1.0  0.58713  0.33354  0.73150  1.0000
  H   H1498     1.0  0.60697  0.34975  0.71078  1.0000
  H   H1499     1.0  0.63344  0.31744  0.68876  1.0000
  H   H1500     1.0  0.64787  0.28051  0.69927  1.0000
  H   H1501     1.0  0.61797  0.14866  0.98340  1.0000
  H   H1502     1.0  0.66325  0.31809  0.72190  1.0000
  H   H1503     1.0  0.64089  0.31415  0.74411  1.0000
  H   H1504     1.0  0.63229  0.04002  0.98434  1.0000
  H   H1505     1.0  0.95989  0.19303  0.97192  1.0000
  C   C844      1.0  0.61193  0.27475  0.67601  1.0000
  C   C845      1.0  0.97629  0.36824  0.90067  1.0000
  H   H1506     1.0  0.64796  0.44842  0.97395  1.0000
  H   H1507     1.0  0.76582  0.19556  0.95772  1.0000
  H   H1508     1.0  0.65818  0.37821  0.72320  1.0000
  H   H1509     1.0  0.63248  0.37561  0.74458  1.0000
  H   H1510     1.0  0.67680  0.36248  0.74481  1.0000
  N   N48       1.0  0.80005  0.15367  0.96025  1.0000
  C   C846      1.0  0.81839  0.13520  0.97588  1.0000
  H   H1511     1.0  0.81265  0.18704  0.93739  1.0000
  C   C847      1.0  0.77419  0.13063  0.95154  1.0000
  C   C848      1.0  0.82421  0.16563  0.94491  1.0000
  C   C849      1.0  0.86122  0.17504  0.95114  1.0000
  C   C850      1.0  0.77736  0.23254  0.98930  1.0000
  C   C851      1.0  0.74846  0.14592  0.93718  1.0000
  H   H1512     1.0  0.56802  0.23380  0.70908  1.0000
  H   H1513     1.0  0.83920  0.14994  0.98225  1.0000
  C   C852      1.0  0.88046  0.19278  0.93526  1.0000
  H   H1514     1.0  0.66074  0.25039  0.66992  1.0000
  C   C853      1.0  0.95749  0.32436  0.93188  1.0000
  H   H1515     1.0  0.57075  0.02466  0.99181  1.0000
  H   H1516     1.0  0.50895  0.44853  0.78916  1.0000
  H   H1517     1.0  0.51223  0.35714  0.79880  1.0000
  C   C854      1.0  0.59248  0.20954  0.73238  1.0000
  H   H1518     1.0  0.75864  0.11867  0.96284  1.0000
  H   H1519     1.0  0.78751  0.11035  0.94396  1.0000
  H   H1520     1.0  0.82761  0.14667  0.93373  1.0000
  H   H1521     1.0  0.94267  0.05467  0.71818  1.0000
  H   H1522     1.0  0.87626  0.15272  0.95478  1.0000
  H   H1523     1.0  0.86150  0.19101  0.96375  1.0000
  H   H1524     1.0  0.75991  0.24472  0.97898  1.0000
  H   H1525     1.0  0.84749  0.10315  0.95633  1.0000
  H   H1526     1.0  0.58302  0.14143  0.96700  1.0000
  H   H1527     1.0  0.97222  0.40492  0.95757  1.0000
  H   H1528     1.0  0.49154  0.35257  0.89886  1.0000
  H   H1529     1.0  0.56511  0.00312  0.79853  1.0000
  H   H1530     1.0  0.81830  0.19734  0.99015  1.0000
  H   H1531     1.0  0.49894  0.28768  0.86884  1.0000
  H   H1532     1.0  0.57305  0.07972  0.98022  1.0000
  H   H1533     1.0  0.86951  0.06455  0.98030  1.0000
  H   H1534     1.0  0.52426  0.34181  0.86917  1.0000
  H   H1535     1.0  0.88006  0.10575  0.98721  1.0000
  H   H1536     1.0  0.59336  0.29012  0.66795  1.0000
  C   C855      1.0  0.49357  0.45272  0.98636  1.0000
  H   H1537     1.0  0.52443  0.29887  0.89626  1.0000
  H   H1538     1.0  0.57970  0.17368  0.98425  1.0000
  H   H1539     1.0  0.80060  0.13067  0.98793  1.0000
  H   H1540     1.0  0.52980  0.36941  0.90963  1.0000
  C   C856      1.0  0.58958  0.14850  0.98175  1.0000
  C   C857      1.0  0.62612  0.48985  0.98906  1.0000
  H   H1541     1.0  0.84914  0.34600  0.66134  1.0000
  Fe  Fe96      1.0  0.87144  0.23136  0.66133  1.0000
  H   H1542     1.0  0.51703  0.25098  0.83219  1.0000
  H   H1543     1.0  0.97534  0.40717  0.87908  1.0000
  C   C858      1.0  0.70445  0.12441  0.99216  1.0000
  H   H1544     1.0  0.48940  0.36444  0.77777  1.0000
  H   H1545     1.0  0.98274  0.18153  0.81843  1.0000
  C   C859      1.0  0.96749  0.22576  0.77141  1.0000
  H   H1546     1.0  0.94766  0.22597  0.78276  1.0000
  H   H1547     1.0  0.97350  0.13197  0.83702  1.0000
  H   H1548     1.0  0.97401  0.25132  0.76740  1.0000
  C   C860      1.0  0.49220  0.99204  0.91431  1.0000
  C   C861      1.0  0.58626  0.08921  0.99305  1.0000
  C   C862      1.0  0.60018  0.59832  0.99839  1.0000
  S   S193      1.0  0.64732  0.54732  0.31078  1.0000
  Fe  Fe97      1.0  0.56938  0.55457  0.27573  1.0000
  S   S194      1.0  0.61176  0.59132  0.27730  1.0000
  S   S195      1.0  0.52729  0.55548  0.25269  1.0000
  Fe  Fe98      1.0  0.64859  0.54819  0.27864  1.0000
  S   S196      1.0  0.69854  0.54690  0.26066  1.0000
  Fe  Fe99      1.0  0.60643  0.58688  0.30917  1.0000
  S   S197      1.0  0.60635  0.51170  0.27577  1.0000
  S   S198      1.0  0.56208  0.55133  0.30752  1.0000
  Fe  Fe100     1.0  0.82319  0.92038  0.19354  1.0000
  S   S199      1.0  0.86089  0.96174  0.19193  1.0000
  S   S200      1.0  0.77311  0.92083  0.21118  1.0000
  Fe  Fe101     1.0  0.86405  0.87980  0.16339  1.0000
  S   S201      1.0  0.90343  0.91965  0.16003  1.0000
  S   S202      1.0  0.87773  0.83226  0.14780  1.0000
  Fe  Fe102     1.0  0.90217  0.92204  0.19207  1.0000
  S   S203      1.0  0.95181  0.92529  0.20981  1.0000
  Fe  Fe103     1.0  0.85882  0.95513  0.16010  1.0000
  H   H1549     1.0  0.81618  0.94057  0.10891  1.0000
  S   S204      1.0  0.86451  0.88106  0.19544  1.0000
  S   S205      1.0  0.81944  0.91486  0.16178  1.0000
  Fe  Fe104     1.0  0.82230  0.68081  0.01918  1.0000
  S   S206      1.0  0.86825  0.64762  0.02281  1.0000
  S   S207      1.0  0.89330  0.52080  0.14465  1.0000
  Fe  Fe105     1.0  0.84212  0.72114  0.05499  1.0000
  S   S208      1.0  0.88893  0.69013  0.06075  1.0000
  S   S209      1.0  0.81987  0.76204  0.07366  1.0000
  Fe  Fe106     1.0  0.89832  0.69385  0.02893  1.0000
  S   S210      1.0  0.95299  0.70081  0.01668  1.0000
  Fe  Fe107     1.0  0.85519  0.64681  0.05414  1.0000
  S   S211      1.0  0.84260  0.59983  0.07100  1.0000
  S   S212      1.0  0.85309  0.72716  0.02367  1.0000
  S   S213      1.0  0.80774  0.67791  0.04997  1.0000
  C   C863      1.0  0.97280  0.89512  0.22426  1.0000
  H   H1550     1.0  0.84581  0.50018  0.03888  1.0000
  C   C864      1.0  0.95976  0.86351  0.22680  1.0000
  H   H1551     1.0  0.62595  0.97215  0.00302  1.0000
  H   H1552     1.0  0.93641  0.85656  0.21959  1.0000
  C   C865      1.0  0.86160  0.81411  0.12678  1.0000
  C   C866      1.0  0.82856  0.82076  0.12001  1.0000
  C   C867      1.0  0.81630  0.80457  0.10374  1.0000
  C   C868      1.0  0.83695  0.78181  0.09395  1.0000
  C   C869      1.0  0.87021  0.77556  0.10055  1.0000
  C   C870      1.0  0.88230  0.79138  0.11698  1.0000
  H   H1553     1.0  0.81218  0.83783  0.12752  1.0000
  H   H1554     1.0  0.79050  0.80954  0.09877  1.0000
  H   H1555     1.0  0.88652  0.75844  0.09304  1.0000
  H   H1556     1.0  0.90790  0.78602  0.12211  1.0000
  C   C871      1.0  0.87839  0.54276  0.12433  1.0000
  C   C872      1.0  0.90003  0.56620  0.11585  1.0000
  C   C873      1.0  0.88958  0.58404  0.09962  1.0000
  C   C874      1.0  0.85704  0.57906  0.09182  1.0000
  C   C875      1.0  0.83528  0.55585  0.10041  1.0000
  C   C876      1.0  0.84589  0.53768  0.11648  1.0000
  H   H1557     1.0  0.92529  0.57027  0.12173  1.0000
  H   H1558     1.0  0.90695  0.60120  0.09297  1.0000
  H   H1559     1.0  0.81007  0.55170  0.09448  1.0000
  S   S214      1.0  0.57419  0.97019  0.32601  1.0000
  H   H1560     1.0  0.79754  0.75278  0.15929  1.0000
  C   C877      1.0  0.55312  0.54530  0.00861  1.0000
  H   H1561     1.0  0.72592  0.91769  0.28722  1.0000
  H   H1562     1.0  0.62710  0.49993  0.23838  1.0000
  H   H1563     1.0  0.50312  0.55457  0.03754  1.0000
  H   H1564     1.0  0.69844  0.50756  0.17403  1.0000
  H   H1565     1.0  0.63769  0.90637  0.26530  1.0000
  H   H1566     1.0  0.81920  0.84880  0.25517  1.0000
  H   H1567     1.0  0.66406  0.60733  0.24885  1.0000
  C   C878      1.0  0.72014  0.94775  0.23236  1.0000
  C   C879      1.0  0.74933  0.52659  0.23559  1.0000
  H   H1568     1.0  0.67232  0.86213  0.28543  1.0000
  H   H1569     1.0  0.60710  0.50929  0.02934  1.0000
  H   H1570     1.0  0.58691  0.93864  0.25571  1.0000
  H   H1571     1.0  0.66808  0.64079  0.23244  1.0000
  C   C880      1.0  0.77418  0.97612  0.23454  1.0000
  C   C881      1.0  0.71845  0.51802  0.24484  1.0000
  H   H1572     1.0  0.93576  0.89573  0.26490  1.0000
  H   H1573     1.0  0.64043  0.50593  0.19170  1.0000
  C   C882      1.0  0.75481  0.95070  0.22679  1.0000
  H   H1574     1.0  0.52605  0.49843  0.01165  1.0000
  H   H1575     1.0  0.96648  0.81647  0.24051  1.0000
  C   C883      1.0  0.49841  0.53454  0.02729  1.0000
  H   H1576     1.0  0.96809  0.87932  0.11361  1.0000
  C   C884      1.0  0.56257  0.58089  0.20119  1.0000
  H   H1577     1.0  0.76049  0.55032  0.23826  1.0000
  H   H1578     1.0  0.89675  0.91921  0.28937  1.0000
  C   C885      1.0  0.64954  0.59592  0.21982  1.0000
  C   C886      1.0  0.82368  0.59280  0.15887  1.0000
  H   H1579     1.0  0.53575  0.58274  0.17406  1.0000
  H   H1580     1.0  0.78318  0.93877  0.30821  1.0000
  H   H1581     1.0  0.92729  0.76104  0.99793  1.0000
  Fe  Fe108     1.0  0.60311  0.51201  0.30769  1.0000
  H   H1582     1.0  0.65054  0.54840  0.16964  1.0000
  H   H1583     1.0  0.80064  0.97910  0.23025  1.0000
  H   H1584     1.0  0.80288  0.85928  0.23201  1.0000
  H   H1585     1.0  0.71222  0.86420  0.25771  1.0000
  C   C887      1.0  0.83317  0.89747  0.24500  1.0000
  C   C888      1.0  0.65398  0.88238  0.32393  1.0000
  C   C889      1.0  0.86488  0.96342  0.08254  1.0000
  H   H1586     1.0  0.78997  0.51175  0.21624  1.0000
  H   H1587     1.0  0.94706  0.93606  0.25680  1.0000
  H   H1588     1.0  0.65302  0.61451  0.99468  1.0000
  C   C890      1.0  0.88336  0.95521  0.24551  1.0000
  H   H1589     1.0  0.74555  0.89452  0.25719  1.0000
  H   H1590     1.0  0.97061  0.94899  0.28871  1.0000
  H   H1591     1.0  0.64157  0.55118  0.23502  1.0000
  C   C891      1.0  0.76985  0.91255  0.10725  1.0000
  H   H1592     1.0  0.77675  0.63405  0.08141  1.0000
  H   H1593     1.0  0.55137  0.56891  0.01636  1.0000
  H   H1594     1.0  0.74618  0.86324  0.27529  1.0000
  H   H1595     1.0  0.70403  0.86839  0.30292  1.0000
  H   H1596     1.0  0.76278  0.66412  0.12052  1.0000
  H   H1597     1.0  0.84145  0.53212  0.05643  1.0000
  C   C892      1.0  0.70778  0.90176  0.27950  1.0000
  H   H1598     1.0  0.65169  0.57007  0.02086  1.0000
  H   H1599     1.0  0.56035  0.61914  0.17950  1.0000
  H   H1600     1.0  0.54433  0.56263  0.20700  1.0000
  C   C893      1.0  0.84375  0.95281  0.27243  1.0000
  C   C894      1.0  0.64843  0.54330  0.02280  1.0000
  H   H1601     1.0  0.85147  0.97694  0.27826  1.0000
  H   H1602     1.0  0.84764  0.84891  0.23477  1.0000
  H   H1603     1.0  0.81712  0.90243  0.12152  1.0000
  C   C895      1.0  0.80899  0.91446  0.10811  1.0000
  H   H1604     1.0  0.67045  0.57477  0.18646  1.0000
  H   H1605     1.0  0.95907  0.90833  0.29690  1.0000
  H   H1606     1.0  0.69202  0.91773  0.27031  1.0000
  H   H1607     1.0  0.49642  0.67146  0.23922  1.0000
  H   H1608     1.0  0.66507  0.50693  0.04362  1.0000
  H   H1609     1.0  0.86045  0.95835  0.23626  1.0000
  C   C896      1.0  0.58705  0.92544  0.26953  1.0000
  H   H1610     1.0  0.64958  0.94880  0.31673  1.0000
  H   H1611     1.0  0.87725  0.53239  0.04026  1.0000
  C   C897      1.0  0.70506  0.96972  0.24548  1.0000
  C   C898      1.0  0.82650  0.93393  0.28901  1.0000
  C   C899      1.0  0.90342  0.93504  0.27703  1.0000
  H   H1612     1.0  0.96669  0.74013  0.29424  1.0000
  H   H1613     1.0  0.83725  0.90932  0.23103  1.0000
  H   H1614     1.0  0.57440  0.90136  0.26762  1.0000
  C   C900      1.0  0.68544  0.88168  0.29362  1.0000
  C   C901      1.0  0.62513  0.90245  0.29551  1.0000
  H   H1615     1.0  0.88717  0.89068  0.24909  1.0000
  C   C902      1.0  0.70223  0.93687  0.32373  1.0000
  C   C903      1.0  0.66608  0.53385  0.04138  1.0000
  C   C904      1.0  0.95448  0.75867  0.99498  1.0000
  H   H1616     1.0  0.85035  0.59093  0.16439  1.0000
  H   H1617     1.0  0.84470  0.93058  0.30095  1.0000
  C   C905      1.0  0.63752  0.84793  0.32258  1.0000
  H   H1618     1.0  0.57207  0.94018  0.27991  1.0000
  H   H1619     1.0  0.61114  0.58357  0.18670  1.0000
  H   H1620     1.0  0.80567  0.58536  0.17033  1.0000
  N   N49       1.0  0.61647  0.54492  0.20791  1.0000
  H   H1621     1.0  0.87242  0.92658  0.11492  1.0000
  C   C906      1.0  0.70126  0.53359  0.17828  1.0000
  H   H1622     1.0  0.77113  0.61108  0.00614  1.0000
  H   H1623     1.0  0.65361  0.54643  0.05354  1.0000
  C   C907      1.0  0.76620  0.50469  0.22305  1.0000
  C   C908      1.0  0.50361  0.58817  0.24170  1.0000
  H   H1624     1.0  0.58813  0.54766  0.18168  1.0000
  H   H1625     1.0  0.81739  0.90950  0.28451  1.0000
  C   C909      1.0  0.79526  0.95276  0.29646  1.0000
  H   H1626     1.0  0.75830  0.67417  0.08574  1.0000
  H   H1627     1.0  0.56869  0.59875  0.21249  1.0000
  H   H1628     1.0  0.60250  0.60012  0.01403  1.0000
  H   H1629     1.0  0.72271  0.91926  0.31966  1.0000
  H   H1630     1.0  0.61531  0.87759  0.29230  1.0000
  H   H1631     1.0  0.90427  0.98822  0.06581  1.0000
  C   C910      1.0  0.71746  0.97125  0.32401  1.0000
  H   H1632     1.0  0.60575  0.91395  0.30514  1.0000
  H   H1633     1.0  0.82073  0.57550  0.14690  1.0000
  H   H1634     1.0  0.63566  0.94549  0.27716  1.0000
  H   H1635     1.0  0.57426  0.60757  0.99439  1.0000
  N   N50       1.0  0.86442  0.90045  0.08846  1.0000
  C   C911      1.0  0.88195  0.90448  0.10741  1.0000
  C   C912      1.0  0.82597  0.89655  0.09109  1.0000
  C   C913      1.0  0.87835  0.86932  0.07973  1.0000
  C   C914      1.0  0.87188  0.92847  0.07504  1.0000
  C   C915      1.0  0.93981  0.87627  0.11450  1.0000
  C   C916      1.0  0.92187  0.90721  0.10708  1.0000
  C   C917      1.0  0.86065  0.85780  0.06119  1.0000
  H   H1636     1.0  0.66253  0.53121  0.01110  1.0000
  C   C918      1.0  0.54374  0.59963  0.18552  1.0000
  H   H1637     1.0  0.72483  0.97933  0.30949  1.0000
  H   H1638     1.0  0.73593  0.63780  0.09324  1.0000
  C   C919      1.0  0.87908  0.82793  0.05290  1.0000
  H   H1639     1.0  0.87451  0.88403  0.11708  1.0000
  C   C920      1.0  0.88135  0.49594  0.06269  1.0000
  H   H1640     1.0  0.81198  0.90370  0.07793  1.0000
  H   H1641     1.0  0.81938  0.87037  0.09338  1.0000
  H   H1642     1.0  0.87639  0.84870  0.09009  1.0000
  H   H1643     1.0  0.90619  0.87174  0.07645  1.0000
  H   H1644     1.0  0.89887  0.92744  0.06989  1.0000
  H   H1645     1.0  0.85619  0.92623  0.06196  1.0000
  H   H1646     1.0  0.90199  0.94125  0.23670  1.0000
  H   H1647     1.0  0.54702  0.51148  0.03302  1.0000
  H   H1648     1.0  0.93241  0.91321  0.09293  1.0000
  H   H1649     1.0  0.92958  0.92777  0.11643  1.0000
  H   H1650     1.0  0.86089  0.87717  0.05015  1.0000
  H   H1651     1.0  0.83357  0.85074  0.06393  1.0000
  C   C921      1.0  0.76167  0.64905  0.09160  1.0000
  C   C922      1.0  0.66623  0.54887  0.18279  1.0000
  H   H1652     1.0  0.62600  0.62880  0.24047  1.0000
  H   H1653     1.0  0.69348  0.54132  0.04081  1.0000
  H   H1654     1.0  0.67612  0.58750  0.21665  1.0000
  H   H1655     1.0  0.81001  0.90856  0.25156  1.0000
  H   H1656     1.0  0.67836  0.96718  0.24944  1.0000
  H   H1657     1.0  0.82885  0.51992  0.12288  1.0000
  H   H1658     1.0  0.57972  0.50585  0.20347  1.0000
  H   H1659     1.0  0.83703  0.96714  0.08501  1.0000
  H   H1660     1.0  0.60382  0.57426  0.23260  1.0000
  H   H1661     1.0  0.88030  0.80768  0.06342  1.0000
  H   H1662     1.0  0.86486  0.81900  0.04031  1.0000
  H   H1663     1.0  0.90560  0.83431  0.04843  1.0000
  H   H1664     1.0  0.76006  0.92526  0.09438  1.0000
  N   N51       1.0  0.83443  0.67198  0.12741  1.0000
  C   C923      1.0  0.81459  0.69500  0.14016  1.0000
  C   C924      1.0  0.84232  0.64018  0.13773  1.0000
  C   C925      1.0  0.86807  0.68840  0.12254  1.0000
  C   C926      1.0  0.81572  0.66558  0.10907  1.0000
  C   C927      1.0  0.77967  0.65012  0.11081  1.0000
  C   C928      1.0  0.80671  0.72952  0.13193  1.0000
  C   C929      1.0  0.89533  0.66687  0.11229  1.0000
  C   C930      1.0  0.81548  0.62775  0.15240  1.0000
  C   C931      1.0  0.59367  0.51780  0.21534  1.0000
  C   C932      1.0  0.78428  0.74947  0.14550  1.0000
  C   C933      1.0  0.92815  0.68621  0.10846  1.0000
  H   H1665     1.0  0.82906  0.69860  0.15362  1.0000
  H   H1666     1.0  0.78965  0.68442  0.14453  1.0000
  H   H1667     1.0  0.84732  0.62019  0.12734  1.0000
  H   H1668     1.0  0.86647  0.64244  0.14609  1.0000
  H   H1669     1.0  0.88031  0.69816  0.13563  1.0000
  H   H1670     1.0  0.86355  0.70987  0.11308  1.0000
  H   H1671     1.0  0.81369  0.68835  0.10038  1.0000
  H   H1672     1.0  0.83080  0.64851  0.10006  1.0000
  H   H1673     1.0  0.86314  0.88544  0.27017  1.0000
  H   H1674     1.0  0.71838  0.53474  0.19086  1.0000
  H   H1675     1.0  0.83078  0.74344  0.12988  1.0000
  H   H1676     1.0  0.79297  0.72805  0.11820  1.0000
  H   H1677     1.0  0.88557  0.65821  0.09847  1.0000
  H   H1678     1.0  0.90269  0.64517  0.12090  1.0000
  H   H1679     1.0  0.81589  0.64360  0.16517  1.0000
  H   H1680     1.0  0.78901  0.62800  0.14675  1.0000
  C   C934      1.0  0.93811  0.92171  0.26922  1.0000
  C   C935      1.0  0.97693  0.84078  0.23871  1.0000
  N   N52       1.0  0.59025  0.53657  0.00465  1.0000
  H   H1681     1.0  0.75922  0.73724  0.14788  1.0000
  C   C936      1.0  0.60958  0.53437  0.02322  1.0000
  H   H1682     1.0  0.77929  0.77408  0.13928  1.0000
  H   H1683     1.0  0.94692  0.67050  0.10078  1.0000
  H   H1684     1.0  0.92261  0.70806  0.09952  1.0000
  H   H1685     1.0  0.93995  0.69421  0.12198  1.0000
  N   N53       1.0  0.65948  0.90046  0.30539  1.0000
  C   C937      1.0  0.67104  0.93475  0.31010  1.0000
  C   C938      1.0  0.97281  0.73201  0.00249  1.0000
  H   H1686     1.0  0.65033  0.83284  0.31156  1.0000
  N   N54       1.0  0.87404  0.93611  0.26312  1.0000
  H   H1687     1.0  0.52032  0.61140  0.19152  1.0000
  H   H1688     1.0  0.78211  0.62443  0.11585  1.0000
  C   C939      1.0  0.86007  0.51631  0.04873  1.0000
  H   H1689     1.0  0.75866  0.92469  0.11994  1.0000
  H   H1690     1.0  0.63942  0.61024  0.20770  1.0000
  H   H1691     1.0  0.80295  0.97713  0.30191  1.0000
  H   H1692     1.0  0.76137  0.88661  0.10716  1.0000
  H   H1693     1.0  0.67730  0.94897  0.29712  1.0000
  C   C940      1.0  0.86563  0.90149  0.25745  1.0000
  C   C941      1.0  0.51027  0.62120  0.24536  1.0000
  H   H1694     1.0  0.93292  0.87194  0.12960  1.0000
  C   C942      1.0  0.62684  0.56589  0.22452  1.0000
  C   C943      1.0  0.64766  0.52933  0.19869  1.0000
  C   C944      1.0  0.82539  0.86134  0.24159  1.0000
  H   H1695     1.0  0.57348  0.52795  0.22488  1.0000
  C   C945      1.0  0.72919  0.87941  0.26671  1.0000
  C   C946      1.0  0.59573  0.56409  0.19352  1.0000
  H   H1696     1.0  0.70479  0.92831  0.22644  1.0000
  C   C947      1.0  0.65191  0.61955  0.23647  1.0000
  H   H1697     1.0  0.77593  0.95631  0.28503  1.0000
  C   C948      1.0  0.62407  0.92087  0.27629  1.0000
  H   H1698     1.0  0.71365  0.54717  0.16645  1.0000
  H   H1699     1.0  0.60976  0.85015  0.31912  1.0000
  H   H1700     1.0  0.53896  0.54933  0.99505  1.0000
  H   H1701     1.0  0.93257  0.85441  0.10616  1.0000
  H   H1702     1.0  0.59778  0.55085  0.03401  1.0000
  H   H1703     1.0  0.66694  0.52254  0.20975  1.0000
  H   H1704     1.0  0.62138  0.64677  0.99351  1.0000
  H   H1705     1.0  0.51549  0.94008  0.99503  1.0000
  H   H1706     1.0  0.53029  0.62761  0.25527  1.0000
  H   H1707     1.0  0.82360  0.95875  0.26178  1.0000
  C   C949      1.0  0.75496  0.61658  0.99407  1.0000
  S   S215      1.0  0.59621  0.63426  0.32600  1.0000
  H   H1708     1.0  0.87919  0.96832  0.09580  1.0000
  H   H1709     1.0  0.90794  0.95972  0.28315  1.0000
  H   H1710     1.0  0.84626  0.49428  0.08636  1.0000
  C   C950      1.0  0.96619  0.92328  0.28431  1.0000
  C   C951      1.0  0.53242  0.52000  0.02043  1.0000
  H   H1711     1.0  0.89745  0.51329  0.07087  1.0000
  C   C952      1.0  0.49092  0.64608  0.23621  1.0000
  C   C953      1.0  0.87600  0.98912  0.06797  1.0000
  H   H1712     1.0  0.86286  0.98525  0.05419  1.0000
  C   C954      1.0  0.89814  0.98996  0.24878  1.0000
  H   H1713     1.0  0.92275  0.98878  0.25665  1.0000
  C   C955      1.0  0.59056  0.50409  0.99449  1.0000
  S   S216      1.0  0.78395  0.67927  0.99421  1.0000
  H   H1714     1.0  0.86565  0.69232  0.60258  1.0000
  H   H1715     1.0  0.51618  0.80207  0.50238  1.0000
  Fe  Fe109     1.0  0.57253  0.79598  0.43897  1.0000
  S   S217      1.0  0.61576  0.76133  0.44537  1.0000
  S   S218      1.0  0.51765  0.78886  0.45080  1.0000
  Fe  Fe110     1.0  0.61819  0.83806  0.41219  1.0000
  S   S219      1.0  0.66362  0.80430  0.41692  1.0000
  S   S220      1.0  0.63269  0.88497  0.39558  1.0000
  Fe  Fe111     1.0  0.62637  0.76251  0.41389  1.0000
  S   S221      1.0  0.64107  0.71305  0.40046  1.0000
  Fe  Fe112     1.0  0.64940  0.80597  0.44782  1.0000
  S   S222      1.0  0.69144  0.80667  0.47070  1.0000
  S   S223      1.0  0.58175  0.79587  0.40712  1.0000
  S   S224      1.0  0.60532  0.84109  0.44352  1.0000
  H   H1716     1.0  0.71134  0.79185  0.61645  1.0000
  S   S225      1.0  0.89069  0.73655  0.63056  1.0000
  Fe  Fe113     1.0  0.81097  0.93023  0.53244  1.0000
  S   S226      1.0  0.85356  0.89389  0.53783  1.0000
  S   S227      1.0  0.76590  0.92643  0.51158  1.0000
  C   C956      1.0  0.75607  0.55785  0.37100  1.0000
  S   S228      1.0  0.88384  0.94615  0.56945  1.0000
  C   C957      1.0  0.48955  0.72755  0.55217  1.0000
  Fe  Fe114     1.0  0.88857  0.93819  0.53777  1.0000
  S   S229      1.0  0.94173  0.93900  0.52372  1.0000
  Fe  Fe115     1.0  0.84533  0.90482  0.56895  1.0000
  S   S230      1.0  0.83121  0.86869  0.59288  1.0000
  S   S231      1.0  0.84653  0.97357  0.53035  1.0000
  S   S232      1.0  0.80102  0.93953  0.56336  1.0000
  C   C958      1.0  0.95829  0.96716  0.50659  1.0000
  H   H1717     1.0  0.90154  0.60621  0.57349  1.0000
  C   C959      1.0  0.80760  0.81356  0.44957  1.0000
  C   C960      1.0  0.54720  0.67042  0.43859  1.0000
  H   H1718     1.0  0.88730  0.50823  0.65751  1.0000
  C   C961      1.0  0.87380  0.77355  0.62053  1.0000
  C   C962      1.0  0.89109  0.78810  0.60508  1.0000
  C   C963      1.0  0.87871  0.81721  0.59650  1.0000
  C   C964      1.0  0.84873  0.83225  0.60327  1.0000
  C   C965      1.0  0.83145  0.81770  0.61872  1.0000
  C   C966      1.0  0.84380  0.78856  0.62728  1.0000
  H   H1719     1.0  0.91451  0.77702  0.59983  1.0000
  H   H1720     1.0  0.89250  0.82811  0.58476  1.0000
  H   H1721     1.0  0.80849  0.82924  0.62427  1.0000
  H   H1722     1.0  0.83023  0.77788  0.63917  1.0000
  C   C967      1.0  0.86261  0.56179  0.62488  1.0000
  C   C968      1.0  0.82985  0.56898  0.61786  1.0000
  C   C969      1.0  0.81753  0.55275  0.60161  1.0000
  C   C970      1.0  0.83775  0.52925  0.59211  1.0000
  C   C971      1.0  0.87072  0.52239  0.59898  1.0000
  C   C972      1.0  0.88291  0.53839  0.61534  1.0000
  H   H1723     1.0  0.81366  0.58642  0.62520  1.0000
  H   H1724     1.0  0.79197  0.55824  0.59645  1.0000
  H   H1725     1.0  0.88678  0.50479  0.59170  1.0000
  H   H1726     1.0  0.90829  0.53262  0.62066  1.0000
  H   H1727     1.0  0.92031  0.49700  0.49266  1.0000
  H   H1728     1.0  0.82501  0.58123  0.56274  1.0000
  C   C973      1.0  0.87842  0.62028  0.57802  1.0000
  H   H1729     1.0  0.70294  0.92305  0.42300  1.0000
  H   H1730     1.0  0.52311  0.75911  0.38670  1.0000
  C   C974      1.0  0.71102  0.84030  0.48233  1.0000
  C   C975      1.0  0.69806  0.87224  0.48099  1.0000
  C   C976      1.0  0.71502  0.89820  0.49017  1.0000
  C   C977      1.0  0.74498  0.89260  0.50088  1.0000
  C   C978      1.0  0.75790  0.86070  0.50222  1.0000
  C   C979      1.0  0.74088  0.83469  0.49312  1.0000
  H   H1731     1.0  0.67501  0.87695  0.47284  1.0000
  H   H1732     1.0  0.70487  0.92283  0.48893  1.0000
  H   H1733     1.0  0.78138  0.85621  0.50994  1.0000
  H   H1734     1.0  0.75120  0.81010  0.49419  1.0000
  C   C980      1.0  0.60950  0.65570  0.34673  1.0000
  C   C981      1.0  0.63443  0.64337  0.35916  1.0000
  C   C982      1.0  0.64356  0.66121  0.37552  1.0000
  C   C983      1.0  0.62807  0.69165  0.37967  1.0000
  C   C984      1.0  0.60283  0.70378  0.36738  1.0000
  C   C985      1.0  0.59367  0.68593  0.35104  1.0000
  H   H1735     1.0  0.64683  0.62024  0.35610  1.0000
  H   H1736     1.0  0.66309  0.65155  0.38492  1.0000
  H   H1737     1.0  0.59057  0.72704  0.37035  1.0000
  C   C986      1.0  0.94924  0.72047  0.56880  1.0000
  C   C987      1.0  0.59091  0.94701  0.34543  1.0000
  C   C988      1.0  0.57236  0.91980  0.35215  1.0000
  C   C989      1.0  0.58472  0.90038  0.36734  1.0000
  C   C990      1.0  0.61588  0.90799  0.37609  1.0000
  C   C991      1.0  0.63449  0.93521  0.36935  1.0000
  C   C992      1.0  0.62218  0.95454  0.35411  1.0000
  C   C993      1.0  0.60456  0.67616  0.45537  1.0000
  H   H1738     1.0  0.57004  0.87962  0.37233  1.0000
  H   H1739     1.0  0.65860  0.94138  0.37600  1.0000
  H   H1740     1.0  0.54975  0.71642  0.40672  1.0000
  H   H1741     1.0  0.62709  0.80545  0.34031  1.0000
  H   H1742     1.0  0.75073  0.92627  0.44560  1.0000
  C   C994      1.0  0.63994  0.82958  0.34150  1.0000
  H   H1743     1.0  0.84661  0.68398  0.58051  1.0000
  H   H1744     1.0  0.59067  0.70063  0.42940  1.0000
  H   H1745     1.0  0.94879  0.53645  0.47082  1.0000
  H   H1746     1.0  0.51996  0.69809  0.49792  1.0000
  H   H1747     1.0  0.98515  0.60492  0.61964  1.0000
  N   N55       1.0  0.67289  0.50348  0.37230  1.0000
  H   H1748     1.0  0.91237  0.88192  0.41446  1.0000
  H   H1749     1.0  0.57705  0.95751  0.39732  1.0000
  C   C995      1.0  0.58622  0.67658  0.43622  1.0000
  N   N56       1.0  0.80644  0.87728  0.44811  1.0000
  C   C996      1.0  0.81542  0.84674  0.45925  1.0000
  C   C997      1.0  0.81135  0.90734  0.46031  1.0000
  C   C998      1.0  0.76888  0.87513  0.44278  1.0000
  C   C999      1.0  0.82698  0.87977  0.42999  1.0000
  C   C1000     1.0  0.86651  0.88134  0.43201  1.0000
  H   H1750     1.0  0.81409  0.92955  0.45121  1.0000
  C   C1001     1.0  0.75186  0.90675  0.43470  1.0000
  C   C1002     1.0  0.84133  0.90651  0.47490  1.0000
  H   H1751     1.0  0.56309  0.62850  0.37226  1.0000
  H   H1752     1.0  0.69404  0.93100  0.33846  1.0000
  H   H1753     1.0  0.57424  0.69565  0.34159  1.0000
  H   H1754     1.0  0.87681  0.86066  0.44051  1.0000
  H   H1755     1.0  0.87198  0.63632  0.54844  1.0000
  C   C1003     1.0  0.73421  0.52854  0.37693  1.0000
  H   H1756     1.0  0.78805  0.91189  0.46917  1.0000
  H   H1757     1.0  0.75342  0.86769  0.45534  1.0000
  H   H1758     1.0  0.76488  0.85570  0.43198  1.0000
  H   H1759     1.0  0.82062  0.85924  0.42031  1.0000
  H   H1760     1.0  0.95101  0.95857  0.58882  1.0000
  C   C1004     1.0  0.50143  0.75967  0.39697  1.0000
  C   C1005     1.0  0.63693  0.51647  0.37558  1.0000
  H   H1761     1.0  0.84289  0.84619  0.46330  1.0000
  C   C1006     1.0  0.79929  0.67741  0.60871  1.0000
  H   H1762     1.0  0.69926  0.89085  0.44039  1.0000
  H   H1763     1.0  0.81965  0.90224  0.42202  1.0000
  H   H1764     1.0  0.83387  0.89119  0.48731  1.0000
  H   H1765     1.0  0.94499  0.60554  0.63232  1.0000
  H   H1766     1.0  0.96991  0.70472  0.56281  1.0000
  H   H1767     1.0  0.82640  0.95219  0.48866  1.0000
  H   H1768     1.0  0.63686  0.97528  0.34911  1.0000
  C   C1007     1.0  0.91112  0.67114  0.57474  1.0000
  H   H1769     1.0  0.82068  0.81170  0.43563  1.0000
  C   C1008     1.0  0.69652  0.53268  0.37012  1.0000
  H   H1770     1.0  0.78263  0.55469  0.37647  1.0000
  C   C1009     1.0  0.71497  0.90010  0.42836  1.0000
  H   H1771     1.0  0.87847  0.85656  0.40541  1.0000
  N   N57       1.0  0.88879  0.65132  0.58796  1.0000
  H   H1772     1.0  0.60789  0.96474  0.41598  1.0000
  H   H1773     1.0  0.50783  0.78821  0.54207  1.0000
  H   H1774     1.0  0.56957  0.53844  0.37054  1.0000
  H   H1775     1.0  0.59413  0.69558  0.46478  1.0000
  H   H1776     1.0  0.83355  0.64059  0.56247  1.0000
  H   H1777     1.0  0.56249  0.96508  0.42113  1.0000
  H   H1778     1.0  0.83803  0.64296  0.61730  1.0000
  C   C1010     1.0  0.82856  0.65377  0.60385  1.0000
  H   H1779     1.0  0.66720  0.82527  0.34547  1.0000
  N   N58       1.0  0.73825  0.82732  0.56183  1.0000
  C   C1011     1.0  0.72018  0.81686  0.57984  1.0000
  C   C1012     1.0  0.72058  0.81309  0.54463  1.0000
  C   C1013     1.0  0.77430  0.81340  0.56262  1.0000
  C   C1014     1.0  0.74077  0.86413  0.56016  1.0000
  C   C1015     1.0  0.70638  0.88332  0.56032  1.0000
  C   C1016     1.0  0.73656  0.82849  0.59870  1.0000
  C   C1017     1.0  0.79649  0.81762  0.54447  1.0000
  C   C1018     1.0  0.68096  0.80894  0.54553  1.0000
  C   C1019     1.0  0.66622  0.80171  0.52590  1.0000
  C   C1020     1.0  0.71231  0.92021  0.56125  1.0000
  H   H1780     1.0  0.52967  0.72725  0.42827  1.0000
  C   C1021     1.0  0.83213  0.80239  0.54711  1.0000
  H   H1781     1.0  0.71882  0.78961  0.58045  1.0000
  H   H1782     1.0  0.69309  0.82530  0.58006  1.0000
  H   H1783     1.0  0.72674  0.82792  0.53183  1.0000
  H   H1784     1.0  0.73059  0.78802  0.54156  1.0000
  H   H1785     1.0  0.77357  0.78673  0.56606  1.0000
  H   H1786     1.0  0.78912  0.82494  0.57418  1.0000
  H   H1787     1.0  0.75784  0.87411  0.57137  1.0000
  H   H1788     1.0  0.75350  0.87119  0.54662  1.0000
  H   H1789     1.0  0.69017  0.87672  0.57266  1.0000
  H   H1790     1.0  0.69220  0.87865  0.54697  1.0000
  H   H1791     1.0  0.76212  0.81698  0.60083  1.0000
  H   H1792     1.0  0.73948  0.85549  0.59895  1.0000
  H   H1793     1.0  0.80033  0.84387  0.54126  1.0000
  H   H1794     1.0  0.78449  0.80581  0.53201  1.0000
  H   H1795     1.0  0.67450  0.78802  0.55500  1.0000
  H   H1796     1.0  0.66765  0.83090  0.55105  1.0000
  H   H1797     1.0  0.63823  0.79696  0.52704  1.0000
  H   H1798     1.0  0.66999  0.82301  0.51627  1.0000
  H   H1799     1.0  0.67884  0.77985  0.51957  1.0000
  H   H1800     1.0  0.68725  0.93332  0.56100  1.0000
  H   H1801     1.0  0.72588  0.92673  0.57455  1.0000
  H   H1802     1.0  0.72712  0.82701  0.62901  1.0000
  C   C1022     1.0  0.52648  0.71148  0.41553  1.0000
  H   H1803     1.0  0.94622  0.69457  0.59521  1.0000
  C   C1023     1.0  0.50412  0.71555  0.49029  1.0000
  H   H1804     1.0  0.83017  0.77581  0.55029  1.0000
  H   H1805     1.0  0.84745  0.80564  0.53394  1.0000
  H   H1806     1.0  0.84588  0.81468  0.55887  1.0000
  H   H1807     1.0  0.84809  0.78585  0.46393  1.0000
  H   H1808     1.0  0.90887  0.71869  0.58940  1.0000
  H   H1809     1.0  0.60160  0.65196  0.46240  1.0000
  H   H1810     1.0  0.78760  0.68757  0.59557  1.0000
  C   C1024     1.0  0.88410  0.88006  0.41262  1.0000
  H   H1811     1.0  0.51125  0.73648  0.56090  1.0000
  H   H1812     1.0  0.50857  0.87365  0.48942  1.0000
  S   S233      1.0  0.82033  0.50926  0.57191  1.0000
  H   H1813     1.0  0.54818  0.91363  0.34555  1.0000
  S   S234      1.0  0.83077  0.66959  0.65705  1.0000
  H   H1814     1.0  0.72764  0.92860  0.54886  1.0000
  H   H1815     1.0  0.86534  0.89609  0.46904  1.0000
  Fe  Fe116     1.0  0.87664  0.70337  0.65589  1.0000
  H   H1816     1.0  0.87395  0.90487  0.43863  1.0000
  H   H1817     1.0  0.81757  0.63392  0.59510  1.0000
  C   C1025     1.0  0.52335  0.85074  0.49206  1.0000
  H   H1818     1.0  0.54721  0.73700  0.47520  1.0000
  H   H1819     1.0  0.89570  0.68029  0.56253  1.0000
  C   C1026     1.0  0.81984  0.78486  0.46184  1.0000
  C   C1027     1.0  0.49965  0.76024  0.46728  1.0000
  H   H1820     1.0  0.68875  0.83075  0.61490  1.0000
  H   H1821     1.0  0.74522  0.58092  0.37688  1.0000
  H   H1822     1.0  0.83012  0.59565  0.53879  1.0000
  H   H1823     1.0  0.59842  0.65724  0.42742  1.0000
  C   C1028     1.0  0.58941  0.55650  0.36628  1.0000
  H   H1824     1.0  0.61530  0.52424  0.34716  1.0000
  C   C1029     1.0  0.48958  0.66402  0.42588  1.0000
  C   C1030     1.0  0.85785  0.67182  0.59324  1.0000
  H   H1825     1.0  0.93723  0.59851  0.59751  1.0000
  C   C1031     1.0  0.96110  0.61910  0.62196  1.0000
  H   H1826     1.0  0.96520  0.94409  0.56578  1.0000
  C   C1032     1.0  0.90774  0.64228  0.60590  1.0000
  H   H1827     1.0  0.93148  0.65554  0.56824  1.0000
  H   H1828     1.0  0.86998  0.93903  0.49315  1.0000
  S   S235      1.0  0.91499  0.66208  0.65873  1.0000
  N   N59       1.0  0.52536  0.67565  0.42110  1.0000
  S   S236      1.0  0.87852  0.57942  0.64616  1.0000
  H   H1829     1.0  0.95970  0.63635  0.59334  1.0000
  H   H1830     1.0  0.75730  0.55985  0.35529  1.0000
  H   H1831     1.0  0.91262  0.66443  0.61464  1.0000
  H   H1832     1.0  0.77914  0.66422  0.61684  1.0000
  H   H1833     1.0  0.80883  0.69790  0.61756  1.0000
  H   H1834     1.0  0.59500  0.57296  0.37836  1.0000
  H   H1835     1.0  0.86519  0.57463  0.55034  1.0000
  H   H1836     1.0  0.63238  0.68083  0.45314  1.0000
  H   H1837     1.0  0.73489  0.52693  0.39267  1.0000
  C   C1033     1.0  0.97247  0.95869  0.57842  1.0000
  C   C1034     1.0  0.84955  0.94074  0.48219  1.0000
  H   H1838     1.0  0.64059  0.55817  0.35525  1.0000
  Fe  Fe117     1.0  0.84010  0.97985  0.56193  1.0000
  H   H1839     1.0  0.68642  0.55413  0.37819  1.0000
  H   H1840     1.0  0.80125  0.84689  0.47294  1.0000
  H   H1841     1.0  0.77951  0.81043  0.44753  1.0000
  C   C1035     1.0  0.94752  0.49471  0.48976  1.0000
  H   H1842     1.0  0.50894  0.84180  0.52969  1.0000
  H   H1843     1.0  0.53848  0.68692  0.45018  1.0000
  H   H1844     1.0  0.76601  0.91631  0.42223  1.0000
  H   H1845     1.0  0.67880  0.87895  0.33150  1.0000
  C   C1036     1.0  0.62214  0.53908  0.35975  1.0000
  C   C1037     1.0  0.84353  0.59207  0.55253  1.0000
  C   C1038     1.0  0.85639  0.62492  0.55988  1.0000
  H   H1846     1.0  0.89152  0.62646  0.61507  1.0000
  H   H1847     1.0  0.86477  0.60358  0.58797  1.0000
  H   H1848     1.0  0.53338  0.84181  0.47824  1.0000
  H   H1849     1.0  0.52705  0.60330  0.37900  1.0000
  H   H1850     1.0  0.56685  0.66196  0.40205  1.0000
  H   H1851     1.0  0.87541  0.90078  0.40352  1.0000
  H   H1852     1.0  0.57906  0.57159  0.35441  1.0000
  C   C1039     1.0  0.51969  0.73755  0.47735  1.0000
  H   H1853     1.0  0.80677  0.78525  0.47587  1.0000
  H   H1854     1.0  0.74649  0.50619  0.37118  1.0000
  C   C1040     1.0  0.96379  0.51706  0.47731  1.0000
  H   H1855     1.0  0.81352  0.76142  0.45473  1.0000
  H   H1856     1.0  0.68190  0.49859  0.40239  1.0000
  H   H1857     1.0  0.54418  0.64495  0.44410  1.0000
  H   H1858     1.0  0.71451  0.88173  0.41678  1.0000
  C   C1041     1.0  0.71444  0.81885  0.61574  1.0000
  H   H1859     1.0  0.69719  0.54099  0.35503  1.0000
  H   H1860     1.0  0.85905  0.95657  0.47048  1.0000
  C   C1042     1.0  0.53469  0.62763  0.37337  1.0000
  H   H1861     1.0  0.69856  0.98883  0.32998  1.0000
  H   H1862     1.0  0.54188  0.62851  0.41056  1.0000
  C   C1043     1.0  0.54013  0.65441  0.40556  1.0000
  C   C1044     1.0  0.93752  0.99073  0.49775  1.0000
  C   C1045     1.0  0.94212  0.62338  0.60316  1.0000
  H   H1863     1.0  0.63578  0.52995  0.38929  1.0000
  H   H1864     1.0  0.93234  0.72933  0.55716  1.0000
  H   H1865     1.0  0.54562  0.85605  0.50135  1.0000
  C   C1046     1.0  0.92842  0.70161  0.58360  1.0000
  H   H1866     1.0  0.49019  0.76919  0.52162  1.0000
  C   C1047     1.0  0.50038  0.82462  0.50103  1.0000
  C   C1048     1.0  0.52136  0.65495  0.38622  1.0000
  C   C1049     1.0  0.58219  0.97175  0.41039  1.0000
  C   C1050     1.0  0.49464  0.72546  0.40487  1.0000
  H   H1867     1.0  0.91032  0.99153  0.50083  1.0000
  H   H1868     1.0  0.52388  0.63060  0.35888  1.0000
  H   H1869     1.0  0.74070  0.97148  0.33311  1.0000
  H   H1870     1.0  0.52649  0.67856  0.37887  1.0000
  H   H1871     1.0  0.62705  0.84370  0.35295  1.0000
  H   H1872     1.0  0.63742  0.89709  0.33358  1.0000
  H   H1873     1.0  0.66539  0.49885  0.34201  1.0000
  H   H1874     1.0  0.49980  0.71620  0.53900  1.0000
  H   H1875     1.0  0.98257  0.52845  0.40436  1.0000
  H   H1876     1.0  0.61828  0.49617  0.37692  1.0000
  H   H1877     1.0  0.96792  0.64333  0.62795  1.0000
  H   H1878     1.0  0.48961  0.63694  0.42798  1.0000
  H   H1879     1.0  0.96128  0.74207  0.57556  1.0000
  H   H1880     1.0  0.49330  0.65152  0.38764  1.0000
  H   H1881     1.0  0.50739  0.77686  0.40866  1.0000
  H   H1882     1.0  0.67512  0.71864  0.71515  1.0000
  H   H1883     1.0  0.94244  0.65528  0.88938  1.0000
  Fe  Fe118     1.0  0.83373  0.67676  0.68898  1.0000
  S   S237      1.0  0.87765  0.71251  0.68752  1.0000
  S   S238      1.0  0.79029  0.67982  0.71126  1.0000
  C   C1051     1.0  0.68088  0.65929  0.89930  1.0000
  Fe  Fe119     1.0  0.91213  0.66799  0.69034  1.0000
  S   S239      1.0  0.96070  0.66944  0.70902  1.0000
  C   C1052     1.0  0.60348  0.68209  0.94209  1.0000
  S   S240      1.0  0.86866  0.63263  0.69299  1.0000
  Fe  Fe120     1.0  0.56593  0.54200  0.93679  1.0000
  S   S241      1.0  0.61597  0.51424  0.93795  1.0000
  S   S242      1.0  0.51773  0.53559  0.95564  1.0000
  Fe  Fe121     1.0  0.59583  0.59246  0.90804  1.0000
  S   S243      1.0  0.64774  0.56784  0.90787  1.0000
  S   S244      1.0  0.58183  0.64217  0.89458  1.0000
  Fe  Fe122     1.0  0.61771  0.52055  0.90612  1.0000
  H   H1884     1.0  0.81272  0.75838  0.78672  1.0000
  Fe  Fe123     1.0  0.64226  0.56338  0.93955  1.0000
  S   S245      1.0  0.68456  0.56712  0.96224  1.0000
  S   S246      1.0  0.56584  0.54562  0.90466  1.0000
  S   S247      1.0  0.59214  0.59083  0.94000  1.0000
  Fe  Fe124     1.0  0.65378  0.79674  0.76981  1.0000
  S   S248      1.0  0.60580  0.76632  0.77161  1.0000
  S   S249      1.0  0.69349  0.79313  0.74548  1.0000
  Fe  Fe125     1.0  0.63181  0.83699  0.80526  1.0000
  S   S250      1.0  0.58343  0.80778  0.80942  1.0000
  S   S251      1.0  0.65103  0.88059  0.82271  1.0000
  Fe  Fe126     1.0  0.61646  0.76337  0.80311  1.0000
  S   S252      1.0  0.62133  0.71145  0.81574  1.0000
  Fe  Fe127     1.0  0.57683  0.81325  0.77749  1.0000
  S   S253      1.0  0.52264  0.82540  0.76581  1.0000
  S   S254      1.0  0.66553  0.79230  0.80092  1.0000
  S   S255      1.0  0.62400  0.84407  0.77382  1.0000
  H   H1885     1.0  0.64143  0.74857  0.71789  1.0000
  C   C1053     1.0  0.75620  0.64775  0.98576  1.0000
  C   C1054     1.0  0.71176  0.59886  0.97089  1.0000
  C   C1055     1.0  0.71283  0.63005  0.96263  1.0000
  H   H1886     1.0  0.83643  0.79327  0.71349  1.0000
  H   H1887     1.0  0.69693  0.63529  0.95047  1.0000
  H   H1888     1.0  0.58207  0.83573  0.90505  1.0000
  C   C1056     1.0  0.59353  0.66107  0.87267  1.0000
  C   C1057     1.0  0.58281  0.69352  0.86903  1.0000
  C   C1058     1.0  0.59153  0.70959  0.85190  1.0000
  C   C1059     1.0  0.61087  0.69326  0.83808  1.0000
  C   C1060     1.0  0.62186  0.66093  0.84184  1.0000
  C   C1061     1.0  0.61339  0.64498  0.85901  1.0000
  H   H1889     1.0  0.56740  0.70623  0.87947  1.0000
  H   H1890     1.0  0.58274  0.73436  0.84925  1.0000
  H   H1891     1.0  0.63677  0.64790  0.83135  1.0000
  H   H1892     1.0  0.62180  0.62005  0.86157  1.0000
  C   C1062     1.0  0.60645  0.94345  0.87153  1.0000
  C   C1063     1.0  0.64014  0.94791  0.86510  1.0000
  C   C1064     1.0  0.65330  0.92839  0.85022  1.0000
  C   C1065     1.0  0.63325  0.90386  0.84174  1.0000
  C   C1066     1.0  0.59959  0.89937  0.84819  1.0000
  C   C1067     1.0  0.58619  0.91939  0.86274  1.0000
  H   H1893     1.0  0.63368  0.93203  0.94319  1.0000
  H   H1894     1.0  0.67932  0.93223  0.84531  1.0000
  H   H1895     1.0  0.58381  0.88073  0.84179  1.0000
  H   H1896     1.0  0.55985  0.91628  0.86716  1.0000
  H   H1897     1.0  0.71993  0.60391  0.89079  1.0000
  C   C1068     1.0  0.52292  0.86610  0.73342  1.0000
  H   H1898     1.0  0.96433  0.57015  0.74989  1.0000
  H   H1899     1.0  0.96775  0.80106  0.93762  1.0000
  H   H1900     1.0  0.55054  0.86334  0.73330  1.0000
  C   C1069     1.0  0.55012  0.87961  0.90272  1.0000
  H   H1901     1.0  0.93799  0.60651  0.72544  1.0000
  C   C1070     1.0  0.76599  0.71294  0.72114  1.0000
  C   C1071     1.0  0.76126  0.74282  0.71168  1.0000
  C   C1072     1.0  0.73949  0.76719  0.71947  1.0000
  C   C1073     1.0  0.72251  0.76234  0.73693  1.0000
  C   C1074     1.0  0.72871  0.73315  0.74682  1.0000
  C   C1075     1.0  0.74975  0.70843  0.73884  1.0000
  H   H1902     1.0  0.77351  0.74682  0.69809  1.0000
  H   H1903     1.0  0.73530  0.78980  0.71173  1.0000
  H   H1904     1.0  0.71712  0.72980  0.76059  1.0000
  H   H1905     1.0  0.75368  0.68568  0.74645  1.0000
  H   H1906     1.0  0.55985  0.93800  0.95195  1.0000
  H   H1907     1.0  0.61595  0.92514  0.96665  1.0000
  C   C1076     1.0  0.96236  0.61292  0.73173  1.0000
  C   C1077     1.0  0.51740  0.87801  0.96518  1.0000
  H   H1908     1.0  0.57391  0.84928  0.88115  1.0000
  C   C1078     1.0  0.97787  0.69381  0.94701  1.0000
  H   H1909     1.0  0.50619  0.86634  0.91971  1.0000
  H   H1910     1.0  0.78030  0.72717  0.78729  1.0000
  H   H1911     1.0  0.93723  0.73089  0.94836  1.0000
  H   H1912     1.0  0.58838  0.93670  0.81569  1.0000
  H   H1913     1.0  0.72654  0.66323  0.88039  1.0000
  C   C1079     1.0  0.73292  0.59237  0.98668  1.0000
  H   H1914     1.0  0.62527  0.94544  0.74345  1.0000
  H   H1915     1.0  0.61275  0.90754  0.73248  1.0000
  C   C1080     1.0  0.50650  0.88563  0.71942  1.0000
  N   N60       1.0  0.88434  0.70983  0.75287  1.0000
  C   C1081     1.0  0.86760  0.68224  0.74223  1.0000
  C   C1082     1.0  0.88775  0.73906  0.73979  1.0000
  C   C1083     1.0  0.92023  0.69853  0.75798  1.0000
  C   C1084     1.0  0.86514  0.71899  0.77080  1.0000
  C   C1085     1.0  0.82544  0.71429  0.77078  1.0000
  C   C1086     1.0  0.86728  0.64868  0.75273  1.0000
  H   H1916     1.0  0.60125  0.70771  0.94718  1.0000
  C   C1087     1.0  0.85393  0.75459  0.73238  1.0000
  C   C1088     1.0  0.86111  0.78349  0.71911  1.0000
  C   C1089     1.0  0.80846  0.73152  0.78758  1.0000
  C   C1090     1.0  0.83816  0.62675  0.74590  1.0000
  H   H1917     1.0  0.53835  0.88801  0.78225  1.0000
  H   H1918     1.0  0.88084  0.67826  0.72837  1.0000
  H   H1919     1.0  0.84095  0.68867  0.73830  1.0000
  H   H1920     1.0  0.90125  0.75936  0.74703  1.0000
  H   H1921     1.0  0.90395  0.73243  0.72728  1.0000
  H   H1922     1.0  0.95206  0.74283  0.75673  1.0000
  H   H1923     1.0  0.91925  0.67728  0.76789  1.0000
  H   H1924     1.0  0.87476  0.70448  0.78313  1.0000
  H   H1925     1.0  0.87052  0.74494  0.77454  1.0000
  H   H1926     1.0  0.81902  0.68792  0.77183  1.0000
  H   H1927     1.0  0.81317  0.72372  0.75773  1.0000
  H   H1928     1.0  0.89203  0.63568  0.75011  1.0000
  H   H1929     1.0  0.86446  0.65168  0.76827  1.0000
  H   H1930     1.0  0.87431  0.80342  0.72685  1.0000
  H   H1931     1.0  0.59149  0.56091  0.97741  1.0000
  H   H1932     1.0  0.83842  0.73665  0.72440  1.0000
  H   H1933     1.0  0.83861  0.76459  0.74430  1.0000
  C   C1091     1.0  0.49677  0.50582  0.97036  1.0000
  C   C1092     1.0  0.53213  0.87684  0.92231  1.0000
  Fe  Fe128     1.0  0.86949  0.62877  0.66104  1.0000
  C   C1093     1.0  0.62925  0.98874  0.99063  1.0000
  H   H1934     1.0  0.81886  0.72197  0.80118  1.0000
  C   C1094     1.0  0.64758  0.72200  0.71889  1.0000
  H   H1935     1.0  0.83945  0.60275  0.75333  1.0000
  H   H1936     1.0  0.81280  0.63826  0.74889  1.0000
  H   H1937     1.0  0.84033  0.62239  0.73044  1.0000
  C   C1095     1.0  0.62314  0.91329  0.95306  1.0000
  N   N61       1.0  0.64770  0.65953  0.76124  1.0000
  C   C1096     1.0  0.65084  0.62279  0.76031  1.0000
  C   C1097     1.0  0.61406  0.66831  0.77065  1.0000
  C   C1098     1.0  0.64978  0.67319  0.74134  1.0000
  C   C1099     1.0  0.67634  0.67415  0.77281  1.0000
  C   C1100     1.0  0.68388  0.65753  0.79219  1.0000
  C   C1101     1.0  0.68494  0.60954  0.75172  1.0000
  C   C1102     1.0  0.64054  0.70996  0.73908  1.0000
  C   C1103     1.0  0.58103  0.65780  0.76010  1.0000
  C   C1104     1.0  0.54912  0.67239  0.76960  1.0000
  C   C1105     1.0  0.70979  0.67733  0.80361  1.0000
  C   C1106     1.0  0.68733  0.57234  0.75376  1.0000
  H   H1938     1.0  0.51415  0.91938  0.75934  1.0000
  H   H1939     1.0  0.62998  0.61254  0.75141  1.0000
  H   H1940     1.0  0.64693  0.61172  0.77462  1.0000
  H   H1941     1.0  0.61242  0.65711  0.78502  1.0000
  H   H1942     1.0  0.61255  0.69512  0.77328  1.0000
  H   H1943     1.0  0.63316  0.65911  0.73150  1.0000
  H   H1944     1.0  0.67632  0.67016  0.73562  1.0000
  H   H1945     1.0  0.70082  0.67412  0.76469  1.0000
  H   H1946     1.0  0.67069  0.70042  0.77579  1.0000
  H   H1947     1.0  0.69483  0.63264  0.79022  1.0000
  H   H1948     1.0  0.66029  0.65520  0.80082  1.0000
  H   H1949     1.0  0.68634  0.61547  0.73635  1.0000
  H   H1950     1.0  0.70780  0.62015  0.75867  1.0000
  H   H1951     1.0  0.65579  0.72520  0.74886  1.0000
  H   H1952     1.0  0.61292  0.71432  0.74206  1.0000
  H   H1953     1.0  0.58102  0.66597  0.74510  1.0000
  H   H1954     1.0  0.57840  0.63075  0.76044  1.0000
  H   H1955     1.0  0.52566  0.66399  0.76217  1.0000
  H   H1956     1.0  0.54757  0.66454  0.78470  1.0000
  H   H1957     1.0  0.54981  0.69959  0.76897  1.0000
  H   H1958     1.0  0.71479  0.66489  0.81738  1.0000
  H   H1959     1.0  0.73441  0.67957  0.79573  1.0000
  H   H1960     1.0  0.69943  0.70221  0.80660  1.0000
  H   H1961     1.0  0.66543  0.56040  0.74650  1.0000
  H   H1962     1.0  0.71160  0.56343  0.74719  1.0000
  H   H1963     1.0  0.68736  0.56512  0.76897  1.0000
  C   C1107     1.0  0.97634  0.70844  0.77532  1.0000
  H   H1964     1.0  0.54588  0.85783  0.93064  1.0000
  H   H1965     1.0  0.96178  0.70215  0.90829  1.0000
  N   N62       1.0  0.67733  0.69503  0.90477  1.0000
  C   C1108     1.0  0.67500  0.71616  0.88717  1.0000
  C   C1109     1.0  0.64409  0.69930  0.91566  1.0000
  C   C1110     1.0  0.70624  0.70525  0.91765  1.0000
  C   C1111     1.0  0.74284  0.70475  0.90911  1.0000
  C   C1112     1.0  0.66875  0.75329  0.89025  1.0000
  C   C1113     1.0  0.63860  0.67611  0.93294  1.0000
  C   C1114     1.0  0.76879  0.71921  0.92297  1.0000
  C   C1115     1.0  0.66856  0.77172  0.87131  1.0000
  H   H1966     1.0  0.96738  0.61798  0.88960  1.0000
  H   H1967     1.0  0.65380  0.70715  0.87797  1.0000
  H   H1968     1.0  0.69852  0.71404  0.87837  1.0000
  H   H1969     1.0  0.62178  0.69629  0.90598  1.0000
  H   H1970     1.0  0.64189  0.72455  0.92138  1.0000
  H   H1971     1.0  0.70119  0.73008  0.92351  1.0000
  H   H1972     1.0  0.70753  0.68884  0.93025  1.0000
  H   H1973     1.0  0.74437  0.71916  0.89580  1.0000
  H   H1974     1.0  0.75102  0.67912  0.90647  1.0000
  H   H1975     1.0  0.64340  0.75783  0.89699  1.0000
  H   H1976     1.0  0.68918  0.76397  0.89921  1.0000
  H   H1977     1.0  0.95787  0.81038  0.91324  1.0000
  H   H1978     1.0  0.76239  0.74519  0.92611  1.0000
  H   H1979     1.0  0.76916  0.70500  0.93646  1.0000
  H   H1980     1.0  0.79494  0.71824  0.91667  1.0000
  H   H1981     1.0  0.64803  0.76222  0.86190  1.0000
  H   H1982     1.0  0.66358  0.79818  0.87377  1.0000
  H   H1983     1.0  0.69375  0.76918  0.86400  1.0000
  C   C1116     1.0  0.97883  0.64174  0.72605  1.0000
  C   C1117     1.0  0.97741  0.59231  0.74563  1.0000
  C   C1118     1.0  0.54704  0.90119  0.79505  1.0000
  H   H1984     1.0  0.93391  0.68946  0.74512  1.0000
  C   C1119     1.0  0.52813  0.95559  0.78159  1.0000
  C   C1120     1.0  0.61677  0.91996  0.74628  1.0000
  H   H1985     1.0  0.98504  0.65435  0.87891  1.0000
  H   H1986     1.0  0.62661  0.61915  0.97382  1.0000
  H   H1987     1.0  0.65607  0.96634  0.87159  1.0000
  H   H1988     1.0  0.69246  0.64485  0.91115  1.0000
  H   H1989     1.0  0.63984  0.64997  0.92876  1.0000
  C   C1121     1.0  0.70108  0.65143  0.88078  1.0000
  H   H1990     1.0  0.57443  0.89428  0.75877  1.0000
  H   H1991     1.0  0.93030  0.73708  0.77914  1.0000
  H   H1992     1.0  0.52809  0.93845  0.90782  1.0000
  C   C1122     1.0  0.51176  0.93344  0.92045  1.0000
  C   C1123     1.0  0.58320  0.91993  0.75760  1.0000
  H   H1993     1.0  0.51266  0.96804  0.79278  1.0000
  H   H1994     1.0  0.56445  0.93444  0.74920  1.0000
  H   H1995     1.0  0.53115  0.89871  0.82486  1.0000
  C   C1124     1.0  0.50175  0.93653  0.76931  1.0000
  C   C1125     1.0  0.58819  0.93529  0.77740  1.0000
  H   H1996     1.0  0.54033  0.82912  0.89436  1.0000
  H   H1997     1.0  0.94976  0.75172  0.92025  1.0000
  C   C1126     1.0  0.50405  0.96746  0.92936  1.0000
  H   H1998     1.0  0.68641  0.66019  0.86822  1.0000
  H   H1999     1.0  0.58255  0.67720  0.93181  1.0000
  H   H2000     1.0  0.89189  0.69617  0.96164  1.0000
  C   C1127     1.0  0.94373  0.72436  0.76737  1.0000
  H   H2001     1.0  0.64358  0.89487  0.95595  1.0000
  H   H2002     1.0  0.60993  0.92219  0.78453  1.0000
  N   N63       1.0  0.52897  0.90845  0.93324  1.0000
  H   H2003     1.0  0.60108  0.88406  0.93122  1.0000
  H   H2004     1.0  0.52191  0.89800  0.70884  1.0000
  C   C1128     1.0  0.56816  0.95184  0.80866  1.0000
  H   H2005     1.0  0.56987  0.88689  0.79997  1.0000
  H   H2006     1.0  0.65510  0.64832  0.89699  1.0000
  C   C1129     1.0  0.91902  0.68759  0.96207  1.0000
  C   C1130     1.0  0.93958  0.70404  0.94621  1.0000
  H   H2007     1.0  0.53883  0.88859  0.97349  1.0000
  C   C1131     1.0  0.50354  0.84996  0.74735  1.0000
  H   H2008     1.0  0.63740  0.90671  0.75406  1.0000
  C   C1132     1.0  0.70648  0.61462  0.87832  1.0000
  C   C1133     1.0  0.51894  0.89777  0.81064  1.0000
  H   H2009     1.0  0.58319  0.87745  0.95429  1.0000
  C   C1134     1.0  0.97606  0.79718  0.92271  1.0000
  H   H2010     1.0  0.53163  0.88968  0.89220  1.0000
  H   H2011     1.0  0.54631  0.95302  0.81882  1.0000
  H   H2012     1.0  0.57445  0.93784  0.92822  1.0000
  H   H2013     1.0  0.91937  0.66055  0.96045  1.0000
  H   H2014     1.0  0.98248  0.75811  0.90271  1.0000
  C   C1135     1.0  0.97137  0.78242  0.98368  1.0000
  H   H2015     1.0  0.59730  0.96053  0.77446  1.0000
  H   H2016     1.0  0.51772  0.84441  0.80979  1.0000
  H   H2017     1.0  0.96993  0.69026  0.78653  1.0000
  C   C1136     1.0  0.59203  0.89652  0.94427  1.0000
  C   C1137     1.0  0.56332  0.92177  0.93945  1.0000
  H   H2018     1.0  0.97949  0.66682  0.94904  1.0000
  H   H2019     1.0  0.52582  0.85446  0.95895  1.0000
  H   H2020     1.0  0.65815  0.68049  0.94402  1.0000
  H   H2021     1.0  0.87733  0.77586  0.70692  1.0000
  H   H2022     1.0  0.72229  0.60997  0.86547  1.0000
  H   H2023     1.0  0.68139  0.60228  0.87642  1.0000
  H   H2024     1.0  0.73544  0.67831  0.96356  1.0000
  H   H2025     1.0  0.57261  0.89616  0.90328  1.0000
  H   H2026     1.0  0.60016  0.66536  0.95439  1.0000
  S   S256      1.0  0.58841  0.96645  0.89063  1.0000
  H   H2027     1.0  0.92748  0.69719  0.93262  1.0000
  H   H2028     1.0  0.63144  0.70865  0.70855  1.0000
  C   C1138     1.0  0.56227  0.84629  0.89546  1.0000
  C   C1139     1.0  0.73484  0.65429  0.97004  1.0000
  H   H2029     1.0  0.60412  0.98775  0.83557  1.0000
  H   H2030     1.0  0.49815  0.85400  0.99060  1.0000
  N   N64       1.0  0.55719  0.93591  0.79033  1.0000
  H   H2031     1.0  0.92972  0.69393  0.97616  1.0000
  C   C1140     1.0  0.97620  0.76070  0.91803  1.0000
  H   H2032     1.0  0.60829  0.98704  0.80047  1.0000
  H   H2033     1.0  0.65529  0.98470  0.98456  1.0000
  C   C1141     1.0  0.96884  0.64506  0.89075  1.0000
  H   H2034     1.0  0.49982  0.91795  0.80992  1.0000
  H   H2035     1.0  0.64066  0.50686  0.97978  1.0000
  C   C1142     1.0  0.60434  0.56242  0.99147  1.0000
  C   C1143     1.0  0.58237  0.98720  0.80708  1.0000
  H   H2036     1.0  0.53873  0.97589  0.77278  1.0000
  H   H2037     1.0  0.52722  0.97768  0.93624  1.0000
  H   H2038     1.0  0.96779  0.64393  0.92114  1.0000
  C   C1144     1.0  0.49961  0.86544  0.80920  1.0000
  H   H2039     1.0  0.95684  0.80290  0.97806  1.0000
  C   C1145     1.0  0.50538  0.90301  0.94998  1.0000
  H   H2040     1.0  0.50129  0.92612  0.95790  1.0000
  C   C1146     1.0  0.98445  0.65428  0.90986  1.0000
  C   C1147     1.0  0.48838  0.87018  0.97910  1.0000
  H   H2041     1.0  0.84818  0.51030  0.67107  1.0000
  H   H2042     1.0  0.49505  0.97381  0.74737  1.0000
  H   H2043     1.0  0.54236  0.98073  0.97328  1.0000
  C   C1148     1.0  0.51735  0.98561  0.97932  1.0000
  H   H2044     1.0  0.57499  0.50601  0.98127  1.0000
  H   H2045     1.0  0.63176  0.55784  0.98831  1.0000
  H   H2046     1.0  0.60992  0.98248  0.97972  1.0000
  C   C1149     1.0  0.86659  0.49333  0.66405  1.0000
  C   C1150     1.0  0.50200  0.96258  0.99169  1.0000
  C   C1151     1.0  0.62691  0.62101  0.98951  1.0000
  H   H2047     1.0  0.73238  0.56838  0.99322  1.0000
  H   H2048     1.0  0.98760  0.70418  0.96053  1.0000
  C   C1152     1.0  0.98744  0.69200  0.91178  1.0000
