data_image0
_chemical_formula_structural       HSHFeSH4CH7C2H2CHNH3CHCH3CHCHCH8CH7C3HCH3C3HCNCHC2HC2H5CH2C2HC2HC4H2C2HCHCFeSFeSCFeSFeCSCFeCSCHSHC3HC6H5C2H2CHCH2NC11H16CHSH9C2H3NH3CH3CHCHSCHSHCSH7SH5CH3S2FeHC2H2CHC2H3CHCFeSHFeSFeSFeH2CS2HCHC2HC2H2CH2SC2H5S2H2C2SCH3C2H6C3H4CH4CHCHNCHCSH2CH12FeS2FeCSHFeCS2NH2CFeH2CH2CHCH3C4H2CHSH2CH3CH2CH2CHSH4C3HCHCHCH3C3H8CHSH4C2H3C2HC2H3NCH5CHCH4CHFeSFeSHFeSFeSHSHSHFeSHC6H4C3HCHCH6CHC4HCH7CHC2HCH2NCHSH4C2NH2C3SHCH3C4HCH3CH2NHCH8CHCH2SC2H3CH5CH4CHCHC2H7C4HCH2CH3C2H2SHSHFeC2H5C2HC2HCH3C3H8CH2NC2H7CHCHCHSHSH3C2H2CHFeSH3CH4NHCH2SH3C2HCH3CH3CHCHCH2CHC2FeCSCHSH2CH2CH5CH2CFeHC2HC2H2C4H3CHCFeH2C3HCH11CH4C3H2NHCH4CH3NHSH3SCSC4H4SH2CH4CH4C2HSH3SCFeSHFeSFeSHFeSFeS2H3C6H5CH2SHNHCSH3CNH2C6HCHCHC2H9CH5CHCH2CH6SHC4SHCHCH2C4H5CH3CHCHFeHCNCHCFeHSFeH2Fe2HS2H2CHC3SC2H5C2H2CNHC2H2CH2CHC4H2CH2CHCH2CH3CSH3C3H2CHNCH6C2H6CHCH2C3H2CH3CFeSCFeSFeSFeSHSH3SC2HSCHC3H3CH2C2HNC2H4C3H2CH2CHCH4CSHCH10CH5CHCHCH2CH3CHCH2CNHFeHSFeS2Fe2CS2FeHSH2SCSH3C6H4CH4CHCNC5HCH7CH3C2H11CH2SC2HC3H2NHCH4CHCH2SH2CHFeH3C2H2C2H3CHFeSHCH2FeHSH2SCH2CHCHCH2C2H3CH4C2HCH2C2H2CH5C2H3CH2CH4NH4C3SCH2CSH2C2H2SHC3H6C2HCH3C2FeHCHCH
_chemical_formula_sum              "H768 S96 Fe48 C432 N24"
_cell_length_a       29.8721
_cell_length_b       54.5508
_cell_length_c       34.1004
_cell_angle_alpha    89.5986
_cell_angle_beta     108.641
_cell_angle_gamma    90.5247

_space_group_name_H-M_alt    "P 1"
_space_group_IT_number       1

loop_
  _space_group_symop_operation_xyz
  'x, y, z'

loop_
  _atom_site_type_symbol
  _atom_site_label
  _atom_site_symmetry_multiplicity
  _atom_site_fract_x
  _atom_site_fract_y
  _atom_site_fract_z
  _atom_site_occupancy
  H   H1        1.0  0.32472  0.00639  0.02146  1.0000
  S   S1        1.0  0.45524  0.22258  0.25319  1.0000
  H   H2        1.0  0.12830  0.28974  0.07058  1.0000
  Fe  Fe1       1.0  0.44437  0.26312  0.23945  1.0000
  S   S2        1.0  0.36988  0.27751  0.23143  1.0000
  H   H3        1.0  0.14814  0.24980  0.11378  1.0000
  H   H4        1.0  0.39787  0.14811  0.24944  1.0000
  H   H5        1.0  0.45339  0.20641  0.02350  1.0000
  H   H6        1.0  0.46905  0.21767  0.09733  1.0000
  C   C1        1.0  0.10101  0.30239  0.40283  1.0000
  H   H7        1.0  0.32836  0.01087  0.07466  1.0000
  H   H8        1.0  0.18807  0.30462  0.35444  1.0000
  H   H9        1.0  0.34994  0.16641  0.28796  1.0000
  H   H10       1.0  0.40727  0.13301  0.29887  1.0000
  H   H11       1.0  0.25010  0.26112  0.11235  1.0000
  H   H12       1.0  0.35346  0.26283  0.07423  1.0000
  H   H13       1.0  0.40185  0.17282  0.33126  1.0000
  C   C2        1.0  0.33161  0.29962  0.19899  1.0000
  C   C3        1.0  0.12409  0.31053  0.37013  1.0000
  H   H14       1.0  0.24067  0.32019  0.05224  1.0000
  H   H15       1.0  0.33479  0.25721  0.11882  1.0000
  C   C4        1.0  0.32981  0.26926  0.09134  1.0000
  H   H16       1.0  0.09662  0.28142  0.12900  1.0000
  N   N1        1.0  0.05421  0.31392  0.39958  1.0000
  H   H17       1.0  0.44310  0.17675  0.41601  1.0000
  H   H18       1.0  0.06830  0.31346  0.46630  1.0000
  H   H19       1.0  0.27370  0.29020  0.22124  1.0000
  C   C5        1.0  0.27851  0.26857  0.06299  1.0000
  H   H20       1.0  0.19415  0.24466  0.02376  1.0000
  C   C6        1.0  0.20218  0.31955  0.03548  1.0000
  H   H21       1.0  0.03620  0.32460  0.31350  1.0000
  H   H22       1.0  0.16938  0.27844  0.37791  1.0000
  H   H23       1.0  0.45901  0.10446  0.30517  1.0000
  C   C7        1.0  0.18379  0.29292  0.02535  1.0000
  H   H24       1.0  0.09715  0.28211  0.40014  1.0000
  C   C8        1.0  0.25465  0.32020  0.17749  1.0000
  H   H25       1.0  0.27556  0.28177  0.03742  1.0000
  C   C9        1.0  0.46776  0.19862  0.08861  1.0000
  H   H26       1.0  0.98928  0.28776  0.27963  1.0000
  H   H27       1.0  0.10197  0.30457  0.33890  1.0000
  H   H28       1.0  0.47024  0.20521  0.37071  1.0000
  H   H29       1.0  0.18079  0.30276  0.10396  1.0000
  H   H30       1.0  0.19973  0.26513  0.14740  1.0000
  H   H31       1.0  0.13306  0.26617  0.17506  1.0000
  H   H32       1.0  0.39297  0.18826  0.28221  1.0000
  H   H33       1.0  0.98116  0.30299  0.36829  1.0000
  C   C10       1.0  0.24408  0.27497  0.08714  1.0000
  H   H34       1.0  0.14525  0.29448  0.00882  1.0000
  H   H35       1.0  0.46984  0.17109  0.27348  1.0000
  H   H36       1.0  0.00767  0.31565  0.43666  1.0000
  H   H37       1.0  0.19688  0.30457  0.40924  1.0000
  H   H38       1.0  0.12699  0.30540  0.43412  1.0000
  H   H39       1.0  0.19865  0.28533  0.00200  1.0000
  H   H40       1.0  0.41709  0.11115  0.23577  1.0000
  C   C11       1.0  0.17627  0.25046  0.04616  1.0000
  C   C12       1.0  0.04142  0.30671  0.43755  1.0000
  C   C13       1.0  0.34629  0.31527  0.17275  1.0000
  H   H41       1.0  0.46799  0.10169  0.17186  1.0000
  C   C14       1.0  0.38831  0.17068  0.29709  1.0000
  H   H42       1.0  0.34030  0.28828  0.10185  1.0000
  H   H43       1.0  0.21978  0.32226  0.18016  1.0000
  H   H44       1.0  0.38138  0.31340  0.17061  1.0000
  C   C15       1.0  0.17254  0.29876  0.37861  1.0000
  C   C16       1.0  0.47377  0.15564  0.10693  1.0000
  C   C17       1.0  0.16525  0.28514  0.08932  1.0000
  H   H45       1.0  0.14829  0.29670  0.16319  1.0000
  C   C18       1.0  0.16372  0.26792  0.12532  1.0000
  N   N2        1.0  0.19236  0.27586  0.06198  1.0000
  C   C19       1.0  0.28545  0.30209  0.20089  1.0000
  H   H46       1.0  0.07136  0.26979  0.45254  1.0000
  C   C20       1.0  0.41400  0.14993  0.28346  1.0000
  C   C21       1.0  0.13356  0.27879  0.14952  1.0000
  H   H47       1.0  0.18729  0.23678  0.07178  1.0000
  C   C22       1.0  0.46737  0.15571  0.29418  1.0000
  C   C23       1.0  0.44974  0.10766  0.22817  1.0000
  H   H48       1.0  0.27134  0.24984  0.04993  1.0000
  H   H49       1.0  0.25582  0.29261  0.10347  1.0000
  H   H50       1.0  0.10076  0.25386  0.04196  1.0000
  H   H51       1.0  0.46236  0.13009  0.05622  1.0000
  H   H52       1.0  0.11711  0.20943  0.04228  1.0000
  C   C24       1.0  0.12251  0.24730  0.02327  1.0000
  H   H53       1.0  0.02327  0.28504  0.35525  1.0000
  H   H54       1.0  0.42097  0.12348  0.16631  1.0000
  C   C25       1.0  0.01558  0.30420  0.36202  1.0000
  C   C26       1.0  0.43645  0.10594  0.18109  1.0000
  H   H55       1.0  0.01456  0.25367  0.48458  1.0000
  C   C27       1.0  0.10977  0.22035  0.01331  1.0000
  C   C28       1.0  0.01603  0.27372  0.47924  1.0000
  H   H56       1.0  0.97957  0.28098  0.47109  1.0000
  C   C29       1.0  0.46360  0.14917  0.06499  1.0000
  C   C30       1.0  0.03629  0.27873  0.44411  1.0000
  C   C31       1.0  0.45110  0.00897  0.00150  1.0000
  C   C32       1.0  0.00421  0.31920  0.32119  1.0000
  H   H57       1.0  0.40981  0.09113  0.16947  1.0000
  H   H58       1.0  0.01252  0.26978  0.41595  1.0000
  C   C33       1.0  0.47612  0.18035  0.11904  1.0000
  C   C34       1.0  0.45874  0.19217  0.04675  1.0000
  H   H59       1.0  0.46343  0.08947  0.24133  1.0000
  C   C35       1.0  0.45658  0.16742  0.03464  1.0000
  H   H60       1.0  0.46027  0.08812  0.37384  1.0000
  C   C36       1.0  0.32577  0.99680  0.05063  1.0000
  Fe  Fe2       1.0  0.42289  0.12410  0.94802  1.0000
  S   S3        1.0  0.36283  0.10157  0.95621  1.0000
  Fe  Fe3       1.0  0.42907  0.09286  0.87480  1.0000
  S   S4        1.0  0.36890  0.06916  0.87899  1.0000
  C   C37       1.0  0.02266  0.32074  0.86817  1.0000
  Fe  Fe4       1.0  0.33239  0.10399  0.88658  1.0000
  S   S5        1.0  0.25314  0.10776  0.85017  1.0000
  Fe  Fe5       1.0  0.40482  0.06864  0.94783  1.0000
  C   C38       1.0  0.14576  0.30573  0.88731  1.0000
  S   S6        1.0  0.39058  0.12768  0.87827  1.0000
  C   C39       1.0  0.12570  0.22460  0.88377  1.0000
  Fe  Fe6       1.0  0.03596  0.20919  0.74209  1.0000
  C   C40       1.0  0.12103  0.25230  0.87339  1.0000
  S   S7        1.0  0.11362  0.19618  0.76682  1.0000
  C   C41       1.0  0.14593  0.29048  0.84909  1.0000
  H   H61       1.0  0.27039  0.23338  0.95095  1.0000
  S   S8        1.0  0.03531  0.24909  0.72318  1.0000
  H   H62       1.0  0.02902  0.26842  0.94677  1.0000
  C   C42       1.0  0.01271  0.31202  0.57411  1.0000
  C   C43       1.0  0.47470  0.09034  0.78396  1.0000
  C   C44       1.0  0.23524  0.23791  0.88458  1.0000
  H   H63       1.0  0.30293  0.25193  0.92476  1.0000
  C   C45       1.0  0.15098  0.17156  0.79258  1.0000
  C   C46       1.0  0.19971  0.17617  0.81139  1.0000
  C   C47       1.0  0.23124  0.15715  0.83040  1.0000
  C   C48       1.0  0.21467  0.13303  0.83006  1.0000
  C   C49       1.0  0.16597  0.12845  0.81141  1.0000
  C   C50       1.0  0.13429  0.14756  0.79315  1.0000
  H   H64       1.0  0.21330  0.19456  0.81111  1.0000
  H   H65       1.0  0.26844  0.16105  0.84466  1.0000
  H   H66       1.0  0.15260  0.10991  0.81088  1.0000
  H   H67       1.0  0.09711  0.14358  0.77868  1.0000
  H   H68       1.0  0.29983  0.21910  0.91860  1.0000
  C   C51       1.0  0.03635  0.30739  0.93927  1.0000
  C   C52       1.0  0.15298  0.25205  0.81557  1.0000
  H   H69       1.0  0.16199  0.28178  0.77505  1.0000
  H   H70       1.0  0.38836  0.16605  0.80414  1.0000
  C   C53       1.0  0.01462  0.29641  0.85391  1.0000
  H   H71       1.0  0.34166  0.11337  0.62779  1.0000
  C   C54       1.0  0.46562  0.11482  0.77169  1.0000
  H   H72       1.0  0.16356  0.23260  0.81939  1.0000
  H   H73       1.0  0.21694  0.27002  0.80904  1.0000
  N   N3        1.0  0.28766  0.11914  0.72699  1.0000
  C   C55       1.0  0.24663  0.13313  0.69826  1.0000
  C   C56       1.0  0.32010  0.11131  0.70334  1.0000
  C   C57       1.0  0.26765  0.09610  0.74022  1.0000
  C   C58       1.0  0.31449  0.13351  0.76522  1.0000
  C   C59       1.0  0.31733  0.16178  0.76022  1.0000
  C   C60       1.0  0.20552  0.13836  0.71560  1.0000
  C   C61       1.0  0.30416  0.07708  0.76521  1.0000
  C   C62       1.0  0.34349  0.13185  0.68490  1.0000
  C   C63       1.0  0.35234  0.17351  0.79849  1.0000
  C   C64       1.0  0.17299  0.15847  0.69104  1.0000
  C   C65       1.0  0.27999  0.05651  0.78181  1.0000
  H   H74       1.0  0.23113  0.12285  0.66880  1.0000
  H   H75       1.0  0.25829  0.15087  0.68869  1.0000
  H   H76       1.0  0.35045  0.10071  0.72368  1.0000
  H   H77       1.0  0.30077  0.09873  0.67774  1.0000
  H   H78       1.0  0.24357  0.08645  0.71270  1.0000
  H   H79       1.0  0.24558  0.10080  0.75997  1.0000
  H   H80       1.0  0.29865  0.13059  0.79042  1.0000
  H   H81       1.0  0.35120  0.12643  0.77826  1.0000
  H   H82       1.0  0.28235  0.17016  0.75594  1.0000
  H   H83       1.0  0.32825  0.16703  0.73325  1.0000
  H   H84       1.0  0.18370  0.12154  0.71392  1.0000
  H   H85       1.0  0.21911  0.14404  0.74837  1.0000
  H   H86       1.0  0.33110  0.08593  0.79168  1.0000
  H   H87       1.0  0.32226  0.06823  0.74526  1.0000
  H   H88       1.0  0.31769  0.14543  0.66677  1.0000
  H   H89       1.0  0.37103  0.14132  0.71021  1.0000
  C   C66       1.0  0.00044  0.29254  0.59627  1.0000
  H   H90       1.0  0.00982  0.25890  0.87195  1.0000
  S   S9        1.0  0.44815  0.16036  0.98187  1.0000
  H   H91       1.0  0.34112  0.17012  0.82612  1.0000
  H   H92       1.0  0.19233  0.17622  0.69429  1.0000
  H   H93       1.0  0.15859  0.15352  0.65779  1.0000
  H   H94       1.0  0.14293  0.16083  0.70318  1.0000
  H   H95       1.0  0.26315  0.06385  0.80394  1.0000
  H   H96       1.0  0.25271  0.04720  0.75608  1.0000
  H   H97       1.0  0.30660  0.04276  0.79833  1.0000
  H   H98       1.0  0.05054  0.21672  0.86945  1.0000
  H   H99       1.0  0.17866  0.30299  0.91356  1.0000
  C   C67       1.0  0.02771  0.28309  0.92495  1.0000
  C   C68       1.0  0.08358  0.21529  0.89601  1.0000
  H   H100      1.0  0.11522  0.25154  0.79596  1.0000
  H   H101      1.0  0.03838  0.28238  0.50841  1.0000
  H   H102      1.0  0.39310  0.10652  0.67157  1.0000
  N   N4        1.0  0.15771  0.26360  0.85677  1.0000
  H   H103      1.0  0.38835  0.13578  0.64596  1.0000
  H   H104      1.0  0.21444  0.22081  0.88243  1.0000
  H   H105      1.0  0.36420  0.01038  0.89667  1.0000
  C   C69       1.0  0.18069  0.26485  0.78956  1.0000
  H   H106      1.0  0.11537  0.30058  0.89763  1.0000
  H   H107      1.0  0.17180  0.29978  0.83660  1.0000
  H   H108      1.0  0.02504  0.28645  0.62541  1.0000
  C   C70       1.0  0.36805  0.12116  0.65583  1.0000
  H   H109      1.0  0.12141  0.26127  0.90262  1.0000
  C   C71       1.0  0.01672  0.27762  0.88253  1.0000
  H   H110      1.0  0.08503  0.25539  0.85090  1.0000
  S   S10       1.0  0.05148  0.31292  0.99325  1.0000
  C   C72       1.0  0.18409  0.24848  0.75446  1.0000
  H   H111      1.0  0.44777  0.02303  0.51406  1.0000
  S   S11       1.0  0.40558  0.03064  0.97849  1.0000
  H   H112      1.0  0.08880  0.19572  0.90546  1.0000
  C   C73       1.0  0.20684  0.26122  0.88753  1.0000
  S   S12       1.0  0.46346  0.07795  0.82845  1.0000
  H   H113      1.0  0.15776  0.22130  0.91067  1.0000
  H   H114      1.0  0.24658  0.23885  0.85662  1.0000
  H   H115      1.0  0.35970  0.01220  0.84258  1.0000
  H   H116      1.0  0.20281  0.25842  0.73573  1.0000
  H   H117      1.0  0.35369  0.19363  0.79381  1.0000
  H   H118      1.0  0.14820  0.24337  0.73387  1.0000
  H   H119      1.0  0.20390  0.23151  0.76699  1.0000
  S   S13       1.0  0.00476  0.29054  0.80057  1.0000
  H   H120      1.0  0.45523  0.01785  0.92109  1.0000
  H   H121      1.0  0.11063  0.29265  0.82498  1.0000
  H   H122      1.0  0.04686  0.32085  0.58650  1.0000
  H   H123      1.0  0.07951  0.22610  0.92210  1.0000
  H   H124      1.0  0.44294  0.02594  0.86888  1.0000
  C   C74       1.0  0.27978  0.23556  0.92210  1.0000
  H   H125      1.0  0.20523  0.26231  0.91967  1.0000
  H   H126      1.0  0.12719  0.21351  0.85710  1.0000
  H   H127      1.0  0.22950  0.27701  0.88455  1.0000
  S   S14       1.0  0.46682  0.09115  0.94383  1.0000
  S   S15       1.0  0.99098  0.21560  0.78329  1.0000
  Fe  Fe7       1.0  0.98903  0.25499  0.76288  1.0000
  H   H128      1.0  0.46807  0.00686  0.74730  1.0000
  C   C75       1.0  0.45540  0.01041  0.89098  1.0000
  C   C76       1.0  0.36779  0.99994  0.87004  1.0000
  H   H129      1.0  0.21300  0.32737  0.97637  1.0000
  H   H130      1.0  0.45094  0.12689  0.78938  1.0000
  C   C77       1.0  0.46001  0.00504  0.50931  1.0000
  H   H131      1.0  0.44128  0.00773  0.80816  1.0000
  C   C78       1.0  0.03362  0.32623  0.91060  1.0000
  C   C79       1.0  0.98157  0.31972  0.53567  1.0000
  H   H132      1.0  0.11209  0.25761  0.99358  1.0000
  H   H133      1.0  0.13022  0.21274  0.99418  1.0000
  H   H134      1.0  0.46925  0.14277  0.72751  1.0000
  C   C80       1.0  0.47621  0.12378  0.73665  1.0000
  H   H135      1.0  0.07150  0.21866  0.99578  1.0000
  C   C81       1.0  0.06054  0.56063  0.45913  1.0000
  Fe  Fe8       1.0  0.05391  0.36710  0.11271  1.0000
  S   S16       1.0  0.11123  0.39563  0.12137  1.0000
  H   H136      1.0  0.98528  0.62378  0.28750  1.0000
  Fe  Fe9       1.0  0.06670  0.34822  0.03160  1.0000
  S   S17       1.0  0.12276  0.37660  0.03432  1.0000
  Fe  Fe10      1.0  0.15303  0.36639  0.10185  1.0000
  S   S18       1.0  0.23357  0.36043  0.12374  1.0000
  Fe  Fe11      1.0  0.07633  0.40369  0.05332  1.0000
  H   H137      1.0  0.06948  0.39128  0.41578  1.0000
  H   H138      1.0  0.07431  0.49722  0.02764  1.0000
  C   C82       1.0  0.43176  0.35123  0.24684  1.0000
  S   S19       1.0  0.07025  0.44480  0.03540  1.0000
  S   S20       1.0  0.01781  0.37592  0.04525  1.0000
  H   H139      1.0  0.12819  0.44302  0.18507  1.0000
  C   C83       1.0  0.03593  0.57300  0.41662  1.0000
  H   H140      1.0  0.02780  0.60320  0.35236  1.0000
  C   C84       1.0  0.11375  0.55853  0.46750  1.0000
  C   C85       1.0  0.09825  0.45370  0.16452  1.0000
  H   H141      1.0  0.01512  0.45959  0.10665  1.0000
  C   C86       1.0  0.19315  0.33483  0.99607  1.0000
  C   C87       1.0  0.40604  0.36481  0.27305  1.0000
  H   H142      1.0  0.12978  0.57698  0.46730  1.0000
  H   H143      1.0  0.01081  0.47560  0.15006  1.0000
  C   C88       1.0  0.04006  0.37965  0.22755  1.0000
  H   H144      1.0  0.42166  0.33143  0.24592  1.0000
  H   H145      1.0  0.07177  0.38344  0.21967  1.0000
  S   S21       1.0  0.99686  0.38864  0.32841  1.0000
  C   C89       1.0  0.00075  0.46702  0.48707  1.0000
  C   C90       1.0  0.00119  0.36862  0.19844  1.0000
  H   H146      1.0  0.99295  0.46739  0.20870  1.0000
  H   H147      1.0  0.10074  0.45343  0.13268  1.0000
  H   H148      1.0  0.34826  0.33833  0.26312  1.0000
  H   H149      1.0  0.05036  0.42299  0.15504  1.0000
  H   H150      1.0  0.01059  0.44949  0.47779  1.0000
  S   S22       1.0  0.05027  0.63323  0.47161  1.0000
  S   S23       1.0  0.09829  0.33743  0.09862  1.0000
  H   H151      1.0  0.05526  0.57194  0.48421  1.0000
  H   H152      1.0  0.33559  0.36847  0.27780  1.0000
  C   C91       1.0  0.31568  0.33356  0.14966  1.0000
  C   C92       1.0  0.35342  0.35827  0.25901  1.0000
  S   S24       1.0  0.00162  0.36026  0.14832  1.0000
  C   C93       1.0  0.03805  0.38553  0.26717  1.0000
  H   H153      1.0  0.06839  0.39395  0.28956  1.0000
  H   H154      1.0  0.47343  0.38985  0.23242  1.0000
  H   H155      1.0  0.12124  0.54675  0.44395  1.0000
  C   C94       1.0  0.05154  0.44228  0.16511  1.0000
  C   C95       1.0  0.05660  0.34159  0.39843  1.0000
  H   H156      1.0  0.06441  0.34823  0.37049  1.0000
  H   H157      1.0  0.40868  0.38491  0.26896  1.0000
  H   H158      1.0  0.10145  0.47292  0.17567  1.0000
  H   H159      1.0  0.44446  0.34015  0.17132  1.0000
  H   H160      1.0  0.01049  0.52071  0.40665  1.0000
  H   H161      1.0  0.12031  0.38120  0.40282  1.0000
  C   C96       1.0  0.10264  0.38063  0.42696  1.0000
  C   C97       1.0  0.26969  0.33623  0.15195  1.0000
  C   C98       1.0  0.99713  0.38067  0.27805  1.0000
  H   H162      1.0  0.04650  0.54210  0.46162  1.0000
  H   H163      1.0  0.42052  0.36003  0.30632  1.0000
  H   H164      1.0  0.05172  0.44223  0.19771  1.0000
  H   H165      1.0  0.02134  0.34935  0.39540  1.0000
  C   C99       1.0  0.02504  0.46688  0.01339  1.0000
  H   H166      1.0  0.41553  0.35836  0.21486  1.0000
  H   H167      1.0  0.05192  0.64891  0.39192  1.0000
  H   H168      1.0  0.33640  0.36330  0.22598  1.0000
  H   H169      1.0  0.32776  0.34584  0.13004  1.0000
  C   C100      1.0  0.02523  0.65932  0.44110  1.0000
  H   H170      1.0  0.04989  0.59216  0.42061  1.0000
  C   C101      1.0  0.00884  0.45685  0.13693  1.0000
  H   H171      1.0  0.04989  0.56464  0.39321  1.0000
  N   N5        1.0  0.98241  0.57301  0.40110  1.0000
  C   C102      1.0  0.03772  0.49186  0.01356  1.0000
  H   H172      1.0  0.12618  0.38951  0.45538  1.0000
  C   C103      1.0  0.09247  0.35413  0.43656  1.0000
  S   S25       1.0  0.97897  0.39583  0.42964  1.0000
  H   H173      1.0  0.07783  0.35446  0.46271  1.0000
  H   H174      1.0  0.99941  0.43347  0.25789  1.0000
  C   C104      1.0  0.98948  0.59908  0.33887  1.0000
  H   H175      1.0  0.11491  0.66013  0.23407  1.0000
  H   H176      1.0  0.12676  0.34452  0.44693  1.0000
  H   H177      1.0  0.20523  0.35398  0.00441  1.0000
  H   H178      1.0  0.98530  0.33614  0.32417  1.0000
  H   H179      1.0  0.12952  0.33066  0.37023  1.0000
  H   H180      1.0  0.98110  0.40939  0.11588  1.0000
  H   H181      1.0  0.98059  0.42071  0.18313  1.0000
  H   H182      1.0  0.98520  0.58268  0.31901  1.0000
  H   H183      1.0  0.97874  0.54869  0.35022  1.0000
  H   H184      1.0  0.18340  0.32858  0.05463  1.0000
  H   H185      1.0  0.01416  0.52912  0.99644  1.0000
  H   H186      1.0  0.97697  0.59290  0.45379  1.0000
  Fe  Fe12      1.0  0.12824  0.61031  0.62347  1.0000
  S   S26       1.0  0.06706  0.63622  0.59841  1.0000
  S   S27       1.0  0.19266  0.62499  0.67611  1.0000
  Fe  Fe13      1.0  0.06887  0.56642  0.57280  1.0000
  C   C105      1.0  0.33942  0.66026  0.69196  1.0000
  S   S28       1.0  0.07042  0.52611  0.55326  1.0000
  H   H187      1.0  0.45521  0.61380  0.64096  1.0000
  Fe  Fe14      1.0  0.02223  0.60530  0.61074  1.0000
  C   C106      1.0  0.27351  0.65108  0.71749  1.0000
  S   S29       1.0  0.11989  0.59416  0.56094  1.0000
  S   S30       1.0  0.08323  0.58010  0.63826  1.0000
  N   N6        1.0  0.11663  0.65936  0.75059  1.0000
  H   H188      1.0  0.03785  0.58076  0.78163  1.0000
  H   H189      1.0  0.14839  0.58683  0.72508  1.0000
  C   C107      1.0  0.01904  0.52085  0.76282  1.0000
  Fe  Fe15      1.0  0.05610  0.61850  0.53632  1.0000
  H   H190      1.0  0.19320  0.66081  0.77619  1.0000
  H   H191      1.0  0.99041  0.44787  0.58113  1.0000
  C   C108      1.0  0.97753  0.46035  0.99486  1.0000
  H   H192      1.0  0.03277  0.58658  0.70785  1.0000
  H   H193      1.0  0.33009  0.64685  0.63049  1.0000
  C   C109      1.0  0.00492  0.59319  0.71881  1.0000
  H   H194      1.0  0.17480  0.57801  0.77835  1.0000
  C   C110      1.0  0.14647  0.58919  0.75682  1.0000
  H   H195      1.0  0.11165  0.56024  0.93675  1.0000
  H   H196      1.0  0.03999  0.34499  0.92110  1.0000
  H   H197      1.0  0.15474  0.33511  0.97850  1.0000
  C   C111      1.0  0.40268  0.58934  0.64927  1.0000
  C   C112      1.0  0.24822  0.63923  0.68025  1.0000
  C   C113      1.0  0.07286  0.55808  0.92229  1.0000
  C   C114      1.0  0.26873  0.63821  0.64870  1.0000
  H   H198      1.0  0.05651  0.39859  0.51114  1.0000
  H   H199      1.0  0.06116  0.57038  0.89485  1.0000
  C   C115      1.0  0.06091  0.53139  0.90974  1.0000
  H   H200      1.0  0.07110  0.44026  0.90826  1.0000
  S   S31       1.0  0.00012  0.34276  0.50708  1.0000
  H   H201      1.0  0.11188  0.58230  0.75803  1.0000
  H   H202      1.0  0.11774  0.63048  0.70796  1.0000
  C   C116      1.0  0.11515  0.63251  0.73963  1.0000
  H   H203      1.0  0.03924  0.43274  0.55211  1.0000
  H   H204      1.0  0.05557  0.56359  0.94521  1.0000
  H   H205      1.0  0.14392  0.65630  0.81735  1.0000
  C   C117      1.0  0.14127  0.33310  0.87689  1.0000
  H   H206      1.0  0.01115  0.38551  0.70483  1.0000
  H   H207      1.0  0.00395  0.41827  0.70901  1.0000
  C   C118      1.0  0.15364  0.61612  0.76942  1.0000
  H   H208      1.0  0.08126  0.52592  0.88917  1.0000
  H   H209      1.0  0.05510  0.48408  0.90366  1.0000
  C   C119      1.0  0.45330  0.59934  0.66344  1.0000
  H   H210      1.0  0.07278  0.47830  0.51886  1.0000
  S   S32       1.0  0.00540  0.59003  0.54611  1.0000
  H   H211      1.0  0.08071  0.62411  0.73756  1.0000
  H   H212      1.0  0.25863  0.65163  0.74246  1.0000
  H   H213      1.0  0.06120  0.41479  0.59873  1.0000
  H   H214      1.0  0.07315  0.52013  0.93844  1.0000
  C   C120      1.0  0.00703  0.52746  0.88846  1.0000
  C   C121      1.0  0.01595  0.48306  0.89538  1.0000
  C   C122      1.0  0.98505  0.40060  0.69914  1.0000
  H   H215      1.0  0.15277  0.61741  0.80160  1.0000
  C   C123      1.0  0.03420  0.43767  0.90833  1.0000
  H   H216      1.0  0.17311  0.33998  0.87006  1.0000
  C   C124      1.0  0.00365  0.51005  0.99574  1.0000
  H   H217      1.0  0.10950  0.33655  0.84967  1.0000
  C   C125      1.0  0.07354  0.39967  0.54518  1.0000
  H   H218      1.0  0.98999  0.52906  0.91301  1.0000
  H   H219      1.0  0.18936  0.62137  0.76879  1.0000
  H   H220      1.0  0.03798  0.64523  0.67570  1.0000
  C   C126      1.0  0.00915  0.50182  0.82788  1.0000
  C   C127      1.0  0.46658  0.60963  0.70811  1.0000
  C   C128      1.0  0.07080  0.65391  0.84605  1.0000
  H   H221      1.0  0.05261  0.51079  0.76791  1.0000
  H   H222      1.0  0.10161  0.64355  0.86605  1.0000
  H   H223      1.0  0.10816  0.40915  0.55149  1.0000
  H   H224      1.0  0.39873  0.57415  0.66982  1.0000
  H   H225      1.0  0.06345  0.63220  0.79269  1.0000
  H   H226      1.0  0.01268  0.42075  0.63931  1.0000
  H   H227      1.0  0.00909  0.38886  0.62953  1.0000
  H   H228      1.0  0.13027  0.55011  0.49848  1.0000
  C   C129      1.0  0.06776  0.65190  0.80059  1.0000
  H   H229      1.0  0.46127  0.59427  0.72780  1.0000
  S   S33       1.0  0.97743  0.59330  0.82840  1.0000
  H   H230      1.0  0.02075  0.33543  0.84623  1.0000
  H   H231      1.0  0.39372  0.58222  0.61722  1.0000
  H   H232      1.0  0.98633  0.48853  0.80543  1.0000
  H   H233      1.0  0.04543  0.49409  0.83627  1.0000
  C   C130      1.0  0.98713  0.40570  0.62555  1.0000
  C   C131      1.0  0.03601  0.48345  0.51038  1.0000
  H   H234      1.0  0.97833  0.53690  0.79744  1.0000
  H   H235      1.0  0.98921  0.50993  0.74237  1.0000
  H   H236      1.0  0.00253  0.45386  0.84824  1.0000
  C   C132      1.0  0.00749  0.58977  0.76051  1.0000
  C   C133      1.0  0.04247  0.41388  0.56496  1.0000
  H   H237      1.0  0.07981  0.38078  0.55808  1.0000
  C   C134      1.0  0.99298  0.40166  0.55556  1.0000
  C   C135      1.0  0.02423  0.50642  0.52288  1.0000
  H   H238      1.0  0.43939  0.62350  0.70803  1.0000
  H   H239      1.0  0.25011  0.62905  0.62001  1.0000
  H   H240      1.0  0.04055  0.53792  0.82241  1.0000
  N   N7        1.0  0.99319  0.50350  0.86565  1.0000
  C   C136      1.0  0.03177  0.65962  0.69617  1.0000
  H   H241      1.0  0.03343  0.43935  0.94055  1.0000
  H   H242      1.0  0.99963  0.38174  0.56129  1.0000
  H   H243      1.0  0.13746  0.34351  0.90349  1.0000
  H   H244      1.0  0.01679  0.65066  0.71835  1.0000
  H   H245      1.0  0.02235  0.41886  0.89731  1.0000
  C   C137      1.0  0.31423  0.64834  0.65479  1.0000
  H   H246      1.0  0.00820  0.48517  0.92497  1.0000
  C   C138      1.0  0.01101  0.52605  0.80406  1.0000
  H   H247      1.0  0.37730  0.60409  0.64946  1.0000
  H   H248      1.0  0.02122  0.53837  0.74674  1.0000
  H   H249      1.0  0.03828  0.64591  0.85033  1.0000
  H   H250      1.0  0.99329  0.54339  0.86789  1.0000
  C   C139      1.0  0.00146  0.45650  0.88015  1.0000
  H   H251      1.0  0.47666  0.60732  0.79099  1.0000
  Fe  Fe16      1.0  0.41724  0.84517  0.45843  1.0000
  S   S34       1.0  0.35662  0.86896  0.45924  1.0000
  Fe  Fe17      1.0  0.41864  0.86689  0.37449  1.0000
  S   S35       1.0  0.35709  0.89151  0.37029  1.0000
  H   H252      1.0  0.35336  0.90527  0.09328  1.0000
  Fe  Fe18      1.0  0.39446  0.89986  0.43777  1.0000
  S   S36       1.0  0.39804  0.93957  0.46218  1.0000
  Fe  Fe19      1.0  0.32452  0.85843  0.39182  1.0000
  S   S37       1.0  0.24437  0.85011  0.36910  1.0000
  H   H253      1.0  0.11660  0.68506  0.03536  1.0000
  S   S38       1.0  0.38412  0.83325  0.39196  1.0000
  H   H254      1.0  0.99488  0.77560  0.06712  1.0000
  S   S39       1.0  0.01874  0.71890  0.26976  1.0000
  H   H255      1.0  0.42990  0.91863  0.16539  1.0000
  Fe  Fe20      1.0  0.03039  0.75732  0.25017  1.0000
  S   S40       1.0  0.10797  0.76718  0.25828  1.0000
  H   H256      1.0  0.03095  0.82873  0.39027  1.0000
  C   C140      1.0  0.14551  0.78973  0.29088  1.0000
  C   C141      1.0  0.19482  0.78832  0.29942  1.0000
  C   C142      1.0  0.22566  0.80640  0.32346  1.0000
  C   C143      1.0  0.20759  0.82627  0.33928  1.0000
  C   C144      1.0  0.15833  0.82742  0.33128  1.0000
  C   C145      1.0  0.12753  0.80933  0.30732  1.0000
  H   H257      1.0  0.20938  0.77320  0.28728  1.0000
  H   H258      1.0  0.26337  0.80508  0.32944  1.0000
  H   H259      1.0  0.14381  0.84268  0.34319  1.0000
  H   H260      1.0  0.08976  0.81092  0.30063  1.0000
  C   C146      1.0  0.41638  0.86840  0.25050  1.0000
  C   C147      1.0  0.08055  0.68943  0.03589  1.0000
  C   C148      1.0  0.09747  0.69784  0.21336  1.0000
  H   H261      1.0  0.37656  0.90632  0.01162  1.0000
  C   C149      1.0  0.44185  0.96265  0.48420  1.0000
  H   H262      1.0  0.43501  0.91977  0.24082  1.0000
  C   C150      1.0  0.00504  0.76476  0.09629  1.0000
  H   H263      1.0  0.38476  0.86818  0.25948  1.0000
  H   H264      1.0  0.06902  0.71103  0.21199  1.0000
  H   H265      1.0  0.46243  0.97067  0.10268  1.0000
  H   H266      1.0  0.21120  0.78535  0.16852  1.0000
  H   H267      1.0  0.13550  0.71562  0.41605  1.0000
  H   H268      1.0  0.12997  0.76936  0.15078  1.0000
  C   C151      1.0  0.03166  0.66229  0.40220  1.0000
  H   H269      1.0  0.08929  0.79936  0.43330  1.0000
  C   C152      1.0  0.40893  0.93488  0.23261  1.0000
  C   C153      1.0  0.20405  0.76785  0.18234  1.0000
  C   C154      1.0  0.07682  0.77004  0.38628  1.0000
  C   C155      1.0  0.11345  0.72933  0.39420  1.0000
  H   H270      1.0  0.43777  0.91536  0.10045  1.0000
  C   C156      1.0  0.13649  0.73225  0.35983  1.0000
  H   H271      1.0  0.40546  0.96746  0.33895  1.0000
  H   H272      1.0  0.25036  0.77221  0.44118  1.0000
  H   H273      1.0  0.04412  0.76044  0.36704  1.0000
  H   H274      1.0  0.09351  0.77678  0.36346  1.0000
  H   H275      1.0  0.07807  0.72061  0.38008  1.0000
  H   H276      1.0  0.04626  0.73979  0.43110  1.0000
  H   H277      1.0  0.11551  0.74469  0.33520  1.0000
  C   C157      1.0  0.41294  0.86825  0.20815  1.0000
  H   H278      1.0  0.08832  0.67148  0.09384  1.0000
  C   C158      1.0  0.45370  0.86854  0.19580  1.0000
  C   C159      1.0  0.14766  0.73169  0.17241  1.0000
  H   H279      1.0  0.45824  0.97777  0.15176  1.0000
  C   C160      1.0  0.13963  0.70755  0.34004  1.0000
  H   H280      1.0  0.06925  0.70730  0.02022  1.0000
  H   H281      1.0  0.07390  0.82076  0.36574  1.0000
  N   N8        1.0  0.41174  0.94826  0.12030  1.0000
  C   C161      1.0  0.45796  0.96212  0.13092  1.0000
  H   H282      1.0  0.45249  0.95759  0.20827  1.0000
  S   S41       1.0  0.46812  0.87015  0.33500  1.0000
  H   H283      1.0  0.17317  0.73924  0.37271  1.0000
  H   H284      1.0  0.01719  0.68433  0.34650  1.0000
  H   H285      1.0  0.01643  0.77772  0.12271  1.0000
  H   H286      1.0  0.37546  0.98097  0.12854  1.0000
  C   C162      1.0  0.36582  0.89714  0.03644  1.0000
  C   C163      1.0  0.06059  0.79244  0.40607  1.0000
  N   N9        1.0  0.10844  0.75233  0.41676  1.0000
  H   H287      1.0  0.38839  0.93608  0.32322  1.0000
  H   H288      1.0  0.03044  0.78689  0.41672  1.0000
  C   C164      1.0  0.01201  0.68239  0.37634  1.0000
  C   C165      1.0  0.99903  0.67681  0.45400  1.0000
  C   C166      1.0  0.08364  0.74518  0.44757  1.0000
  S   S42       1.0  0.44756  0.86862  0.14203  1.0000
  H   H289      1.0  0.09808  0.70609  0.46125  1.0000
  C   C167      1.0  0.37196  0.96637  0.10512  1.0000
  H   H290      1.0  0.08158  0.76118  0.46697  1.0000
  H   H291      1.0  0.38015  0.94814  0.36945  1.0000
  H   H292      1.0  0.15273  0.71044  0.31331  1.0000
  C   C168      1.0  0.15881  0.75606  0.15384  1.0000
  C   C169      1.0  0.11515  0.70918  0.10703  1.0000
  C   C170      1.0  0.07948  0.69013  0.08035  1.0000
  C   C171      1.0  0.15643  0.76319  0.43988  1.0000
  H   H293      1.0  0.11661  0.72508  0.08708  1.0000
  C   C172      1.0  0.06071  0.73172  0.13755  1.0000
  H   H294      1.0  0.03208  0.73534  0.06968  1.0000
  H   H295      1.0  0.08315  0.67662  0.26226  1.0000
  H   H296      1.0  0.99367  0.67478  0.48376  1.0000
  C   C173      1.0  0.41046  0.92956  0.08759  1.0000
  H   H297      1.0  0.06343  0.74410  0.16412  1.0000
  H   H298      1.0  0.15610  0.77191  0.46923  1.0000
  N   N10       1.0  0.10572  0.71712  0.14599  1.0000
  H   H299      1.0  0.41420  0.94648  0.26033  1.0000
  C   C174      1.0  0.04513  0.74736  0.09715  1.0000
  H   H300      1.0  0.03024  0.71945  0.13602  1.0000
  H   H301      1.0  0.16377  0.75334  0.12334  1.0000
  H   H302      1.0  0.07441  0.75860  0.09325  1.0000
  H   H303      1.0  0.37272  0.92689  0.22366  1.0000
  H   H304      1.0  0.10447  0.69847  0.32892  1.0000
  H   H305      1.0  0.18000  0.72013  0.18110  1.0000
  H   H306      1.0  0.07010  0.68321  0.15221  1.0000
  H   H307      1.0  0.05232  0.66578  0.21103  1.0000
  C   C175      1.0  0.36288  0.91564  0.06895  1.0000
  H   H308      1.0  0.04293  0.69411  0.07953  1.0000
  C   C176      1.0  0.40650  0.93493  0.15757  1.0000
  H   H309      1.0  0.20015  0.77199  0.21294  1.0000
  H   H310      1.0  0.16452  0.69528  0.36274  1.0000
  S   S43       1.0  0.45701  0.87662  0.44124  1.0000
  C   C177      1.0  0.41576  0.95038  0.19743  1.0000
  C   C178      1.0  0.22846  0.78869  0.44020  1.0000
  H   H311      1.0  0.15687  0.80057  0.41483  1.0000
  H   H312      1.0  0.37846  0.86778  0.18483  1.0000
  H   H313      1.0  0.39104  0.96601  0.19205  1.0000
  C   C179      1.0  0.10186  0.69410  0.16974  1.0000
  H   H314      1.0  0.24127  0.80356  0.42395  1.0000
  H   H315      1.0  0.18314  0.74836  0.44995  1.0000
  H   H316      1.0  0.15088  0.70082  0.11489  1.0000
  H   H317      1.0  0.23309  0.79484  0.47224  1.0000
  H   H318      1.0  0.39161  0.88256  0.05105  1.0000
  C   C180      1.0  0.45292  0.93963  0.37578  1.0000
  H   H319      1.0  0.13292  0.68205  0.17340  1.0000
  H   H320      1.0  0.33732  0.95738  0.10172  1.0000
  H   H321      1.0  0.13112  0.70482  0.23531  1.0000
  H   H322      1.0  0.14235  0.73712  0.20198  1.0000
  C   C181      1.0  0.40380  0.94840  0.35006  1.0000
  H   H323      1.0  0.23474  0.75556  0.18678  1.0000
  C   C182      1.0  0.10615  0.72392  0.47774  1.0000
  H   H324      1.0  0.17378  0.77790  0.38513  1.0000
  C   C183      1.0  0.17648  0.78317  0.41704  1.0000
  C   C184      1.0  0.42706  0.98631  0.49074  1.0000
  H   H325      1.0  0.05569  0.67503  0.01842  1.0000
  H   H326      1.0  0.37018  0.92720  0.15043  1.0000
  H   H327      1.0  0.42042  0.93808  0.06185  1.0000
  H   H328      1.0  0.33381  0.92842  0.05364  1.0000
  H   H329      1.0  0.14507  0.72617  0.49067  1.0000
  H   H330      1.0  0.01501  0.80753  0.34774  1.0000
  H   H331      1.0  0.36457  0.96671  0.03833  1.0000
  C   C185      1.0  0.04414  0.81359  0.37541  1.0000
  C   C186      1.0  0.43970  0.98377  0.99913  1.0000
  C   C187      1.0  0.08632  0.67358  0.23114  1.0000
  C   C188      1.0  0.46076  0.86885  0.28104  1.0000
  H   H332      1.0  0.33078  0.88830  0.02228  1.0000
  C   C189      1.0  0.98584  0.69992  0.38921  1.0000
  H   H333      1.0  0.44912  0.92075  0.38672  1.0000
  H   H334      1.0  0.38966  0.99022  0.48145  1.0000
  C   C190      1.0  0.36842  0.97981  0.06391  1.0000
  H   H335      1.0  0.46457  0.94672  0.01616  1.0000
  H   H336      1.0  0.46545  0.95137  0.40338  1.0000
  H   H337      1.0  0.47381  0.92393  0.32761  1.0000
  C   C191      1.0  0.97957  0.69700  0.42819  1.0000
  C   C192      1.0  0.47376  0.96600  0.01885  1.0000
  H   H338      1.0  0.40020  0.99136  0.06734  1.0000
  H   H339      1.0  0.29244  0.98616  0.04498  1.0000
  S   S44       1.0  0.97790  0.77411  0.27681  1.0000
  H   H340      1.0  0.28701  0.81582  0.79884  1.0000
  S   S45       1.0  0.42196  0.73736  0.75470  1.0000
  H   H341      1.0  0.24876  0.69590  0.77739  1.0000
  Fe  Fe21      1.0  0.44556  0.70101  0.73828  1.0000
  C   C193      1.0  0.36388  0.79787  0.74694  1.0000
  C   C194      1.0  0.42996  0.81144  0.80618  1.0000
  H   H342      1.0  0.43597  0.82587  0.74689  1.0000
  H   H343      1.0  0.11104  0.68312  0.79933  1.0000
  H   H344      1.0  0.34065  0.76670  0.67909  1.0000
  H   H345      1.0  0.33746  0.67052  0.75214  1.0000
  H   H346      1.0  0.10061  0.70614  0.53313  1.0000
  C   C195      1.0  0.37523  0.79570  0.86479  1.0000
  C   C196      1.0  0.21955  0.70529  0.75350  1.0000
  H   H347      1.0  0.00717  0.68552  0.64485  1.0000
  C   C197      1.0  0.27981  0.85467  0.79048  1.0000
  C   C198      1.0  0.30954  0.77470  0.68543  1.0000
  H   H348      1.0  0.39536  0.83395  0.55481  1.0000
  C   C199      1.0  0.07886  0.67328  0.71779  1.0000
  H   H349      1.0  0.37562  0.92862  0.58332  1.0000
  H   H350      1.0  0.14414  0.70792  0.73331  1.0000
  H   H351      1.0  0.33019  0.91682  0.51049  1.0000
  C   C200      1.0  0.47080  0.92530  0.62013  1.0000
  C   C201      1.0  0.41714  0.81333  0.61240  1.0000
  C   C202      1.0  0.36271  0.77483  0.88967  1.0000
  H   H352      1.0  0.39382  0.78768  0.74226  1.0000
  H   H353      1.0  0.09629  0.73911  0.53340  1.0000
  H   H354      1.0  0.43493  0.88470  0.64335  1.0000
  H   H355      1.0  0.37074  0.78053  0.92242  1.0000
  H   H356      1.0  0.36087  0.84459  0.77085  1.0000
  H   H357      1.0  0.47370  0.98786  0.59702  1.0000
  H   H358      1.0  0.41266  0.80061  0.88045  1.0000
  H   H359      1.0  0.41802  0.91168  0.53646  1.0000
  C   C203      1.0  0.35334  0.83116  0.79266  1.0000
  H   H360      1.0  0.29372  0.85875  0.82413  1.0000
  H   H361      1.0  0.32047  0.88664  0.52888  1.0000
  N   N11       1.0  0.37714  0.80712  0.79106  1.0000
  C   C204      1.0  0.32110  0.78003  0.73161  1.0000
  C   C205      1.0  0.32728  0.90624  0.53758  1.0000
  H   H362      1.0  0.24064  0.85373  0.78118  1.0000
  H   H363      1.0  0.29667  0.91330  0.54574  1.0000
  H   H364      1.0  0.32954  0.76220  0.74822  1.0000
  H   H365      1.0  0.38388  0.75828  0.88902  1.0000
  H   H366      1.0  0.38739  0.77113  0.81934  1.0000
  H   H367      1.0  0.09205  0.67878  0.69181  1.0000
  H   H368      1.0  0.17054  0.66459  0.72147  1.0000
  C   C206      1.0  0.36639  0.78799  0.81915  1.0000
  H   H369      1.0  0.42336  0.97691  0.90680  1.0000
  C   C207      1.0  0.99455  0.67698  0.66911  1.0000
  H   H370      1.0  0.44250  0.97358  0.62853  1.0000
  C   C208      1.0  0.37238  0.90900  0.57447  1.0000
  H   H371      1.0  0.36856  0.83965  0.82377  1.0000
  S   S46       1.0  0.39861  0.67052  0.69930  1.0000
  H   H372      1.0  0.40829  0.88155  0.55081  1.0000
  S   S47       1.0  0.47631  0.74380  0.87723  1.0000
  H   H373      1.0  0.39291  0.82252  0.62500  1.0000
  H   H374      1.0  0.32896  0.78196  0.80758  1.0000
  H   H375      1.0  0.32455  0.77011  0.87701  1.0000
  C   C209      1.0  0.29892  0.83022  0.78128  1.0000
  C   C210      1.0  0.41857  0.81994  0.57265  1.0000
  H   H376      1.0  0.35778  0.81349  0.72467  1.0000
  H   H377      1.0  0.36772  0.89804  0.60039  1.0000
  C   C211      1.0  0.45052  0.80858  0.55633  1.0000
  H   H378      1.0  0.46872  0.76008  0.95495  1.0000
  Fe  Fe22      1.0  0.47398  0.75442  0.72672  1.0000
  S   S48       1.0  0.44653  0.78880  0.68729  1.0000
  H   H379      1.0  0.22158  0.70076  0.72237  1.0000
  H   H380      1.0  0.35314  0.81161  0.86660  1.0000
  H   H381      1.0  0.45118  0.86334  0.61214  1.0000
  C   C212      1.0  0.44933  0.82987  0.78045  1.0000
  H   H382      1.0  0.28902  0.78736  0.73669  1.0000
  H   H383      1.0  0.29912  0.79176  0.66689  1.0000
  H   H384      1.0  0.28282  0.82679  0.74764  1.0000
  H   H385      1.0  0.27987  0.76132  0.67544  1.0000
  N   N12       1.0  0.46281  0.90108  0.59785  1.0000
  H   H386      1.0  0.07039  0.69069  0.73067  1.0000
  C   C213      1.0  0.41619  0.90047  0.56327  1.0000
  H   H387      1.0  0.28987  0.86980  0.77290  1.0000
  H   H388      1.0  0.43902  0.84885  0.78520  1.0000
  S   S49       1.0  0.45654  0.81723  0.50775  1.0000
  H   H389      1.0  0.07376  0.67339  0.85588  1.0000
  H   H390      1.0  0.44189  0.81871  0.83822  1.0000
  H   H391      1.0  0.41847  0.97890  0.85293  1.0000
  C   C214      1.0  0.17164  0.69748  0.75700  1.0000
  C   C215      1.0  0.44688  0.79496  0.63597  1.0000
  H   H392      1.0  0.44866  0.79366  0.80749  1.0000
  C   C216      1.0  0.46223  0.88105  0.62840  1.0000
  H   H393      1.0  0.17101  0.70297  0.78809  1.0000
  H   H394      1.0  0.22443  0.72539  0.75806  1.0000
  H   H395      1.0  0.44483  0.92780  0.63698  1.0000
  C   C217      1.0  0.16414  0.66936  0.75098  1.0000
  H   H396      1.0  0.04711  0.72080  0.50213  1.0000
  H   H397      1.0  0.34159  0.98470  0.86319  1.0000
  H   H398      1.0  0.03566  0.66193  0.78237  1.0000
  C   C218      1.0  0.08623  0.72250  0.51378  1.0000
  H   H399      1.0  0.43699  0.94906  0.56588  1.0000
  C   C219      1.0  0.46986  0.94822  0.59268  1.0000
  H   H400      1.0  0.40416  0.97797  0.98188  1.0000
  C   C220      1.0  0.41758  0.98963  0.88009  1.0000
  H   H401      1.0  0.98602  0.69150  0.68821  1.0000
  H   H402      1.0  0.47102  0.86713  0.53675  1.0000
  C   C221      1.0  0.47336  0.97185  0.61729  1.0000
  H   H403      1.0  0.47284  0.97674  0.77041  1.0000
  C   C222      1.0  0.11202  0.66321  0.79293  1.0000
  C   C223      1.0  0.31840  0.66182  0.72313  1.0000
  Fe  Fe23      1.0  0.54747  0.27126  0.24477  1.0000
  C   C224      1.0  0.49736  0.09480  0.38617  1.0000
  S   S50       1.0  0.60184  0.29887  0.23568  1.0000
  C   C225      1.0  0.53120  0.99835  0.04400  1.0000
  H   H404      1.0  0.52169  0.08016  0.38330  1.0000
  S   S51       1.0  0.56453  0.23151  0.25709  1.0000
  H   H405      1.0  0.57669  0.15655  0.16474  1.0000
  H   H406      1.0  0.76582  0.21690  0.12266  1.0000
  C   C226      1.0  0.50425  0.11802  0.36334  1.0000
  H   H407      1.0  0.70998  0.21046  0.08377  1.0000
  H   H408      1.0  0.66909  0.25798  0.27672  1.0000
  C   C227      1.0  0.67860  0.23268  0.23102  1.0000
  H   H409      1.0  0.67389  0.17490  0.48406  1.0000
  H   H410      1.0  0.66922  0.25837  0.46356  1.0000
  H   H411      1.0  0.65324  0.24432  0.41328  1.0000
  H   H412      1.0  0.51299  0.29035  0.08797  1.0000
  H   H413      1.0  0.66166  0.21785  0.24395  1.0000
  C   C228      1.0  0.54229  0.19301  0.39293  1.0000
  H   H414      1.0  0.59196  0.27188  0.10537  1.0000
  H   H415      1.0  0.64075  0.29365  0.32632  1.0000
  C   C229      1.0  0.51170  0.16100  0.44524  1.0000
  Fe  Fe24      1.0  0.49576  0.22304  0.20790  1.0000
  H   H416      1.0  0.71465  0.25003  0.44145  1.0000
  C   C230      1.0  0.56734  0.26472  0.12110  1.0000
  C   C231      1.0  0.61603  0.17066  0.29881  1.0000
  H   H417      1.0  0.63817  0.15436  0.29921  1.0000
  C   C232      1.0  0.66365  0.30579  0.31607  1.0000
  C   C233      1.0  0.57410  0.17706  0.42053  1.0000
  H   H418      1.0  0.70888  0.22470  0.22380  1.0000
  H   H419      1.0  0.71374  0.26751  0.25414  1.0000
  C   C234      1.0  0.69785  0.25153  0.26535  1.0000
  C   C235      1.0  0.72860  0.22300  0.10945  1.0000
  C   C236      1.0  0.49457  0.11302  0.31655  1.0000
  C   C237      1.0  0.64185  0.24425  0.19233  1.0000
  H   H420      1.0  0.63630  0.15121  0.16431  1.0000
  H   H421      1.0  0.62691  0.18336  0.11069  1.0000
  H   H422      1.0  0.50669  0.03537  0.02634  1.0000
  C   C238      1.0  0.60053  0.15745  0.14555  1.0000
  H   H423      1.0  0.57399  0.12826  0.30929  1.0000
  C   C239      1.0  0.65349  0.23175  0.12612  1.0000
  Fe  Fe25      1.0  0.52325  0.23294  0.30169  1.0000
  H   H424      1.0  0.56677  0.18802  0.10889  1.0000
  H   H425      1.0  0.63607  0.22300  0.09556  1.0000
  C   C240      1.0  0.54934  0.14388  0.30647  1.0000
  C   C241      1.0  0.68004  0.24456  0.44461  1.0000
  C   C242      1.0  0.57393  0.23676  0.13024  1.0000
  H   H426      1.0  0.65677  0.26182  0.18487  1.0000
  C   C243      1.0  0.60267  0.18352  0.12946  1.0000
  H   H427      1.0  0.59617  0.20024  0.18501  1.0000
  H   H428      1.0  0.72592  0.23478  0.16821  1.0000
  H   H429      1.0  0.62539  0.18515  0.27974  1.0000
  H   H430      1.0  0.61046  0.17675  0.42117  1.0000
  H   H431      1.0  0.57329  0.27523  0.15011  1.0000
  H   H432      1.0  0.72865  0.24188  0.09699  1.0000
  H   H433      1.0  0.48876  0.32430  0.30416  1.0000
  H   H434      1.0  0.96383  0.31615  0.25603  1.0000
  H   H435      1.0  0.56075  0.22741  0.09976  1.0000
  H   H436      1.0  0.54323  0.18112  0.28002  1.0000
  H   H437      1.0  0.54905  0.23139  0.14729  1.0000
  C   C244      1.0  0.62009  0.20193  0.16579  1.0000
  H   H438      1.0  0.65464  0.19493  0.18568  1.0000
  H   H439      1.0  0.65649  0.25146  0.11887  1.0000
  H   H440      1.0  0.58642  0.14479  0.11898  1.0000
  H   H441      1.0  0.70684  0.20344  0.15492  1.0000
  C   C245      1.0  0.70493  0.22250  0.14313  1.0000
  C   C246      1.0  0.65304  0.31113  0.27389  1.0000
  C   C247      1.0  0.55901  0.16122  0.44674  1.0000
  H   H442      1.0  0.61227  0.24981  0.20340  1.0000
  H   H443      1.0  0.72075  0.12511  0.48149  1.0000
  N   N13       1.0  0.62348  0.22849  0.15398  1.0000
  H   H444      1.0  0.69191  0.20597  0.44323  1.0000
  C   C248      1.0  0.68294  0.21912  0.46431  1.0000
  H   H445      1.0  0.91321  0.31385  0.49048  1.0000
  H   H446      1.0  0.54106  0.12439  0.37846  1.0000
  H   H447      1.0  0.73383  0.17110  0.48779  1.0000
  H   H448      1.0  0.58361  0.14891  0.46768  1.0000
  C   C249      1.0  0.56357  0.16419  0.28045  1.0000
  H   H449      1.0  0.55748  0.15163  0.33812  1.0000
  H   H450      1.0  0.55739  0.15837  0.24804  1.0000
  H   H451      1.0  0.50510  0.09893  0.41958  1.0000
  N   N14       1.0  0.49867  0.13492  0.29046  1.0000
  H   H452      1.0  0.72543  0.24304  0.29180  1.0000
  S   S52       1.0  0.56372  0.21270  0.36122  1.0000
  H   H453      1.0  0.57843  0.01002  0.40935  1.0000
  H   H454      1.0  0.71132  0.31224  0.37784  1.0000
  H   H455      1.0  0.62397  0.17770  0.33084  1.0000
  S   S53       1.0  0.49298  0.18721  0.17275  1.0000
  C   C250      1.0  0.51725  0.27024  0.09291  1.0000
  S   S54       1.0  0.50994  0.27360  0.29229  1.0000
  C   C251      1.0  0.49733  0.01611  0.02376  1.0000
  C   C252      1.0  0.70387  0.31634  0.34530  1.0000
  C   C253      1.0  0.49504  0.19292  0.39160  1.0000
  C   C254      1.0  0.68381  0.32681  0.26143  1.0000
  H   H456      1.0  0.49069  0.26361  0.10708  1.0000
  H   H457      1.0  0.56659  0.00418  0.06166  1.0000
  H   H458      1.0  0.51038  0.26130  0.06235  1.0000
  H   H459      1.0  0.56147  0.31764  0.37308  1.0000
  S   S55       1.0  0.49023  0.14037  0.47561  1.0000
  H   H460      1.0  0.57330  0.00634  0.46030  1.0000
  H   H461      1.0  0.52052  0.12021  0.24044  1.0000
  C   C255      1.0  0.48819  0.12764  0.24561  1.0000
  H   H462      1.0  0.51928  0.09842  0.31383  1.0000
  H   H463      1.0  0.49440  0.31892  0.23367  1.0000
  H   H464      1.0  0.64737  0.21430  0.46552  1.0000
  H   H465      1.0  0.93799  0.30013  0.28999  1.0000
  C   C256      1.0  0.97183  0.30482  0.28460  1.0000
  H   H466      1.0  0.48048  0.14136  0.13018  1.0000
  H   H467      1.0  0.56830  0.32258  0.30270  1.0000
  H   H468      1.0  0.50693  0.31289  0.16225  1.0000
  H   H469      1.0  0.65906  0.13014  0.47564  1.0000
  C   C257      1.0  0.58304  0.99691  0.43540  1.0000
  C   C258      1.0  0.47981  0.17684  0.41742  1.0000
  H   H470      1.0  0.47968  0.13199  0.36795  1.0000
  S   S56       1.0  0.48105  0.26292  0.19110  1.0000
  H   H471      1.0  0.48022  0.16356  0.32576  1.0000
  H   H472      1.0  0.47852  0.14412  0.22514  1.0000
  H   H473      1.0  0.66400  0.10443  0.70231  1.0000
  S   S57       1.0  0.92275  0.24946  0.70901  1.0000
  C   C259      1.0  0.77705  0.14229  0.77642  1.0000
  Fe  Fe26      1.0  0.92760  0.20928  0.72540  1.0000
  S   S58       1.0  0.85522  0.19273  0.72316  1.0000
  H   H474      1.0  0.85767  0.19300  0.62735  1.0000
  Fe  Fe27      1.0  0.53317  0.11725  0.53081  1.0000
  S   S59       1.0  0.59097  0.09078  0.53247  1.0000
  Fe  Fe28      1.0  0.53770  0.10510  0.62034  1.0000
  S   S60       1.0  0.59623  0.07780  0.62796  1.0000
  H   H475      1.0  0.62492  0.17917  0.67021  1.0000
  Fe  Fe29      1.0  0.62862  0.10608  0.59612  1.0000
  S   S61       1.0  0.70883  0.11327  0.61486  1.0000
  Fe  Fe30      1.0  0.55404  0.06432  0.56365  1.0000
  S   S62       1.0  0.55220  0.02296  0.54732  1.0000
  S   S63       1.0  0.57283  0.13409  0.59214  1.0000
  H   H476      1.0  0.61500  0.13497  0.68442  1.0000
  H   H477      1.0  0.56971  0.02224  0.89583  1.0000
  H   H478      1.0  0.86517  0.22574  0.63068  1.0000
  C   C260      1.0  0.81473  0.17230  0.68821  1.0000
  C   C261      1.0  0.76585  0.17497  0.68107  1.0000
  C   C262      1.0  0.73283  0.15763  0.65752  1.0000
  C   C263      1.0  0.74827  0.13703  0.64143  1.0000
  C   C264      1.0  0.79695  0.13468  0.64760  1.0000
  C   C265      1.0  0.82993  0.15221  0.67060  1.0000
  H   H479      1.0  0.75357  0.19040  0.69448  1.0000
  H   H480      1.0  0.69549  0.15993  0.65239  1.0000
  H   H481      1.0  0.80945  0.11888  0.63527  1.0000
  H   H482      1.0  0.86732  0.14968  0.67604  1.0000
  H   H483      1.0  0.62363  0.21514  0.59318  1.0000
  C   C266      1.0  0.72120  0.21831  0.50774  1.0000
  H   H484      1.0  0.51898  0.07188  0.70761  1.0000
  H   H485      1.0  0.57494  0.19932  0.55639  1.0000
  S   S64       1.0  0.94212  0.25370  0.60344  1.0000
  H   H486      1.0  0.59378  0.14303  0.72630  1.0000
  N   N15       1.0  0.69118  0.12577  0.75843  1.0000
  H   H487      1.0  0.69372  0.10977  0.51529  1.0000
  C   C267      1.0  0.93756  0.30813  0.51999  1.0000
  S   S65       1.0  0.49363  0.09010  0.55826  1.0000
  H   H488      1.0  0.71665  0.23485  0.52506  1.0000
  H   H489      1.0  0.86808  0.21011  0.58536  1.0000
  H   H490      1.0  0.57496  0.10946  0.79757  1.0000
  C   C268      1.0  0.50857  0.00035  0.52221  1.0000
  N   N16       1.0  0.72354  0.19541  0.53385  1.0000
  H   H491      1.0  0.56819  0.02365  0.96979  1.0000
  H   H492      1.0  0.89227  0.27894  0.52858  1.0000
  C   C269      1.0  0.77429  0.19212  0.56088  1.0000
  C   C270      1.0  0.69378  0.19816  0.56185  1.0000
  C   C271      1.0  0.63974  0.19953  0.54050  1.0000
  C   C272      1.0  0.72572  0.08558  0.73977  1.0000
  C   C273      1.0  0.79704  0.21399  0.58951  1.0000
  C   C274      1.0  0.61369  0.19899  0.57246  1.0000
  H   H493      1.0  0.67517  0.13007  0.83832  1.0000
  C   C275      1.0  0.85016  0.21035  0.60932  1.0000
  H   H494      1.0  0.76047  0.08886  0.76354  1.0000
  C   C276      1.0  0.64411  0.12677  0.81047  1.0000
  H   H495      1.0  0.70478  0.07292  0.75279  1.0000
  C   C277      1.0  0.69468  0.12712  0.49828  1.0000
  C   C278      1.0  0.65879  0.11236  0.77747  1.0000
  H   H496      1.0  0.77783  0.17617  0.58210  1.0000
  H   H497      1.0  0.70108  0.18297  0.58485  1.0000
  H   H498      1.0  0.70387  0.21512  0.58066  1.0000
  H   H499      1.0  0.62628  0.18391  0.51934  1.0000
  H   H500      1.0  0.79693  0.18805  0.54132  1.0000
  H   H501      1.0  0.67581  0.09531  0.79309  1.0000
  H   H502      1.0  0.58426  0.06794  0.98101  1.0000
  H   H503      1.0  0.78158  0.21548  0.61501  1.0000
  H   H504      1.0  0.79207  0.23169  0.57254  1.0000
  C   C279      1.0  0.92577  0.28831  0.54166  1.0000
  H   H505      1.0  0.62218  0.18199  0.59140  1.0000
  H   H506      1.0  0.76641  0.16041  0.76163  1.0000
  H   H507      1.0  0.75118  0.11455  0.81051  1.0000
  H   H508      1.0  0.67125  0.16355  0.76340  1.0000
  H   H509      1.0  0.83613  0.12850  0.82757  1.0000
  C   C280      1.0  0.67002  0.14975  0.73919  1.0000
  H   H510      1.0  0.59794  0.12283  0.84816  1.0000
  C   C281      1.0  0.73738  0.13123  0.79171  1.0000
  H   H511      1.0  0.84996  0.15443  0.80031  1.0000
  H   H512      1.0  0.70176  0.06873  0.67853  1.0000
  C   C282      1.0  0.60754  0.11237  0.82421  1.0000
  H   H513      1.0  0.56536  0.17169  0.66816  1.0000
  H   H514      1.0  0.69165  0.15795  0.72133  1.0000
  H   H515      1.0  0.51503  0.04147  0.95269  1.0000
  H   H516      1.0  0.51882  0.04052  0.87976  1.0000
  H   H517      1.0  0.75885  0.08374  0.69143  1.0000
  H   H518      1.0  0.62827  0.14471  0.79848  1.0000
  S   S66       1.0  0.97283  0.20017  0.68561  1.0000
  H   H519      1.0  0.74398  0.14370  0.55115  1.0000
  C   C283      1.0  0.53576  0.02564  0.90175  1.0000
  C   C284      1.0  0.54763  0.03667  0.94575  1.0000
  C   C285      1.0  0.60245  0.17325  0.68900  1.0000
  C   C286      1.0  0.49540  0.10840  0.71315  1.0000
  S   S67       1.0  0.50710  0.12069  0.66888  1.0000
  H   H520      1.0  0.60396  0.18734  0.71275  1.0000
  C   C287      1.0  0.70886  0.14826  0.52908  1.0000
  H   H521      1.0  0.81677  0.15899  0.83540  1.0000
  C   C288      1.0  0.73526  0.07243  0.70385  1.0000
  H   H522      1.0  0.62172  0.09431  0.83745  1.0000
  H   H523      1.0  0.49364  0.02607  0.81613  1.0000
  C   C289      1.0  0.82266  0.14622  0.81232  1.0000
  C   C290      1.0  0.49416  0.07503  0.76056  1.0000
  C   C291      1.0  0.69849  0.10981  0.72501  1.0000
  C   C292      1.0  0.50433  0.08394  0.72535  1.0000
  H   H524      1.0  0.50150  0.05612  0.76959  1.0000
  H   H525      1.0  0.62614  0.10604  0.75296  1.0000
  H   H526      1.0  0.75532  0.22132  0.50150  1.0000
  H   H527      1.0  0.73188  0.14464  0.81416  1.0000
  H   H528      1.0  0.71680  0.12021  0.70648  1.0000
  C   C293      1.0  0.61852  0.14841  0.70940  1.0000
  H   H529      1.0  0.78556  0.13019  0.75380  1.0000
  H   H530      1.0  0.55832  0.07391  0.92640  1.0000
  H   H531      1.0  0.75292  0.05468  0.71471  1.0000
  C   C294      1.0  0.57735  0.06004  0.94967  1.0000
  H   H532      1.0  0.63044  0.21699  0.52305  1.0000
  C   C295      1.0  0.70971  0.17302  0.50666  1.0000
  H   H533      1.0  0.68273  0.14878  0.54599  1.0000
  Fe  Fe31      1.0  0.96936  0.24077  0.67091  1.0000
  H   H534      1.0  0.61174  0.05595  0.94519  1.0000
  C   C296      1.0  0.95717  0.28028  0.57976  1.0000
  N   N17       1.0  0.50471  0.00299  0.89323  1.0000
  C   C297      1.0  0.47988  0.00705  0.81343  1.0000
  H   H535      1.0  0.52515  0.99565  0.77786  1.0000
  C   C298      1.0  0.48704  0.99577  0.77500  1.0000
  Fe  Fe32      1.0  0.91046  0.41371  0.42398  1.0000
  H   H536      1.0  0.76076  0.62410  0.01106  1.0000
  S   S68       1.0  0.90670  0.45263  0.44867  1.0000
  Fe  Fe33      1.0  0.85407  0.36682  0.38299  1.0000
  H   H537      1.0  0.61728  0.33099  0.37417  1.0000
  H   H538      1.0  0.92993  0.35537  0.18692  1.0000
  Fe  Fe34      1.0  0.94995  0.36188  0.45053  1.0000
  Fe  Fe35      1.0  0.94461  0.38244  0.36446  1.0000
  H   H539      1.0  0.57849  0.35489  0.31065  1.0000
  S   S69       1.0  0.88293  0.38049  0.44895  1.0000
  S   S70       1.0  0.87590  0.40198  0.35739  1.0000
  H   H540      1.0  0.97588  0.56079  0.46006  1.0000
  H   H541      1.0  0.87758  0.42466  0.07196  1.0000
  C   C299      1.0  0.96022  0.36387  0.20926  1.0000
  H   H542      1.0  0.49300  0.33797  0.12575  1.0000
  C   C300      1.0  0.92364  0.46450  0.11248  1.0000
  C   C301      1.0  0.95296  0.47322  0.47612  1.0000
  C   C302      1.0  0.96575  0.44370  0.24624  1.0000
  S   S71       1.0  0.78427  0.34516  0.37189  1.0000
  C   C303      1.0  0.50887  0.39586  0.29805  1.0000
  C   C304      1.0  0.94402  0.50488  0.37223  1.0000
  H   H543      1.0  0.74756  0.34919  0.28056  1.0000
  H   H544      1.0  0.52338  0.43358  0.31835  1.0000
  H   H545      1.0  0.97353  0.61233  0.39242  1.0000
  H   H546      1.0  0.90556  0.50806  0.36519  1.0000
  H   H547      1.0  0.92766  0.59461  0.35769  1.0000
  C   C305      1.0  0.51586  0.42290  0.28930  1.0000
  C   C306      1.0  0.88218  0.49373  0.05419  1.0000
  H   H548      1.0  0.93577  0.43090  0.24362  1.0000
  H   H549      1.0  0.54119  0.34038  0.23907  1.0000
  C   C307      1.0  0.55956  0.33884  0.31814  1.0000
  N   N18       1.0  0.96079  0.44534  0.13030  1.0000
  H   H550      1.0  0.89811  0.40245  0.11304  1.0000
  C   C308      1.0  0.90595  0.41140  0.08663  1.0000
  C   C309      1.0  0.90358  0.39146  0.05478  1.0000
  H   H551      1.0  0.92009  0.42778  0.16515  1.0000
  H   H552      1.0  0.89317  0.55814  0.41053  1.0000
  C   C310      1.0  0.96332  0.55043  0.37568  1.0000
  H   H553      1.0  0.84702  0.48646  0.05331  1.0000
  H   H554      1.0  0.48445  0.36593  0.17973  1.0000
  C   C311      1.0  0.95537  0.42397  0.10117  1.0000
  H   H555      1.0  0.92635  0.36614  0.25661  1.0000
  C   C312      1.0  0.57858  0.33416  0.36475  1.0000
  C   C313      1.0  0.95567  0.43603  0.17043  1.0000
  C   C314      1.0  0.91981  0.47390  0.06851  1.0000
  C   C315      1.0  0.89366  0.57841  0.46417  1.0000
  H   H556      1.0  0.96473  0.42950  0.07323  1.0000
  H   H557      1.0  0.91170  0.39918  0.02756  1.0000
  C   C316      1.0  0.94117  0.49629  0.48825  1.0000
  H   H558      1.0  0.89147  0.50983  0.07508  1.0000
  H   H559      1.0  0.95275  0.48720  0.38930  1.0000
  C   C317      1.0  0.50523  0.34258  0.30301  1.0000
  H   H560      1.0  0.49608  0.35346  0.32665  1.0000
  C   C318      1.0  0.78857  0.62188  0.99621  1.0000
  H   H561      1.0  0.57226  0.35025  0.38201  1.0000
  H   H562      1.0  0.92892  0.37661  0.06886  1.0000
  C   C319      1.0  0.96693  0.62063  0.31078  1.0000
  H   H563      1.0  0.86753  0.38330  0.04402  1.0000
  H   H564      1.0  0.92904  0.61678  0.29410  1.0000
  H   H565      1.0  0.96298  0.52600  0.42761  1.0000
  C   C320      1.0  0.72445  0.33711  0.29066  1.0000
  S   S72       1.0  0.92117  0.34670  0.38611  1.0000
  H   H566      1.0  0.88822  0.45779  0.11217  1.0000
  H   H567      1.0  0.94198  0.62498  0.05588  1.0000
  H   H568      1.0  0.54618  0.42525  0.27736  1.0000
  C   C321      1.0  0.95809  0.36991  0.24878  1.0000
  C   C322      1.0  0.90856  0.57562  0.42553  1.0000
  C   C323      1.0  0.94297  0.64386  0.06567  1.0000
  H   H569      1.0  0.54139  0.38974  0.32241  1.0000
  H   H570      1.0  0.90439  0.50139  0.47996  1.0000
  C   C324      1.0  0.48198  0.34587  0.18434  1.0000
  H   H571      1.0  0.90776  0.56316  0.48632  1.0000
  N   N19       1.0  0.48493  0.35374  0.26039  1.0000
  C   C325      1.0  0.97267  0.52558  0.39896  1.0000
  H   H572      1.0  0.87984  0.49999  0.02252  1.0000
  H   H573      1.0  0.95244  0.50332  0.34289  1.0000
  H   H574      1.0  0.94432  0.63455  0.12768  1.0000
  H   H575      1.0  0.96585  0.45802  0.26926  1.0000
  H   H576      1.0  0.53355  0.38123  0.25071  1.0000
  H   H577      1.0  0.89272  0.59109  0.40459  1.0000
  C   C326      1.0  0.96135  0.45563  0.20450  1.0000
  C   C327      1.0  0.50883  0.33310  0.15897  1.0000
  H   H578      1.0  0.81674  0.61003  0.01643  1.0000
  H   H579      1.0  0.93070  0.48095  0.13275  1.0000
  H   H580      1.0  0.82589  0.65461  0.02169  1.0000
  H   H581      1.0  0.67618  0.33110  0.22895  1.0000
  H   H582      1.0  0.90663  0.59616  0.47964  1.0000
  H   H583      1.0  0.85451  0.57806  0.45536  1.0000
  C   C328      1.0  0.50209  0.33879  0.23087  1.0000
  H   H584      1.0  0.92463  0.55214  0.35983  1.0000
  C   C329      1.0  0.96318  0.57560  0.43681  1.0000
  H   H585      1.0  0.90987  0.45887  0.04555  1.0000
  H   H586      1.0  0.95385  0.48200  0.06803  1.0000
  C   C330      1.0  0.94447  0.64935  0.10643  1.0000
  C   C331      1.0  0.73466  0.33207  0.33295  1.0000
  C   C332      1.0  0.96648  0.59524  0.37346  1.0000
  H   H587      1.0  0.92981  0.46762  0.19615  1.0000
  H   H588      1.0  0.96973  0.63767  0.32907  1.0000
  C   C333      1.0  0.49995  0.38017  0.25836  1.0000
  H   H589      1.0  0.47948  0.39455  0.31109  1.0000
  H   H590      1.0  0.48346  0.43037  0.26634  1.0000
  H   H591      1.0  0.54654  0.33893  0.16937  1.0000
  C   C334      1.0  0.97644  0.51276  0.51146  1.0000
  Fe  Fe36      1.0  0.92874  0.59888  0.86786  1.0000
  S   S73       1.0  0.86857  0.57327  0.86620  1.0000
  C   C335      1.0  0.55073  0.59996  0.73297  1.0000
  Fe  Fe37      1.0  0.92590  0.62207  0.94982  1.0000
  S   S74       1.0  0.86830  0.59636  0.95364  1.0000
  Fe  Fe38      1.0  0.90799  0.56628  0.93370  1.0000
  S   S75       1.0  0.91119  0.52551  0.95377  1.0000
  Fe  Fe39      1.0  0.83425  0.60564  0.88615  1.0000
  S   S76       1.0  0.75496  0.61440  0.86887  1.0000
  H   H592      1.0  0.89634  0.40450  0.53138  1.0000
  S   S77       1.0  0.89147  0.63171  0.88254  1.0000
  H   H593      1.0  0.77310  0.61260  0.96589  1.0000
  H   H594      1.0  0.54079  0.58485  0.75075  1.0000
  H   H595      1.0  0.85146  0.51776  0.84944  1.0000
  S   S78       1.0  0.94951  0.65676  0.98868  1.0000
  C   C336      1.0  0.93225  0.60967  0.74753  1.0000
  C   C337      1.0  0.91635  0.36979  0.56264  1.0000
  H   H596      1.0  0.90406  0.61610  0.75826  1.0000
  S   S79       1.0  0.96857  0.59147  0.93524  1.0000
  C   C338      1.0  0.93000  0.61337  0.70586  1.0000
  H   H597      1.0  0.48873  0.64864  0.67906  1.0000
  C   C339      1.0  0.72145  0.64070  0.84575  1.0000
  C   C340      1.0  0.96643  0.60528  0.69129  1.0000
  C   C341      1.0  0.97121  0.59792  0.77517  1.0000
  H   H598      1.0  0.84147  0.36509  0.52856  1.0000
  H   H599      1.0  0.91269  0.51618  0.79217  1.0000
  H   H600      1.0  0.84490  0.49664  0.80719  1.0000
  C   C342      1.0  0.86795  0.35836  0.55750  1.0000
  H   H601      1.0  0.94227  0.36210  0.59097  1.0000
  H   H602      1.0  0.92976  0.50017  0.88279  1.0000
  C   C343      1.0  0.91498  0.39824  0.56366  1.0000
  C   C344      1.0  0.94350  0.47852  0.97682  1.0000
  H   H603      1.0  0.51070  0.61942  0.86388  1.0000
  N   N20       1.0  0.51562  0.62058  0.72585  1.0000
  C   C345      1.0  0.94034  0.50015  0.85422  1.0000
  C   C346      1.0  0.60328  0.60669  0.75472  1.0000
  H   H604      1.0  0.87018  0.33810  0.55553  1.0000
  H   H605      1.0  0.59319  0.65361  0.73266  1.0000
  H   H606      1.0  0.67091  0.58936  0.78390  1.0000
  H   H607      1.0  0.92910  0.48209  0.83938  1.0000
  C   C347      1.0  0.91684  0.47814  0.57864  1.0000
  C   C348      1.0  0.51750  0.63335  0.76551  1.0000
  C   C349      1.0  0.90935  0.51889  0.82334  1.0000
  H   H608      1.0  0.85620  0.36279  0.58439  1.0000
  H   H609      1.0  0.60809  0.61823  0.78228  1.0000
  C   C350      1.0  0.85717  0.51526  0.81905  1.0000
  H   H610      1.0  0.96521  0.45234  0.88074  1.0000
  H   H611      1.0  0.66176  0.62967  0.86441  1.0000
  C   C351      1.0  0.63334  0.58383  0.76924  1.0000
  H   H612      1.0  0.54944  0.59153  0.70304  1.0000
  C   C352      1.0  0.95616  0.50351  0.97712  1.0000
  H   H613      1.0  0.55123  0.64340  0.77896  1.0000
  H   H614      1.0  0.83807  0.64358  0.97665  1.0000
  H   H615      1.0  0.91916  0.53800  0.83323  1.0000
  H   H616      1.0  0.53979  0.60277  0.80991  1.0000
  C   C353      1.0  0.67543  0.64332  0.84798  1.0000
  S   S80       1.0  0.96308  0.61117  0.63898  1.0000
  H   H617      1.0  0.92688  0.36389  0.53584  1.0000
  C   C354      1.0  0.52264  0.63901  0.69488  1.0000
  H   H618      1.0  0.83563  0.52901  0.79699  1.0000
  H   H619      1.0  0.53242  0.62945  0.67005  1.0000
  H   H620      1.0  0.90696  0.47315  0.96250  1.0000
  H   H621      1.0  0.89119  0.40353  0.58125  1.0000
  H   H622      1.0  0.89995  0.62270  0.68483  1.0000
  H   H623      1.0  0.96664  0.53022  0.52101  1.0000
  H   H624      1.0  0.62174  0.57360  0.79262  1.0000
  H   H625      1.0  0.61772  0.61642  0.73266  1.0000
  H   H626      1.0  0.54899  0.64143  0.85075  1.0000
  H   H627      1.0  0.63103  0.57165  0.74268  1.0000
  C   C355      1.0  0.80965  0.64675  0.99039  1.0000
  H   H628      1.0  0.47704  0.58417  0.66172  1.0000
  H   H629      1.0  0.89736  0.48798  0.59648  1.0000
  H   H630      1.0  0.48549  0.64540  0.83181  1.0000
  H   H631      1.0  0.96706  0.44128  0.99406  1.0000
  H   H632      1.0  0.89112  0.44289  0.58925  1.0000
  C   C356      1.0  0.51442  0.63175  0.83904  1.0000
  H   H633      1.0  0.48974  0.64774  0.75875  1.0000
  C   C357      1.0  0.51151  0.61672  0.80062  1.0000
  H   H634      1.0  0.75252  0.65378  0.93348  1.0000
  C   C358      1.0  0.73875  0.65867  0.82474  1.0000
  H   H635      1.0  0.77400  0.65699  0.82268  1.0000
  H   H636      1.0  0.89503  0.47838  0.54545  1.0000
  C   C359      1.0  0.55896  0.66005  0.71166  1.0000
  H   H637      1.0  0.93980  0.44133  0.53794  1.0000
  H   H638      1.0  0.92893  0.41626  0.64952  1.0000
  H   H639      1.0  0.93589  0.38399  0.64589  1.0000
  C   C360      1.0  0.92601  0.45173  0.59425  1.0000
  H   H640      1.0  0.94553  0.45262  0.62790  1.0000
  C   C361      1.0  0.95588  0.43805  0.57184  1.0000
  H   H641      1.0  0.97427  0.40366  0.52166  1.0000
  H   H642      1.0  0.96166  0.39709  0.71822  1.0000
  C   C362      1.0  0.95541  0.40165  0.65341  1.0000
  N   N21       1.0  0.96247  0.41087  0.58013  1.0000
  H   H643      1.0  0.95065  0.48805  0.58245  1.0000
  Fe  Fe40      1.0  0.55885  0.91008  0.07911  1.0000
  H   H644      1.0  0.57894  0.95167  0.17587  1.0000
  S   S81       1.0  0.56371  0.95170  0.06906  1.0000
  Fe  Fe41      1.0  0.61206  0.86301  0.12206  1.0000
  S   S82       1.0  0.54647  0.83960  0.09636  1.0000
  S   S83       1.0  0.67587  0.84427  0.16905  1.0000
  Fe  Fe42      1.0  0.53719  0.85985  0.03656  1.0000
  Fe  Fe43      1.0  0.50777  0.87095  0.11390  1.0000
  C   C363      1.0  0.58061  0.92580  0.27576  1.0000
  S   S84       1.0  0.60433  0.88207  0.06146  1.0000
  S   S85       1.0  0.57329  0.89326  0.14279  1.0000
  Fe  Fe44      1.0  0.92205  0.76649  0.21502  1.0000
  H   H645      1.0  0.76248  0.75021  0.16069  1.0000
  S   S86       1.0  0.86836  0.79222  0.17031  1.0000
  H   H646      1.0  0.65806  0.79242  0.19555  1.0000
  H   H647      1.0  0.57204  0.93465  0.24490  1.0000
  S   S87       1.0  0.90449  0.72877  0.23362  1.0000
  C   C364      1.0  0.65544  0.79905  0.06350  1.0000
  S   S88       1.0  0.97618  0.75247  0.18705  1.0000
  H   H648      1.0  0.80677  0.74277  0.04356  1.0000
  H   H649      1.0  0.53588  0.86888  0.29186  1.0000
  H   H650      1.0  0.52965  0.86905  0.21747  1.0000
  C   C365      1.0  0.72999  0.83053  0.16905  1.0000
  C   C366      1.0  0.75463  0.81554  0.20274  1.0000
  C   C367      1.0  0.79681  0.80361  0.20373  1.0000
  C   C368      1.0  0.81539  0.80679  0.17120  1.0000
  C   C369      1.0  0.79100  0.82195  0.13769  1.0000
  C   C370      1.0  0.74873  0.83378  0.13661  1.0000
  H   H651      1.0  0.74087  0.81302  0.22825  1.0000
  H   H652      1.0  0.81509  0.79211  0.22980  1.0000
  H   H653      1.0  0.80519  0.82475  0.11250  1.0000
  H   H654      1.0  0.73093  0.84561  0.11091  1.0000
  C   C371      1.0  0.77212  0.74010  0.13642  1.0000
  H   H655      1.0  0.94735  0.70197  0.03066  1.0000
  H   H656      1.0  0.65447  0.74953  0.00138  1.0000
  H   H657      1.0  0.59486  0.97096  0.00146  1.0000
  H   H658      1.0  0.61909  0.92805  0.29197  1.0000
  C   C372      1.0  0.56160  0.92479  0.34330  1.0000
  H   H659      1.0  0.94777  0.71151  0.10212  1.0000
  C   C373      1.0  0.49797  0.86905  0.22636  1.0000
  N   N22       1.0  0.66530  0.77282  0.07880  1.0000
  C   C374      1.0  0.71367  0.76504  0.07859  1.0000
  C   C375      1.0  0.66592  0.77175  0.12330  1.0000
  C   C376      1.0  0.59845  0.91299  0.43350  1.0000
  C   C377      1.0  0.73052  0.73900  0.09612  1.0000
  C   C378      1.0  0.62121  0.78136  0.13191  1.0000
  H   H660      1.0  0.59540  0.78806  0.18354  1.0000
  C   C379      1.0  0.62757  0.78077  0.17820  1.0000
  H   H661      1.0  0.74050  0.77883  0.09578  1.0000
  H   H662      1.0  0.66787  0.81217  0.08963  1.0000
  H   H663      1.0  0.69672  0.78243  0.14319  1.0000
  H   H664      1.0  0.67102  0.75270  0.13554  1.0000
  H   H665      1.0  0.57219  0.90597  0.27109  1.0000
  H   H666      1.0  0.60200  0.95920  0.39460  1.0000
  H   H667      1.0  0.74258  0.72894  0.07312  1.0000
  C   C380      1.0  0.48703  0.93940  0.34967  1.0000
  H   H668      1.0  0.58978  0.76993  0.11628  1.0000
  H   H669      1.0  0.61377  0.80054  0.12127  1.0000
  H   H670      1.0  0.59179  0.76215  0.05447  1.0000
  C   C381      1.0  0.50305  0.94666  0.14998  1.0000
  C   C382      1.0  0.51962  0.97319  0.04208  1.0000
  H   H671      1.0  0.67157  0.79569  0.00449  1.0000
  H   H672      1.0  0.63333  0.76172  0.19040  1.0000
  H   H673      1.0  0.52941  0.92586  0.43105  1.0000
  H   H674      1.0  0.95941  0.71045  0.43849  1.0000
  H   H675      1.0  0.63074  0.73717  0.06678  1.0000
  H   H676      1.0  0.51409  0.93598  0.28192  1.0000
  H   H677      1.0  0.70241  0.72742  0.10138  1.0000
  H   H678      1.0  0.61440  0.90159  0.41466  1.0000
  H   H679      1.0  0.55717  0.96238  0.44871  1.0000
  H   H680      1.0  0.62075  0.99155  0.44804  1.0000
  H   H681      1.0  0.61663  0.80228  0.05066  1.0000
  C   C383      1.0  0.83748  0.74171  0.03201  1.0000
  H   H682      1.0  0.58030  0.88130  0.46478  1.0000
  H   H683      1.0  0.66902  0.84706  0.04013  1.0000
  S   S89       1.0  0.96195  0.72619  0.35859  1.0000
  C   C384      1.0  0.54667  0.96314  0.16617  1.0000
  C   C385      1.0  0.94687  0.69269  0.09224  1.0000
  H   H684      1.0  0.60067  0.92405  0.35756  1.0000
  C   C386      1.0  0.55196  0.93757  0.30054  1.0000
  C   C387      1.0  0.56291  0.96096  0.38568  1.0000
  C   C388      1.0  0.67867  0.80822  0.03119  1.0000
  H   H685      1.0  0.62229  0.83303  0.99850  1.0000
  H   H686      1.0  0.61998  0.92989  0.44306  1.0000
  N   N23       1.0  0.53922  0.93639  0.37261  1.0000
  H   H687      1.0  0.56175  0.95726  0.30394  1.0000
  C   C389      1.0  0.54636  0.91902  0.40874  1.0000
  H   H688      1.0  0.50259  0.93994  0.49224  1.0000
  H   H689      1.0  0.78280  0.72125  0.14795  1.0000
  H   H690      1.0  0.80300  0.74936  0.13115  1.0000
  H   H691      1.0  0.85023  0.76066  0.02941  1.0000
  C   C390      1.0  0.62674  0.75595  0.05341  1.0000
  H   H692      1.0  0.71758  0.80981  0.04583  1.0000
  C   C391      1.0  0.94725  0.67374  0.12020  1.0000
  H   H693      1.0  0.54950  0.90536  0.33718  1.0000
  H   H694      1.0  0.54959  0.97597  0.14163  1.0000
  S   S90       1.0  0.95247  0.67934  0.17278  1.0000
  H   H695      1.0  0.54493  0.97386  0.19318  1.0000
  H   H696      1.0  0.71632  0.76557  0.04693  1.0000
  C   C392      1.0  0.94613  0.68721  0.05165  1.0000
  H   H697      1.0  0.58916  0.90969  0.49400  1.0000
  Fe  Fe45      1.0  0.96101  0.71540  0.20841  1.0000
  H   H698      1.0  0.78258  0.70202  0.01075  1.0000
  H   H699      1.0  0.48098  0.95629  0.33023  1.0000
  H   H700      1.0  0.63906  0.89334  0.48877  1.0000
  C   C393      1.0  0.94490  0.66275  0.03836  1.0000
  C   C394      1.0  0.60173  0.89842  0.47266  1.0000
  H   H701      1.0  0.51459  0.98095  0.41053  1.0000
  H   H702      1.0  0.52801  0.90128  0.39769  1.0000
  C   C395      1.0  0.62090  0.75418  0.00676  1.0000
  C   C396      1.0  0.50138  0.86908  0.26860  1.0000
  H   H703      1.0  0.97351  0.75431  0.09767  1.0000
  H   H704      1.0  0.86640  0.73151  0.05489  1.0000
  H   H705      1.0  0.50098  0.93496  0.17603  1.0000
  C   C397      1.0  0.55148  0.97432  0.42122  1.0000
  H   H706      1.0  0.55346  0.97401  0.35918  1.0000
  Fe  Fe46      1.0  0.96404  0.73507  0.29343  1.0000
  S   S91       1.0  0.49181  0.88904  0.05100  1.0000
  H   H707      1.0  0.50850  0.93463  0.12584  1.0000
  C   C398      1.0  0.66093  0.83358  0.01453  1.0000
  H   H708      1.0  0.83995  0.69305  0.01296  1.0000
  H   H709      1.0  0.59806  0.71592  0.99740  1.0000
  Fe  Fe47      1.0  0.55085  0.71637  0.77068  1.0000
  H   H710      1.0  0.87168  0.68305  0.87135  1.0000
  S   S92       1.0  0.62831  0.70604  0.78079  1.0000
  H   H711      1.0  0.54506  0.85110  0.53082  1.0000
  H   H712      1.0  0.49024  0.97315  0.84896  1.0000
  S   S93       1.0  0.53383  0.75447  0.78744  1.0000
  C   C399      1.0  0.50323  0.82926  0.79384  1.0000
  H   H713      1.0  0.57927  0.87289  0.56830  1.0000
  H   H714      1.0  0.63400  0.72336  0.91808  1.0000
  C   C400      1.0  0.66347  0.68085  0.80674  1.0000
  H   H715      1.0  0.51512  0.89231  0.68679  1.0000
  C   C401      1.0  0.51744  0.81622  0.94918  1.0000
  H   H716      1.0  0.51541  0.81100  0.78735  1.0000
  C   C402      1.0  0.50180  0.89732  0.57929  1.0000
  H   H717      1.0  0.90659  0.69998  0.91645  1.0000
  H   H718      1.0  0.60750  0.77183  0.99114  1.0000
  C   C403      1.0  0.77090  0.66385  0.96264  1.0000
  C   C404      1.0  0.50426  0.87137  0.56186  1.0000
  H   H719      1.0  0.53514  0.68175  0.65480  1.0000
  H   H720      1.0  0.79496  0.74025  0.96818  1.0000
  H   H721      1.0  0.67857  0.83975  0.99201  1.0000
  C   C405      1.0  0.87457  0.70044  0.88862  1.0000
  H   H722      1.0  0.49783  0.91036  0.55310  1.0000
  H   H723      1.0  0.73209  0.69055  0.89382  1.0000
  H   H724      1.0  0.55068  0.73747  0.99189  1.0000
  H   H725      1.0  0.68572  0.68818  0.94239  1.0000
  C   C406      1.0  0.74539  0.70138  0.92293  1.0000
  C   C407      1.0  0.82501  0.68450  0.93208  1.0000
  H   H726      1.0  0.51866  0.83332  0.82731  1.0000
  C   C408      1.0  0.47996  0.79013  0.57981  1.0000
  H   H727      1.0  0.50651  0.97229  0.64399  1.0000
  H   H728      1.0  0.50475  0.78118  0.56750  1.0000
  C   C409      1.0  0.70983  0.67851  0.80522  1.0000
  C   C410      1.0  0.83018  0.70431  0.90076  1.0000
  H   H729      1.0  0.81800  0.66704  0.91410  1.0000
  H   H730      1.0  0.50043  0.94799  0.58091  1.0000
  C   C411      1.0  0.82344  0.72924  0.98969  1.0000
  H   H731      1.0  0.74458  0.66585  0.97918  1.0000
  H   H732      1.0  0.75529  0.71950  0.91320  1.0000
  H   H733      1.0  0.54475  0.67310  0.72940  1.0000
  H   H734      1.0  0.65246  0.71162  0.87666  1.0000
  H   H735      1.0  0.71356  0.71583  0.96825  1.0000
  C   C412      1.0  0.66485  0.72100  0.90710  1.0000
  C   C413      1.0  0.56852  0.67429  0.67636  1.0000
  H   H736      1.0  0.51633  0.84329  0.77641  1.0000
  H   H737      1.0  0.72333  0.69202  0.78839  1.0000
  H   H738      1.0  0.50130  0.76920  0.63694  1.0000
  C   C414      1.0  0.52877  0.81241  0.91273  1.0000
  H   H739      1.0  0.62574  0.95156  0.97649  1.0000
  H   H740      1.0  0.61175  0.66518  0.83125  1.0000
  C   C415      1.0  0.70268  0.70580  0.93847  1.0000
  H   H741      1.0  0.79937  0.70334  0.87194  1.0000
  H   H742      1.0  0.49973  0.96737  0.92002  1.0000
  H   H743      1.0  0.83188  0.72308  0.91312  1.0000
  H   H744      1.0  0.54011  0.87615  0.65308  1.0000
  N   N24       1.0  0.78756  0.68865  0.95261  1.0000
  H   H745      1.0  0.54046  0.85136  0.71411  1.0000
  H   H746      1.0  0.54512  0.82713  0.90067  1.0000
  H   H747      1.0  0.51008  0.85698  0.58607  1.0000
  H   H748      1.0  0.86018  0.68200  0.95595  1.0000
  C   C416      1.0  0.49712  0.79693  0.96503  1.0000
  C   C417      1.0  0.47799  0.78324  0.61921  1.0000
  C   C418      1.0  0.51844  0.78996  0.89140  1.0000
  S   S94       1.0  0.52465  0.84615  0.97059  1.0000
  C   C419      1.0  0.58463  0.73441  0.98590  1.0000
  H   H749      1.0  0.67885  0.73943  0.90293  1.0000
  H   H750      1.0  0.52701  0.78744  0.86321  1.0000
  C   C420      1.0  0.50543  0.99203  0.85293  1.0000
  S   S95       1.0  0.50303  0.69699  0.80012  1.0000
  H   H751      1.0  0.53693  0.90187  0.60192  1.0000
  H   H752      1.0  0.59285  0.68989  0.68922  1.0000
  C   C421      1.0  0.52339  0.97664  0.51573  1.0000
  C   C422      1.0  0.49573  0.77115  0.90591  1.0000
  H   H753      1.0  0.56077  0.97267  0.52573  1.0000
  H   H754      1.0  0.53996  0.88332  0.51876  1.0000
  S   S96       1.0  0.49503  0.71821  0.70751  1.0000
  H   H755      1.0  0.50597  0.92557  0.64454  1.0000
  C   C423      1.0  0.50917  0.87709  0.66420  1.0000
  C   C424      1.0  0.54480  0.86967  0.54393  1.0000
  C   C425      1.0  0.57363  0.97524  0.93464  1.0000
  H   H756      1.0  0.57744  0.73507  0.95188  1.0000
  H   H757      1.0  0.87853  0.71565  0.86814  1.0000
  H   H758      1.0  0.56561  0.94425  0.97304  1.0000
  H   H759      1.0  0.48795  0.79963  0.99292  1.0000
  H   H760      1.0  0.57525  0.96389  0.90823  1.0000
  H   H761      1.0  0.59886  0.99073  0.93836  1.0000
  C   C426      1.0  0.50777  0.85310  0.68719  1.0000
  C   C427      1.0  0.48612  0.77456  0.94334  1.0000
  H   H762      1.0  0.50607  0.83723  0.66651  1.0000
  C   C428      1.0  0.64677  0.66332  0.82890  1.0000
  H   H763      1.0  0.96166  0.66649  0.65356  1.0000
  H   H764      1.0  0.58538  0.66229  0.65903  1.0000
  H   H765      1.0  0.51889  0.99092  0.95664  1.0000
  C   C429      1.0  0.52232  0.98413  0.92708  1.0000
  C   C430      1.0  0.59077  0.95952  0.97373  1.0000
  Fe  Fe48      1.0  0.48335  0.73519  0.81391  1.0000
  H   H766      1.0  0.54257  0.98967  0.85334  1.0000
  C   C431      1.0  0.49043  0.95800  0.49664  1.0000
  H   H767      1.0  0.85516  0.72962  0.97947  1.0000
  C   C432      1.0  0.80779  0.70240  0.99277  1.0000
  H   H768      1.0  0.47669  0.85242  0.69836  1.0000
