data_image0
_chemical_formula_structural       FeHSH5CSH3C2HCH5C4HC2HCFeHCHCHC6H7NC4HC3H2NHCHCH7C2H2CH2CH4C2H4SC2H2CHCSHC2SCH7SH2C2HCH2CSFeSHFeS2Fe2S3H3C7H3CH3CH2CHCHCHSHC2H2CH9SHCH3C2HC2H14NC2H3C2HCH2CHC5H2CNCHCHCHCH6NC2HCHCH3C3H2CHC2H4CH3CH2CH4CHCHSCHCHCH13SCSFeHSFeS3CFeS4FeSC7H4C6H4C2H3CH2C2H5C2H2CSH6CSHFeH4NC7HC2H18C2HSNH2CFeH2C2HCH2C2FeH2CHCH4C2H2CNFeSH4CH2CH2SH3CH2CH3CH4CH3CH2C5H2CSNCH7CH2CHCH2CFeHC3H8CHC2H2C2H3CH3CH2CHCH3CH4CNH5CH4C2H8CHCH2SC2H5CFeHFeSHFeSFeS3HFeSH3CSHC6H6C2HS2CHFeCHCFeHNHCH3SHCH2CH3C2H3CFeSCH7CSCH4C2HNCFeS2H2FeCSH2SHSFeSFeSHC6H5NH4Fe2CH4SCH6C2HSC4HC2H3CHCH3CHCFeSH4CSHCH4C4H2CH4CHCHC2HNH3SH6CHC2H2CH4C2H10CHSCH10SH2CH3NHSHCH5CHCH2CH2CSH3NCHCHC2H3CH3CHNHC2H3CSH2C3HCHCHCH2CHCHCH2CH4FeH6FeCH4C7HFeCFeS2H2FeCFeSH2CSHFeSFeS2C7H4C6H6C2H7NHC2H2SHC2HCHCH3CHCHCH5CH10S2H2SH4CHCH2C2SCFeH4C2HC3H2SFeH2SCNC3HCH2C2HSHCSHC2HCH2CH6FeS2FeS3C6H4CH6CHCHC4HCH2CH2CHCHSFeNSCH3CHCH2C3H3CHNH4C2H6FeCHC2H5CH3C2H3C2H3SH2CH3CHC2H2CH4CH2CH2CH3C2H4SFe2SFeHCHCH4NSH2S2HCH3C4H2C4H2C6H4NC4HC3H9CHCHSH3CH2CSCHCHC2H2C2H2CH7CSHCNC2HCH2CH2CH4CH8C2SHCH5CFeC2H5CH3CH2CHC3H5C
_chemical_formula_sum              "Fe48 H768 S96 C432 N24"
_cell_length_a       28.8316
_cell_length_b       41.2653
_cell_length_c       25.523
_cell_angle_alpha    90.6042
_cell_angle_beta     103.521
_cell_angle_gamma    89.3705

_space_group_name_H-M_alt    "P 1"
_space_group_IT_number       1

loop_
  _space_group_symop_operation_xyz
  'x, y, z'

loop_
  _atom_site_type_symbol
  _atom_site_label
  _atom_site_symmetry_multiplicity
  _atom_site_fract_x
  _atom_site_fract_y
  _atom_site_fract_z
  _atom_site_occupancy
  Fe  Fe1       1.0  0.18902  0.31786  0.42180  1.0000
  H   H1        1.0  0.27220  0.21988  0.12929  1.0000
  S   S1        1.0  0.16882  0.26886  0.38218  1.0000
  H   H2        1.0  0.42848  0.10574  0.47870  1.0000
  H   H3        1.0  0.08268  0.12476  0.18479  1.0000
  H   H4        1.0  0.40286  0.05041  0.04813  1.0000
  H   H5        1.0  0.09231  0.09483  0.23726  1.0000
  H   H6        1.0  0.28514  0.16903  0.17963  1.0000
  C   C1        1.0  0.40568  0.34122  0.49017  1.0000
  S   S2        1.0  0.41957  0.07628  0.16047  1.0000
  H   H7        1.0  0.32344  0.11982  0.17708  1.0000
  H   H8        1.0  0.13829  0.25368  0.49648  1.0000
  H   H9        1.0  0.19438  0.03805  0.03548  1.0000
  C   C2        1.0  0.11051  0.19875  0.16067  1.0000
  C   C3        1.0  0.08170  0.30075  0.18999  1.0000
  H   H10       1.0  0.22591  0.20179  0.07771  1.0000
  C   C4        1.0  0.04790  0.29727  0.03378  1.0000
  H   H11       1.0  0.26448  0.12997  0.10170  1.0000
  H   H12       1.0  0.13395  0.07954  0.16636  1.0000
  H   H13       1.0  0.07991  0.28424  0.22349  1.0000
  H   H14       1.0  0.46513  0.13865  0.15147  1.0000
  H   H15       1.0  0.22396  0.18198  0.16828  1.0000
  C   C5        1.0  0.10340  0.24519  0.50236  1.0000
  C   C6        1.0  0.40255  0.11040  0.11879  1.0000
  C   C7        1.0  0.35867  0.10969  0.08076  1.0000
  C   C8        1.0  0.40356  0.11863  0.49915  1.0000
  H   H16       1.0  0.36707  0.11698  0.47280  1.0000
  C   C9        1.0  0.41597  0.16429  0.08777  1.0000
  C   C10       1.0  0.43122  0.13783  0.12232  1.0000
  H   H17       1.0  0.33623  0.08866  0.07799  1.0000
  C   C11       1.0  0.34343  0.13610  0.04654  1.0000
  Fe  Fe2       1.0  0.48619  0.07333  0.22913  1.0000
  H   H18       1.0  0.18369  0.14484  0.19935  1.0000
  C   C12       1.0  0.31003  0.10058  0.19948  1.0000
  H   H19       1.0  0.17459  0.08628  0.23044  1.0000
  C   C13       1.0  0.01465  0.05666  0.09517  1.0000
  H   H20       1.0  0.26100  0.12979  0.23313  1.0000
  C   C14       1.0  0.01803  0.22891  0.31709  1.0000
  C   C15       1.0  0.02438  0.25795  0.34709  1.0000
  C   C16       1.0  0.07015  0.27128  0.36567  1.0000
  C   C17       1.0  0.11007  0.25512  0.35543  1.0000
  C   C18       1.0  0.10359  0.22635  0.32479  1.0000
  C   C19       1.0  0.05778  0.21341  0.30535  1.0000
  H   H21       1.0  0.05250  0.23974  0.09623  1.0000
  H   H22       1.0  0.07473  0.29349  0.38915  1.0000
  H   H23       1.0  0.13430  0.21369  0.31679  1.0000
  H   H24       1.0  0.05346  0.19089  0.28277  1.0000
  H   H25       1.0  0.28714  0.18807  0.08717  1.0000
  H   H26       1.0  0.20515  0.14454  0.08533  1.0000
  H   H27       1.0  0.38127  0.09268  0.25009  1.0000
  N   N1        1.0  0.22100  0.11337  0.15478  1.0000
  C   C20       1.0  0.25890  0.10827  0.20599  1.0000
  C   C21       1.0  0.17582  0.12436  0.17012  1.0000
  C   C22       1.0  0.23538  0.13902  0.12014  1.0000
  C   C23       1.0  0.25134  0.17183  0.14856  1.0000
  H   H28       1.0  0.13912  0.09227  0.07813  1.0000
  C   C24       1.0  0.14999  0.09841  0.19630  1.0000
  C   C25       1.0  0.10982  0.11374  0.21815  1.0000
  C   C26       1.0  0.25962  0.19684  0.10809  1.0000
  H   H29       1.0  0.14953  0.13435  0.13468  1.0000
  H   H30       1.0  0.24929  0.08776  0.22916  1.0000
  N   N2        1.0  0.05672  0.28668  0.13600  1.0000
  H   H31       1.0  0.09829  0.21974  0.48769  1.0000
  C   C27       1.0  0.37198  0.16357  0.04970  1.0000
  H   H32       1.0  0.31117  0.07722  0.17785  1.0000
  C   C28       1.0  0.06279  0.33407  0.20497  1.0000
  H   H33       1.0  0.06184  0.01731  0.12822  1.0000
  H   H34       1.0  0.07437  0.26025  0.47772  1.0000
  H   H35       1.0  0.37288  0.30651  0.42694  1.0000
  H   H36       1.0  0.24657  0.07525  0.11015  1.0000
  H   H37       1.0  0.07979  0.18626  0.13425  1.0000
  H   H38       1.0  0.12381  0.13251  0.24914  1.0000
  H   H39       1.0  0.12058  0.30317  0.19200  1.0000
  C   C29       1.0  0.17299  0.08237  0.07106  1.0000
  C   C30       1.0  0.06509  0.30937  0.09301  1.0000
  H   H40       1.0  0.49041  0.33941  0.43936  1.0000
  H   H41       1.0  0.43472  0.29805  0.45587  1.0000
  C   C31       1.0  0.21360  0.08201  0.12325  1.0000
  H   H42       1.0  0.07006  0.12850  0.04265  1.0000
  H   H43       1.0  0.20733  0.06180  0.14928  1.0000
  C   C32       1.0  0.07818  0.25401  0.12703  1.0000
  H   H44       1.0  0.18357  0.09736  0.04002  1.0000
  H   H45       1.0  0.13957  0.20060  0.13898  1.0000
  H   H46       1.0  0.34562  0.12094  0.27782  1.0000
  H   H47       1.0  0.08378  0.32596  0.29175  1.0000
  C   C33       1.0  0.34464  0.09785  0.25483  1.0000
  C   C34       1.0  0.09568  0.23222  0.17696  1.0000
  H   H48       1.0  0.11023  0.25708  0.11017  1.0000
  H   H49       1.0  0.41437  0.14444  0.50435  1.0000
  H   H50       1.0  0.15209  0.03210  0.07706  1.0000
  H   H51       1.0  0.04685  0.33306  0.09521  1.0000
  S   S3        1.0  0.00849  0.07077  0.15903  1.0000
  C   C35       1.0  0.40091  0.30658  0.46517  1.0000
  C   C36       1.0  0.44963  0.02797  0.44839  1.0000
  H   H52       1.0  0.10388  0.31479  0.09973  1.0000
  H   H53       1.0  0.33413  0.07784  0.27830  1.0000
  C   C37       1.0  0.16265  0.04832  0.04746  1.0000
  H   H54       1.0  0.06790  0.22904  0.19974  1.0000
  C   C38       1.0  0.38601  0.28215  0.50260  1.0000
  S   S4        1.0  0.26520  0.33237  0.42791  1.0000
  H   H55       1.0  0.35106  0.28926  0.51074  1.0000
  C   C39       1.0  0.04238  0.02886  0.09170  1.0000
  C   C40       1.0  0.08859  0.34430  0.26190  1.0000
  S   S5        1.0  0.19046  0.33326  0.50734  1.0000
  C   C41       1.0  0.49883  0.04869  0.53170  1.0000
  H   H56       1.0  0.12315  0.18416  0.19752  1.0000
  H   H57       1.0  0.43834  0.18542  0.09062  1.0000
  H   H58       1.0  0.12752  0.24302  0.20453  1.0000
  H   H59       1.0  0.49629  0.31336  0.52562  1.0000
  H   H60       1.0  0.38236  0.25779  0.48323  1.0000
  H   H61       1.0  0.00621  0.32470  0.48974  1.0000
  H   H62       1.0  0.26701  0.02101  0.10509  1.0000
  S   S6        1.0  0.48441  0.03361  0.28879  1.0000
  H   H63       1.0  0.02417  0.33306  0.20399  1.0000
  H   H64       1.0  0.43889  0.02800  0.40483  1.0000
  C   C42       1.0  0.48558  0.04877  0.47502  1.0000
  C   C43       1.0  0.01527  0.16454  0.03975  1.0000
  H   H65       1.0  0.41226  0.34158  0.38653  1.0000
  C   C44       1.0  0.00354  0.28421  0.13010  1.0000
  H   H66       1.0  0.00571  0.27318  0.21582  1.0000
  H   H67       1.0  0.12734  0.34723  0.26446  1.0000
  C   C45       1.0  0.12853  0.30612  0.82926  1.0000
  S   S7        1.0  0.40967  0.05295  0.81030  1.0000
  Fe  Fe3       1.0  0.17652  0.18236  0.93852  1.0000
  S   S8        1.0  0.21946  0.22724  0.96506  1.0000
  H   H68       1.0  0.43058  0.12928  0.67667  1.0000
  Fe  Fe4       1.0  0.22058  0.16998  0.84355  1.0000
  S   S9        1.0  0.26808  0.21324  0.86229  1.0000
  S   S10       1.0  0.21787  0.13405  0.77609  1.0000
  Fe  Fe5       1.0  0.28074  0.19760  0.94890  1.0000
  Fe  Fe6       1.0  0.20256  0.23900  0.87635  1.0000
  S   S11       1.0  0.18603  0.28851  0.83742  1.0000
  S   S12       1.0  0.23876  0.15231  0.92806  1.0000
  S   S13       1.0  0.15427  0.19643  0.85163  1.0000
  H   H69       1.0  0.40132  0.10797  0.71969  1.0000
  H   H70       1.0  0.03107  0.14803  0.79707  1.0000
  H   H71       1.0  0.09862  0.26714  0.86578  1.0000
  C   C46       1.0  0.35506  0.07379  0.80236  1.0000
  C   C47       1.0  0.31402  0.06342  0.76533  1.0000
  C   C48       1.0  0.27161  0.08174  0.75778  1.0000
  C   C49       1.0  0.27002  0.11015  0.78792  1.0000
  C   C50       1.0  0.31066  0.11991  0.82614  1.0000
  C   C51       1.0  0.35314  0.10189  0.83304  1.0000
  C   C52       1.0  0.30419  0.28587  0.68188  1.0000
  H   H72       1.0  0.24011  0.07394  0.72851  1.0000
  H   H73       1.0  0.30975  0.14178  0.84963  1.0000
  H   H74       1.0  0.38472  0.10993  0.86201  1.0000
  C   C53       1.0  0.28809  0.03107  0.57210  1.0000
  H   H75       1.0  0.01847  0.29311  0.85244  1.0000
  H   H76       1.0  0.09379  0.14134  0.82671  1.0000
  H   H77       1.0  0.15302  0.09447  0.83550  1.0000
  C   C54       1.0  0.09193  0.29046  0.84634  1.0000
  H   H78       1.0  0.35076  0.29233  0.75999  1.0000
  H   H79       1.0  0.07959  0.17959  0.74970  1.0000
  C   C55       1.0  0.08133  0.17007  0.99683  1.0000
  H   H80       1.0  0.04824  0.28995  0.71968  1.0000
  C   C56       1.0  0.01673  0.02917  0.99383  1.0000
  H   H81       1.0  0.43514  0.02335  0.01349  1.0000
  C   C57       1.0  0.12239  0.32093  0.65912  1.0000
  H   H82       1.0  0.04845  0.02907  0.84550  1.0000
  S   S14       1.0  0.13411  0.15372  0.98480  1.0000
  H   H83       1.0  0.03083  0.10773  0.93088  1.0000
  C   C58       1.0  0.02120  0.21256  0.98823  1.0000
  C   C59       1.0  0.14405  0.07458  0.86035  1.0000
  H   H84       1.0  0.04496  0.31308  0.95231  1.0000
  H   H85       1.0  0.31954  0.28368  0.83004  1.0000
  C   C60       1.0  0.09550  0.08185  0.87462  1.0000
  H   H86       1.0  0.37393  0.16231  0.70345  1.0000
  H   H87       1.0  0.02488  0.09767  0.74738  1.0000
  H   H88       1.0  0.34124  0.05997  0.96152  1.0000
  H   H89       1.0  0.08192  0.21399  0.95200  1.0000
  H   H90       1.0  0.00707  0.23581  0.97258  1.0000
  H   H91       1.0  0.12944  0.23022  0.58438  1.0000
  H   H92       1.0  0.34102  0.06145  0.66305  1.0000
  H   H93       1.0  0.26658  0.17687  0.66366  1.0000
  H   H94       1.0  0.09127  0.06514  0.90729  1.0000
  S   S15       1.0  0.35351  0.19737  0.00720  1.0000
  H   H95       1.0  0.09979  0.10618  0.89379  1.0000
  C   C61       1.0  0.32658  0.28987  0.91478  1.0000
  H   H96       1.0  0.06657  0.27454  0.02684  1.0000
  H   H97       1.0  0.04823  0.14863  0.70544  1.0000
  H   H98       1.0  0.30339  0.03977  0.02712  1.0000
  C   C62       1.0  0.34714  0.07158  0.62499  1.0000
  C   C63       1.0  0.33105  0.30794  0.72707  1.0000
  H   H99       1.0  0.31780  0.11321  0.68855  1.0000
  C   C64       1.0  0.19389  0.22754  0.72140  1.0000
  C   C65       1.0  0.04773  0.28883  0.63263  1.0000
  H   H100      1.0  0.48610  0.08950  0.76444  1.0000
  H   H101      1.0  0.41362  0.09553  0.98809  1.0000
  H   H102      1.0  0.03523  0.13827  0.88319  1.0000
  H   H103      1.0  0.28798  0.28664  0.91275  1.0000
  H   H104      1.0  0.03569  0.32834  0.68670  1.0000
  H   H105      1.0  0.10518  0.23914  0.66681  1.0000
  H   H106      1.0  0.38855  0.14581  0.59339  1.0000
  H   H107      1.0  0.31490  0.04141  0.74234  1.0000
  H   H108      1.0  0.31079  0.20308  0.70422  1.0000
  H   H109      1.0  0.37308  0.30434  0.86536  1.0000
  H   H110      1.0  0.34499  0.17554  0.63664  1.0000
  H   H111      1.0  0.28062  0.26932  0.69750  1.0000
  H   H112      1.0  0.14389  0.05152  0.83785  1.0000
  H   H113      1.0  0.29382  0.12700  0.62190  1.0000
  N   N3        1.0  0.36503  0.10592  0.63483  1.0000
  C   C66       1.0  0.32732  0.12548  0.65389  1.0000
  C   C67       1.0  0.34051  0.16105  0.67145  1.0000
  H   H114      1.0  0.11122  0.14375  0.73620  1.0000
  H   H115      1.0  0.37446  0.03501  0.92655  1.0000
  H   H116      1.0  0.11631  0.26848  0.71895  1.0000
  C   C68       1.0  0.11125  0.28219  0.58401  1.0000
  C   C69       1.0  0.18418  0.07217  0.91126  1.0000
  H   H117      1.0  0.44705  0.06845  0.95394  1.0000
  C   C70       1.0  0.41047  0.04450  0.00858  1.0000
  H   H118      1.0  0.18353  0.09342  0.93813  1.0000
  H   H119      1.0  0.00895  0.29280  0.02334  1.0000
  C   C71       1.0  0.37261  0.12139  0.58420  1.0000
  H   H120      1.0  0.08704  0.09016  0.76431  1.0000
  C   C72       1.0  0.41021  0.10683  0.67937  1.0000
  C   C73       1.0  0.06447  0.13661  0.79100  1.0000
  C   C74       1.0  0.00772  0.09058  0.84730  1.0000
  C   C75       1.0  0.43663  0.07345  0.99254  1.0000
  C   C76       1.0  0.03711  0.33538  0.81317  1.0000
  H   H121      1.0  0.18292  0.22896  0.76023  1.0000
  H   H122      1.0  0.26996  0.07927  0.59141  1.0000
  C   C77       1.0  0.05716  0.09989  0.78090  1.0000
  N   N4        1.0  0.10116  0.28871  0.63861  1.0000
  C   C78       1.0  0.04653  0.30520  0.83872  1.0000
  H   H123      1.0  0.07522  0.03713  0.79152  1.0000
  C   C79       1.0  0.36385  0.03759  0.96553  1.0000
  H   H124      1.0  0.11820  0.32557  0.70063  1.0000
  C   C80       1.0  0.11924  0.33646  0.80438  1.0000
  H   H125      1.0  0.02917  0.30318  0.59696  1.0000
  C   C81       1.0  0.10192  0.24715  0.56179  1.0000
  H   H126      1.0  0.23334  0.22535  0.73044  1.0000
  H   H127      1.0  0.48847  0.02689  0.60496  1.0000
  H   H128      1.0  0.19625  0.27886  0.71154  1.0000
  H   H129      1.0  0.16155  0.32068  0.66244  1.0000
  H   H130      1.0  0.34169  0.30704  0.94805  1.0000
  H   H131      1.0  0.03362  0.26387  0.62435  1.0000
  N   N5        1.0  0.05180  0.08019  0.82847  1.0000
  C   C82       1.0  0.17762  0.25799  0.68830  1.0000
  C   C83       1.0  0.07658  0.15303  0.74248  1.0000
  H   H132      1.0  0.18950  0.25566  0.65017  1.0000
  C   C84       1.0  0.30129  0.17742  0.69380  1.0000
  H   H133      1.0  0.08931  0.29872  0.55352  1.0000
  C   C85       1.0  0.44510  0.07763  0.68346  1.0000
  H   H134      1.0  0.37430  0.05528  0.61395  1.0000
  H   H135      1.0  0.33011  0.27100  0.66572  1.0000
  H   H136      1.0  0.17839  0.20545  0.69904  1.0000
  C   C86       1.0  0.12285  0.26285  0.67856  1.0000
  C   C87       1.0  0.47699  0.02751  0.56150  1.0000
  C   C88       1.0  0.06338  0.20023  0.97654  1.0000
  H   H137      1.0  0.45307  0.07133  0.64439  1.0000
  H   H138      1.0  0.21916  0.07152  0.90005  1.0000
  C   C89       1.0  0.33411  0.30225  0.86112  1.0000
  H   H139      1.0  0.29742  0.16509  0.73098  1.0000
  C   C90       1.0  0.49230  0.08442  0.72376  1.0000
  C   C91       1.0  0.04585  0.04514  0.81021  1.0000
  H   H140      1.0  0.26469  0.31824  0.75083  1.0000
  H   H141      1.0  0.34480  0.26603  0.92419  1.0000
  H   H142      1.0  0.06662  0.23849  0.56524  1.0000
  H   H143      1.0  0.18037  0.04971  0.93338  1.0000
  C   C92       1.0  0.30789  0.33496  0.84613  1.0000
  H   H144      1.0  0.42903  0.05611  0.69777  1.0000
  H   H145      1.0  0.46934  0.07832  0.02442  1.0000
  H   H146      1.0  0.39532  0.07733  0.54583  1.0000
  C   C93       1.0  0.29659  0.33202  0.74639  1.0000
  H   H147      1.0  0.28252  0.30041  0.64834  1.0000
  H   H148      1.0  0.14884  0.28816  0.58404  1.0000
  C   C94       1.0  0.01326  0.11785  0.89084  1.0000
  H   H149      1.0  0.44311  0.10433  0.57706  1.0000
  H   H150      1.0  0.29588  0.04262  0.87213  1.0000
  H   H151      1.0  0.30491  0.07637  0.54129  1.0000
  H   H152      1.0  0.26101  0.02017  0.93978  1.0000
  C   C95       1.0  0.02980  0.30187  0.68177  1.0000
  H   H153      1.0  0.26933  0.32956  0.84056  1.0000
  C   C96       1.0  0.05688  0.15212  0.02776  1.0000
  H   H154      1.0  0.35756  0.32164  0.71087  1.0000
  S   S16       1.0  0.32866  0.34504  0.57942  1.0000
  C   C97       1.0  0.30074  0.06693  0.58044  1.0000
  H   H155      1.0  0.39007  0.33589  0.80470  1.0000
  C   C98       1.0  0.40555  0.10304  0.55373  1.0000
  H   H156      1.0  0.09687  0.32668  0.00111  1.0000
  C   C99       1.0  0.05795  0.32227  0.99417  1.0000
  H   H157      1.0  0.13266  0.04943  0.01110  1.0000
  H   H158      1.0  0.33770  0.12586  0.55541  1.0000
  H   H159      1.0  0.30955  0.13515  0.01785  1.0000
  H   H160      1.0  0.21592  0.01688  0.84182  1.0000
  H   H161      1.0  0.03912  0.34549  0.99803  1.0000
  H   H162      1.0  0.42091  0.33908  0.53410  1.0000
  H   H163      1.0  0.25576  0.02828  0.53883  1.0000
  H   H164      1.0  0.41316  0.28066  0.54138  1.0000
  H   H165      1.0  0.14734  0.34886  0.79148  1.0000
  H   H166      1.0  0.28360  0.34833  0.71124  1.0000
  H   H167      1.0  0.11306  0.34867  0.58457  1.0000
  H   H168      1.0  0.31773  0.01706  0.56129  1.0000
  H   H169      1.0  0.28042  0.02083  0.60922  1.0000
  S   S17       1.0  0.23980  0.40143  0.47928  1.0000
  C   C100      1.0  0.06220  0.39758  0.50064  1.0000
  S   S18       1.0  0.25663  0.40589  0.32886  1.0000
  Fe  Fe7       1.0  0.43637  0.56037  0.22532  1.0000
  H   H170      1.0  0.11220  0.59791  0.21533  1.0000
  S   S19       1.0  0.41774  0.54705  0.13566  1.0000
  Fe  Fe8       1.0  0.39915  0.60272  0.30706  1.0000
  S   S20       1.0  0.45622  0.58535  0.37693  1.0000
  S   S21       1.0  0.34183  0.63849  0.31869  1.0000
  S   S22       1.0  0.02723  0.60575  0.34662  1.0000
  C   C101      1.0  0.48525  0.35590  0.47246  1.0000
  Fe  Fe9       1.0  0.43978  0.53640  0.33919  1.0000
  S   S23       1.0  0.43315  0.49852  0.39924  1.0000
  S   S24       1.0  0.45131  0.61163  0.25500  1.0000
  S   S25       1.0  0.37984  0.55343  0.27251  1.0000
  S   S26       1.0  0.06229  0.61938  0.47627  1.0000
  Fe  Fe10      1.0  0.09308  0.62505  0.40360  1.0000
  S   S27       1.0  0.16430  0.59800  0.41252  1.0000
  C   C102      1.0  0.41045  0.38442  0.31065  1.0000
  C   C103      1.0  0.29178  0.62639  0.34280  1.0000
  C   C104      1.0  0.25489  0.64888  0.34331  1.0000
  C   C105      1.0  0.21520  0.64044  0.36359  1.0000
  C   C106      1.0  0.21235  0.60948  0.38427  1.0000
  C   C107      1.0  0.24943  0.58705  0.38411  1.0000
  C   C108      1.0  0.28875  0.59530  0.36308  1.0000
  H   H171      1.0  0.07386  0.36776  0.27267  1.0000
  H   H172      1.0  0.38871  0.40432  0.48113  1.0000
  H   H173      1.0  0.24780  0.56319  0.40051  1.0000
  H   H174      1.0  0.31700  0.57779  0.36321  1.0000
  C   C109      1.0  0.38146  0.47535  0.37896  1.0000
  C   C110      1.0  0.36228  0.46065  0.41818  1.0000
  C   C111      1.0  0.32401  0.43926  0.40305  1.0000
  C   C112      1.0  0.30442  0.43275  0.34863  1.0000
  C   C113      1.0  0.32289  0.44803  0.30930  1.0000
  C   C114      1.0  0.36136  0.46940  0.32437  1.0000
  H   H175      1.0  0.37747  0.46546  0.46037  1.0000
  H   H176      1.0  0.30996  0.42768  0.43358  1.0000
  H   H177      1.0  0.30807  0.44273  0.26720  1.0000
  H   H178      1.0  0.37649  0.48033  0.29387  1.0000
  C   C115      1.0  0.45545  0.54059  0.09023  1.0000
  C   C116      1.0  0.40675  0.63175  0.47485  1.0000
  H   H179      1.0  0.18705  0.65800  0.36365  1.0000
  H   H180      1.0  0.44304  0.41718  0.46639  1.0000
  H   H181      1.0  0.36864  0.35042  0.48696  1.0000
  C   C117      1.0  0.41005  0.36586  0.40517  1.0000
  H   H182      1.0  0.33192  0.65885  0.52076  1.0000
  H   H183      1.0  0.10881  0.60706  0.28356  1.0000
  C   C118      1.0  0.38495  0.58404  0.51859  1.0000
  C   C119      1.0  0.10325  0.51136  0.52081  1.0000
  H   H184      1.0  0.30134  0.47609  0.18989  1.0000
  H   H185      1.0  0.31829  0.63424  0.46226  1.0000
  H   H186      1.0  0.47096  0.38668  0.37804  1.0000
  H   H187      1.0  0.32512  0.51555  0.18356  1.0000
  H   H188      1.0  0.37118  0.37170  0.39856  1.0000
  C   C120      1.0  0.01265  0.35012  0.49849  1.0000
  C   C121      1.0  0.06992  0.50309  0.42036  1.0000
  H   H189      1.0  0.18529  0.47924  0.43073  1.0000
  H   H190      1.0  0.08277  0.44027  0.26186  1.0000
  C   C122      1.0  0.10198  0.52406  0.46347  1.0000
  S   S28       1.0  0.49462  0.53838  0.28982  1.0000
  H   H191      1.0  0.06877  0.35321  0.17717  1.0000
  H   H192      1.0  0.42383  0.41511  0.38002  1.0000
  H   H193      1.0  0.26169  0.49393  0.51895  1.0000
  H   H194      1.0  0.27101  0.50332  0.13760  1.0000
  H   H195      1.0  0.39035  0.61903  0.43626  1.0000
  H   H196      1.0  0.36362  0.57485  0.47906  1.0000
  C   C123      1.0  0.43172  0.38970  0.37083  1.0000
  S   S29       1.0  0.11464  0.41594  0.49345  1.0000
  H   H197      1.0  0.10878  0.48477  0.51998  1.0000
  Fe  Fe11      1.0  0.03315  0.66960  0.45897  1.0000
  H   H198      1.0  0.03311  0.50257  0.42685  1.0000
  H   H199      1.0  0.08422  0.47793  0.42133  1.0000
  H   H200      1.0  0.42393  0.40319  0.28720  1.0000
  H   H201      1.0  0.08707  0.54905  0.45865  1.0000
  N   N6        1.0  0.18400  0.50817  0.24978  1.0000
  C   C124      1.0  0.13698  0.49096  0.23144  1.0000
  C   C125      1.0  0.17571  0.54430  0.24376  1.0000
  C   C126      1.0  0.21493  0.49803  0.21189  1.0000
  C   C127      1.0  0.20964  0.49973  0.30689  1.0000
  C   C128      1.0  0.17822  0.49174  0.34697  1.0000
  C   C129      1.0  0.26286  0.51610  0.21831  1.0000
  C   C130      1.0  0.13995  0.55989  0.27347  1.0000
  H   H202      1.0  0.16797  0.44280  0.25825  1.0000
  C   C131      1.0  0.20848  0.48680  0.40400  1.0000
  C   C132      1.0  0.29168  0.50179  0.18010  1.0000
  H   H203      1.0  0.11707  0.50062  0.19179  1.0000
  H   H204      1.0  0.11326  0.49594  0.25914  1.0000
  H   H205      1.0  0.20964  0.55761  0.25919  1.0000
  H   H206      1.0  0.16348  0.55049  0.20023  1.0000
  H   H207      1.0  0.19480  0.50093  0.16918  1.0000
  H   H208      1.0  0.22451  0.47182  0.21686  1.0000
  H   H209      1.0  0.23288  0.47806  0.30703  1.0000
  H   H210      1.0  0.23463  0.51943  0.32493  1.0000
  H   H211      1.0  0.15858  0.46884  0.33514  1.0000
  H   H212      1.0  0.15161  0.51095  0.34866  1.0000
  H   H213      1.0  0.28452  0.51435  0.26033  1.0000
  H   H214      1.0  0.25680  0.54207  0.20776  1.0000
  H   H215      1.0  0.10476  0.54791  0.26365  1.0000
  H   H216      1.0  0.25698  0.67300  0.32782  1.0000
  H   H217      1.0  0.09640  0.41094  0.21470  1.0000
  H   H218      1.0  0.19660  0.53292  0.52644  1.0000
  H   H219      1.0  0.16535  0.60891  0.26537  1.0000
  H   H220      1.0  0.22668  0.50958  0.42012  1.0000
  C   C133      1.0  0.29582  0.61347  0.52788  1.0000
  C   C134      1.0  0.09300  0.43723  0.22271  1.0000
  H   H221      1.0  0.36626  0.67528  0.44116  1.0000
  S   S30       1.0  0.15887  0.36484  0.38471  1.0000
  N   N7        1.0  0.43318  0.36500  0.46484  1.0000
  H   H222      1.0  0.44523  0.62510  0.48414  1.0000
  H   H223      1.0  0.42073  0.36017  0.29755  1.0000
  C   C135      1.0  0.05285  0.36490  0.48708  1.0000
  Fe  Fe12      1.0  0.23481  0.38049  0.39695  1.0000
  H   H224      1.0  0.06825  0.51340  0.37994  1.0000
  H   H225      1.0  0.13798  0.52421  0.45517  1.0000
  C   C136      1.0  0.14066  0.45361  0.22484  1.0000
  C   C137      1.0  0.43461  0.53351  0.03579  1.0000
  H   H226      1.0  0.23542  0.46738  0.40437  1.0000
  C   C138      1.0  0.13116  0.59558  0.25834  1.0000
  H   H227      1.0  0.15108  0.44775  0.18652  1.0000
  H   H228      1.0  0.15495  0.55902  0.31741  1.0000
  C   C139      1.0  0.44591  0.63545  0.06256  1.0000
  C   C140      1.0  0.33309  0.63326  0.50672  1.0000
  Fe  Fe13      1.0  0.16649  0.38153  0.46989  1.0000
  H   H229      1.0  0.06456  0.44762  0.18996  1.0000
  H   H230      1.0  0.37090  0.38637  0.30157  1.0000
  C   C141      1.0  0.42738  0.39835  0.48760  1.0000
  H   H231      1.0  0.23669  0.64386  0.48519  1.0000
  C   C142      1.0  0.40325  0.66864  0.46259  1.0000
  H   H232      1.0  0.06651  0.51469  0.52709  1.0000
  H   H233      1.0  0.40746  0.51997  0.50216  1.0000
  H   H234      1.0  0.42935  0.66329  0.38908  1.0000
  H   H235      1.0  0.45071  0.57129  0.49292  1.0000
  C   C143      1.0  0.47616  0.65382  0.11070  1.0000
  C   C144      1.0  0.03051  0.41570  0.52315  1.0000
  H   H236      1.0  0.45382  0.65747  0.14042  1.0000
  H   H237      1.0  0.28604  0.59151  0.50218  1.0000
  C   C145      1.0  0.25031  0.63326  0.52576  1.0000
  N   N8        1.0  0.38402  0.62065  0.51923  1.0000
  Fe  Fe14      1.0  0.26403  0.35206  0.51010  1.0000
  S   S31       1.0  0.06915  0.67737  0.39071  1.0000
  H   H238      1.0  0.07724  0.35091  0.46924  1.0000
  H   H239      1.0  0.13856  0.57316  0.52669  1.0000
  H   H240      1.0  0.18380  0.47145  0.52827  1.0000
  H   H241      1.0  0.48439  0.67788  0.09664  1.0000
  C   C146      1.0  0.43517  0.56791  0.52835  1.0000
  H   H242      1.0  0.43491  0.61165  0.07544  1.0000
  H   H243      1.0  0.47442  0.67436  0.44842  1.0000
  C   C147      1.0  0.43662  0.67800  0.42674  1.0000
  H   H244      1.0  0.41319  0.64970  0.04493  1.0000
  H   H245      1.0  0.03714  0.44106  0.53281  1.0000
  S   S32       1.0  0.38901  0.45852  0.75052  1.0000
  H   H246      1.0  0.30118  0.44490  0.67485  1.0000
  H   H247      1.0  0.01798  0.55543  0.62688  1.0000
  H   H248      1.0  0.21951  0.42439  0.72994  1.0000
  C   C148      1.0  0.23541  0.38238  0.78235  1.0000
  H   H249      1.0  0.45309  0.44055  0.61057  1.0000
  H   H250      1.0  0.31633  0.35135  0.88192  1.0000
  C   C149      1.0  0.12309  0.38210  0.65046  1.0000
  H   H251      1.0  0.44389  0.40629  0.71548  1.0000
  H   H252      1.0  0.06700  0.37429  0.77667  1.0000
  H   H253      1.0  0.13200  0.46223  0.60420  1.0000
  C   C150      1.0  0.36879  0.35857  0.80211  1.0000
  H   H254      1.0  0.14853  0.62994  0.56866  1.0000
  H   H255      1.0  0.26893  0.45704  0.55708  1.0000
  H   H256      1.0  0.00744  0.56447  0.72539  1.0000
  H   H257      1.0  0.09805  0.48932  0.70210  1.0000
  C   C151      1.0  0.41237  0.63461  0.57191  1.0000
  H   H258      1.0  0.36615  0.62722  0.62785  1.0000
  H   H259      1.0  0.46612  0.63138  0.03092  1.0000
  H   H260      1.0  0.15328  0.46784  0.70314  1.0000
  C   C152      1.0  0.39301  0.37948  0.65528  1.0000
  H   H261      1.0  0.27659  0.40070  0.60757  1.0000
  H   H262      1.0  0.21484  0.53247  0.59741  1.0000
  C   C153      1.0  0.37433  0.42874  0.69939  1.0000
  C   C154      1.0  0.32711  0.42694  0.66881  1.0000
  C   C155      1.0  0.31310  0.40191  0.63077  1.0000
  C   C156      1.0  0.34594  0.37794  0.62422  1.0000
  C   C157      1.0  0.40754  0.40527  0.69175  1.0000
  H   H263      1.0  0.22547  0.37421  0.81954  1.0000
  H   H264      1.0  0.16258  0.38204  0.65751  1.0000
  C   C158      1.0  0.07366  0.35087  0.79575  1.0000
  S   S33       1.0  0.47309  0.52813  0.81166  1.0000
  N   N9        1.0  0.13889  0.52701  0.56677  1.0000
  C   C159      1.0  0.46295  0.52829  0.99818  1.0000
  H   H265      1.0  0.28208  0.49518  0.59168  1.0000
  H   H266      1.0  0.44375  0.45682  0.54362  1.0000
  H   H267      1.0  0.36729  0.57408  0.54905  1.0000
  H   H268      1.0  0.10430  0.62156  0.60660  1.0000
  H   H269      1.0  0.43053  0.62424  0.71110  1.0000
  H   H270      1.0  0.15448  0.57518  0.65083  1.0000
  H   H271      1.0  0.07432  0.47953  0.60106  1.0000
  C   C160      1.0  0.45060  0.40407  0.54797  1.0000
  H   H272      1.0  0.21936  0.36559  0.74900  1.0000
  H   H273      1.0  0.10879  0.40259  0.62340  1.0000
  C   C161      1.0  0.39370  0.38016  0.85046  1.0000
  H   H274      1.0  0.30917  0.60525  0.56975  1.0000
  C   C162      1.0  0.14273  0.61934  0.60642  1.0000
  H   H275      1.0  0.09662  0.44754  0.68194  1.0000
  H   H276      1.0  0.22732  0.43356  0.80104  1.0000
  C   C163      1.0  0.15889  0.58385  0.61132  1.0000
  Fe  Fe15      1.0  0.46489  0.47650  0.78104  1.0000
  H   H277      1.0  0.09138  0.56829  0.56041  1.0000
  C   C164      1.0  0.43471  0.43657  0.56764  1.0000
  C   C165      1.0  0.40268  0.62078  0.62443  1.0000
  C   C166      1.0  0.43689  0.63530  0.67391  1.0000
  H   H278      1.0  0.17355  0.41432  0.76429  1.0000
  H   H279      1.0  0.19745  0.58325  0.61172  1.0000
  H   H280      1.0  0.44085  0.38508  0.57349  1.0000
  H   H281      1.0  0.16478  0.51805  0.65237  1.0000
  H   H282      1.0  0.30252  0.39894  0.82882  1.0000
  H   H283      1.0  0.37933  0.40531  0.84600  1.0000
  H   H284      1.0  0.42055  0.52655  0.57442  1.0000
  H   H285      1.0  0.29930  0.39811  0.75839  1.0000
  C   C167      1.0  0.18966  0.52097  0.56272  1.0000
  H   H286      1.0  0.41838  0.36069  0.65109  1.0000
  C   C168      1.0  0.29056  0.38394  0.79177  1.0000
  C   C169      1.0  0.11547  0.47075  0.68112  1.0000
  H   H287      1.0  0.44630  0.52282  0.95652  1.0000
  H   H288      1.0  0.10426  0.53106  0.63362  1.0000
  C   C170      1.0  0.21271  0.41577  0.76855  1.0000
  C   C171      1.0  0.11243  0.48055  0.62280  1.0000
  H   H289      1.0  0.40775  0.59411  0.62665  1.0000
  H   H290      1.0  0.16362  0.63354  0.64099  1.0000
  H   H291      1.0  0.43136  0.66191  0.67609  1.0000
  C   C172      1.0  0.13133  0.51548  0.62033  1.0000
  H   H292      1.0  0.45348  0.39335  0.81642  1.0000
  H   H293      1.0  0.45128  0.63197  0.57463  1.0000
  H   H294      1.0  0.39561  0.43672  0.56464  1.0000
  C   C173      1.0  0.12998  0.56317  0.56367  1.0000
  H   H295      1.0  0.20490  0.47343  0.60087  1.0000
  H   H296      1.0  0.11245  0.38577  0.68924  1.0000
  C   C174      1.0  0.20608  0.48518  0.56238  1.0000
  H   H297      1.0  0.25719  0.65318  0.55612  1.0000
  C   C175      1.0  0.25782  0.48286  0.55714  1.0000
  H   H298      1.0  0.47456  0.63029  0.67268  1.0000
  H   H299      1.0  0.06328  0.35234  0.61588  1.0000
  H   H300      1.0  0.46000  0.57814  0.56445  1.0000
  C   C176      1.0  0.44719  0.38244  0.85375  1.0000
  H   H301      1.0  0.46407  0.39813  0.88846  1.0000
  H   H302      1.0  0.37332  0.37063  0.76488  1.0000
  H   H303      1.0  0.40626  0.66119  0.57387  1.0000
  H   H304      1.0  0.46837  0.52027  0.54081  1.0000
  C   C177      1.0  0.10266  0.35050  0.62367  1.0000
  N   N10       1.0  0.31656  0.35170  0.79705  1.0000
  H   H305      1.0  0.39619  0.53204  0.02256  1.0000
  H   H306      1.0  0.38933  0.37022  0.88918  1.0000
  H   H307      1.0  0.00238  0.58217  0.53763  1.0000
  H   H308      1.0  0.46437  0.35811  0.85956  1.0000
  H   H309      1.0  0.49003  0.40469  0.55431  1.0000
  C   C178      1.0  0.43253  0.53144  0.53694  1.0000
  H   H310      1.0  0.22227  0.61735  0.53444  1.0000
  H   H311      1.0  0.01471  0.79975  0.51281  1.0000
  H   H312      1.0  0.29535  0.96517  0.03854  1.0000
  H   H313      1.0  0.43671  0.97118  0.34639  1.0000
  C   C179      1.0  0.27790  0.99574  0.09889  1.0000
  C   C180      1.0  0.04351  0.93563  0.12193  1.0000
  H   H314      1.0  0.43117  0.70395  0.41566  1.0000
  H   H315      1.0  0.48580  0.96647  0.43892  1.0000
  H   H316      1.0  0.45655  0.95174  0.29188  1.0000
  H   H317      1.0  0.06437  0.99359  0.03866  1.0000
  H   H318      1.0  0.06605  0.91352  0.12277  1.0000
  H   H319      1.0  0.04043  0.94116  0.16366  1.0000
  H   H320      1.0  0.39953  0.99113  0.45722  1.0000
  H   H321      1.0  0.44004  0.92732  0.34275  1.0000
  C   C181      1.0  0.45728  0.95025  0.33552  1.0000
  H   H322      1.0  0.49745  0.92433  0.43465  1.0000
  C   C182      1.0  0.42728  0.00721  0.47820  1.0000
  H   H323      1.0  0.06147  0.95590  0.10684  1.0000
  H   H324      1.0  0.48674  0.92661  0.51903  1.0000
  S   S34       1.0  0.02713  0.70486  0.52508  1.0000
  C   C183      1.0  0.28382  0.99066  0.04141  1.0000
  C   C184      1.0  0.04375  0.01531  0.04110  1.0000
  H   H325      1.0  0.02544  0.84264  0.51102  1.0000
  H   H326      1.0  0.25005  0.97920  0.10644  1.0000
  H   H327      1.0  0.31193  0.99031  0.12847  1.0000
  H   H328      1.0  0.41310  0.68360  0.49970  1.0000
  H   H329      1.0  0.35141  0.01532  0.06271  1.0000
  C   C185      1.0  0.01170  0.82336  0.53325  1.0000
  Fe  Fe16      1.0  0.02599  0.90009  0.84444  1.0000
  H   H330      1.0  0.13350  0.71337  0.62914  1.0000
  Fe  Fe17      1.0  0.47358  0.94529  0.76909  1.0000
  S   S35       1.0  0.42437  0.92356  0.69570  1.0000
  H   H331      1.0  0.04007  0.76728  0.75319  1.0000
  Fe  Fe18      1.0  0.42069  0.97348  0.65988  1.0000
  S   S36       1.0  0.41362  0.97857  0.56953  1.0000
  Fe  Fe19      1.0  0.36538  0.94095  0.73359  1.0000
  S   S37       1.0  0.29725  0.91320  0.72808  1.0000
  S   S38       1.0  0.47469  0.99388  0.73005  1.0000
  S   S39       1.0  0.41483  0.95871  0.80962  1.0000
  H   H332      1.0  0.02580  0.98996  0.74647  1.0000
  Fe  Fe20      1.0  0.12347  0.91712  0.91642  1.0000
  S   S40       1.0  0.20373  0.92065  0.92955  1.0000
  H   H333      1.0  0.14384  0.78634  0.65511  1.0000
  H   H334      1.0  0.03800  0.84694  0.60963  1.0000
  H   H335      1.0  0.49827  0.81879  0.71648  1.0000
  C   C186      1.0  0.45612  0.84013  0.76719  1.0000
  S   S41       1.0  0.35810  0.98917  0.69263  1.0000
  H   H336      1.0  0.13405  0.79358  0.76809  1.0000
  C   C187      1.0  0.27142  0.91495  0.78419  1.0000
  C   C188      1.0  0.29993  0.91643  0.83659  1.0000
  C   C189      1.0  0.27872  0.91722  0.88088  1.0000
  C   C190      1.0  0.22891  0.91724  0.87308  1.0000
  C   C191      1.0  0.20034  0.91552  0.82070  1.0000
  C   C192      1.0  0.22160  0.91398  0.77638  1.0000
  H   H337      1.0  0.33832  0.91613  0.84288  1.0000
  H   H338      1.0  0.30090  0.91773  0.92131  1.0000
  H   H339      1.0  0.16193  0.91562  0.81432  1.0000
  H   H340      1.0  0.19941  0.91260  0.73591  1.0000
  H   H341      1.0  0.34191  0.95688  0.98642  1.0000
  H   H342      1.0  0.17480  0.73143  0.68647  1.0000
  C   C193      1.0  0.15440  0.73542  0.64437  1.0000
  C   C194      1.0  0.07862  0.81747  0.70556  1.0000
  H   H343      1.0  0.25020  0.01473  0.79116  1.0000
  S   S42       1.0  0.09184  0.93394  0.98478  1.0000
  S   S43       1.0  0.08120  0.87109  0.90239  1.0000
  C   C195      1.0  0.29315  0.01579  0.87336  1.0000
  H   H344      1.0  0.10273  0.76762  0.59831  1.0000
  Fe  Fe21      1.0  0.04441  0.89063  0.96435  1.0000
  C   C196      1.0  0.01895  0.77786  0.71496  1.0000
  H   H345      1.0  0.36302  0.96400  0.90001  1.0000
  C   C197      1.0  0.10760  0.81361  0.76460  1.0000
  Fe  Fe22      1.0  0.03729  0.95913  0.92115  1.0000
  H   H346      1.0  0.44185  0.81679  0.77764  1.0000
  N   N11       1.0  0.05159  0.78804  0.67956  1.0000
  H   H347      1.0  0.47064  0.00997  0.87916  1.0000
  C   C198      1.0  0.13482  0.84461  0.78483  1.0000
  H   H348      1.0  0.16083  0.85018  0.76026  1.0000
  H   H349      1.0  0.10367  0.75177  0.71650  1.0000
  H   H350      1.0  0.42997  0.85066  0.73239  1.0000
  S   S44       1.0  0.07158  0.94496  0.85331  1.0000
  H   H351      1.0  0.03861  0.79362  0.87420  1.0000
  C   C199      1.0  0.44107  0.00668  0.53476  1.0000
  H   H352      1.0  0.01363  0.77428  0.59899  1.0000
  H   H353      1.0  0.41415  0.98809  0.93130  1.0000
  C   C200      1.0  0.38978  0.96878  0.93789  1.0000
  H   H354      1.0  0.39209  0.97863  0.02176  1.0000
  H   H355      1.0  0.05313  0.83804  0.70532  1.0000
  H   H356      1.0  0.15477  0.84162  0.82738  1.0000
  C   C201      1.0  0.41916  0.93764  0.95212  1.0000
  C   C202      1.0  0.12129  0.76490  0.64134  1.0000
  H   H357      1.0  0.07854  0.81837  0.59089  1.0000
  H   H358      1.0  0.48597  0.89732  0.87644  1.0000
  H   H359      1.0  0.08366  0.80897  0.79197  1.0000
  C   C203      1.0  0.08440  0.75981  0.67570  1.0000
  Fe  Fe23      1.0  0.41206  0.00571  0.76557  1.0000
  S   S45       1.0  0.01104  0.01049  0.93006  1.0000
  C   C204      1.0  0.29064  0.00519  0.93090  1.0000
  H   H360      1.0  0.43674  0.93108  0.91920  1.0000
  H   H361      1.0  0.10395  0.82600  0.68214  1.0000
  H   H362      1.0  0.06337  0.73842  0.65732  1.0000
  H   H363      1.0  0.10964  0.86539  0.78306  1.0000
  H   H364      1.0  0.18012  0.73952  0.61884  1.0000
  H   H365      1.0  0.27750  0.97980  0.92867  1.0000
  H   H366      1.0  0.32415  0.00521  0.86052  1.0000
  C   C205      1.0  0.36457  0.97796  0.98302  1.0000
  S   S46       1.0  0.02787  0.85886  0.02870  1.0000
  C   C206      1.0  0.04075  0.82254  0.59160  1.0000
  H   H367      1.0  0.39583  0.91720  0.95716  1.0000
  H   H368      1.0  0.44717  0.94092  0.98984  1.0000
  H   H369      1.0  0.45991  0.85721  0.80179  1.0000
  H   H370      1.0  0.24820  0.99349  0.01347  1.0000
  C   C207      1.0  0.24815  0.00614  0.83159  1.0000
  C   C208      1.0  0.02135  0.79654  0.62440  1.0000
  H   H371      1.0  0.24466  0.97944  0.82944  1.0000
  N   N12       1.0  0.33528  0.00882  0.97577  1.0000
  C   C209      1.0  0.31995  0.01519  0.02776  1.0000
  Fe  Fe24      1.0  0.58869  0.09098  0.28311  1.0000
  S   S47       1.0  0.55698  0.05787  0.21347  1.0000
  S   S48       1.0  0.65346  0.12343  0.29493  1.0000
  H   H372      1.0  0.96444  0.05680  0.26589  1.0000
  H   H373      1.0  0.91226  0.26300  0.13089  1.0000
  Fe  Fe25      1.0  0.55719  0.02082  0.27713  1.0000
  C   C210      1.0  0.90438  0.25282  0.41869  1.0000
  S   S49       1.0  0.51409  0.07566  0.43920  1.0000
  H   H374      1.0  0.59923  0.08460  0.07604  1.0000
  H   H375      1.0  0.75162  0.05455  0.08620  1.0000
  S   S50       1.0  0.90535  0.12875  0.09121  1.0000
  H   H376      1.0  0.80474  0.30125  0.37655  1.0000
  S   S51       1.0  0.88357  0.19262  0.15812  1.0000
  Fe  Fe26      1.0  0.86236  0.14032  0.15185  1.0000
  S   S52       1.0  0.78767  0.12009  0.13025  1.0000
  Fe  Fe27      1.0  0.93287  0.17931  0.10529  1.0000
  S   S53       1.0  0.91943  0.12474  0.22332  1.0000
  H   H377      1.0  0.91753  0.31839  0.43877  1.0000
  C   C211      1.0  0.69034  0.12254  0.24874  1.0000
  C   C212      1.0  0.67570  0.10740  0.19848  1.0000
  C   C213      1.0  0.70575  0.10710  0.16232  1.0000
  C   C214      1.0  0.75072  0.12178  0.17635  1.0000
  C   C215      1.0  0.76571  0.13657  0.22693  1.0000
  C   C216      1.0  0.73538  0.13717  0.26285  1.0000
  H   H378      1.0  0.64093  0.09642  0.18737  1.0000
  H   H379      1.0  0.69403  0.09561  0.12324  1.0000
  H   H380      1.0  0.80046  0.14769  0.23817  1.0000
  H   H381      1.0  0.74686  0.14886  0.30180  1.0000
  H   H382      1.0  0.85614  0.23529  0.23733  1.0000
  N   N13       1.0  0.87614  0.28097  0.38893  1.0000
  H   H383      1.0  0.97711  0.21345  0.47991  1.0000
  H   H384      1.0  0.75182  0.03193  0.19578  1.0000
  H   H385      1.0  0.87980  0.23377  0.42650  1.0000
  H   H386      1.0  0.94036  0.30588  0.38357  1.0000
  Fe  Fe28      1.0  0.52182  0.06820  0.35277  1.0000
  Fe  Fe29      1.0  0.94426  0.17672  0.22592  1.0000
  C   C217      1.0  0.81650  0.04552  0.28868  1.0000
  H   H387      1.0  0.80659  0.21064  0.24358  1.0000
  H   H388      1.0  0.88095  0.33772  0.32027  1.0000
  H   H389      1.0  0.63785  0.03997  0.03781  1.0000
  H   H390      1.0  0.97278  0.27228  0.46341  1.0000
  S   S54       1.0  0.99475  0.16641  0.17309  1.0000
  C   C218      1.0  0.94105  0.26048  0.47230  1.0000
  H   H391      1.0  0.76328  0.32516  0.44281  1.0000
  H   H392      1.0  0.82740  0.07084  0.28262  1.0000
  H   H393      1.0  0.99386  0.27004  0.35628  1.0000
  H   H394      1.0  0.85300  0.28604  0.49493  1.0000
  H   H395      1.0  0.79329  0.06158  0.18710  1.0000
  H   H396      1.0  0.96825  0.01838  0.23240  1.0000
  C   C219      1.0  0.83008  0.28630  0.40659  1.0000
  C   C220      1.0  0.93359  0.27161  0.17057  1.0000
  H   H397      1.0  0.77780  0.08702  0.35469  1.0000
  S   S55       1.0  0.59465  0.05226  0.34532  1.0000
  C   C221      1.0  0.78920  0.03517  0.19243  1.0000
  C   C222      1.0  0.99062  0.07175  0.04763  1.0000
  C   C223      1.0  0.56366  0.33632  0.53228  1.0000
  C   C224      1.0  0.83373  0.30220  0.46260  1.0000
  H   H398      1.0  0.99318  0.02260  0.30375  1.0000
  C   C225      1.0  0.50964  0.33847  0.52567  1.0000
  C   C226      1.0  0.78425  0.30824  0.47308  1.0000
  H   H399      1.0  0.71693  0.02127  0.10161  1.0000
  H   H400      1.0  0.92660  0.27690  0.49911  1.0000
  H   H401      1.0  0.62137  0.04718  0.46966  1.0000
  C   C227      1.0  0.59194  0.05920  0.08551  1.0000
  H   H402      1.0  0.84708  0.34616  0.37010  1.0000
  C   C228      1.0  0.90639  0.31105  0.39581  1.0000
  H   H403      1.0  0.97016  0.09351  0.04929  1.0000
  H   H404      1.0  0.87765  0.05489  0.22420  1.0000
  H   H405      1.0  0.92604  0.24062  0.39306  1.0000
  C   C229      1.0  0.76440  0.04761  0.29573  1.0000
  H   H406      1.0  0.80315  0.23926  0.32835  1.0000
  C   C230      1.0  0.91577  0.01997  0.28200  1.0000
  Fe  Fe30      1.0  0.96402  0.11625  0.16236  1.0000
  S   S56       1.0  0.96047  0.21185  0.29719  1.0000
  H   H407      1.0  0.85155  0.32602  0.46580  1.0000
  H   H408      1.0  0.78122  0.04680  0.38362  1.0000
  H   H409      1.0  0.61601  0.05273  0.12478  1.0000
  H   H410      1.0  0.89649  0.27111  0.31373  1.0000
  C   C231      1.0  0.96316  0.03007  0.27012  1.0000
  S   S57       1.0  0.51768  0.10949  0.29442  1.0000
  H   H411      1.0  0.84046  0.29140  0.30599  1.0000
  C   C232      1.0  0.86353  0.27231  0.32961  1.0000
  H   H412      1.0  0.92249  0.25809  0.20288  1.0000
  H   H413      1.0  0.79822  0.25368  0.23357  1.0000
  H   H414      1.0  0.81151  0.26290  0.40744  1.0000
  H   H415      1.0  0.85938  0.21886  0.33230  1.0000
  C   C233      1.0  0.83679  0.23976  0.31445  1.0000
  C   C234      1.0  0.82364  0.23465  0.25345  1.0000
  C   C235      1.0  0.95815  0.22950  0.50347  1.0000
  C   C236      1.0  0.88335  0.34127  0.36400  1.0000
  H   H416      1.0  0.83985  0.03803  0.32768  1.0000
  H   H417      1.0  0.99178  0.23931  0.16965  1.0000
  C   C237      1.0  0.87348  0.02907  0.23483  1.0000
  H   H418      1.0  0.92616  0.29776  0.17575  1.0000
  H   H419      1.0  0.57249  0.32309  0.49768  1.0000
  H   H420      1.0  0.98656  0.27173  0.09172  1.0000
  H   H421      1.0  0.98683  0.30878  0.12638  1.0000
  C   C238      1.0  0.75146  0.02798  0.09279  1.0000
  H   H422      1.0  0.76463  0.28510  0.47174  1.0000
  C   C239      1.0  0.76205  0.06240  0.35015  1.0000
  H   H423      1.0  0.92755  0.21630  0.51241  1.0000
  C   C240      1.0  0.60063  0.03643  0.04121  1.0000
  C   C241      1.0  0.98672  0.26572  0.17469  1.0000
  H   H424      1.0  0.91311  0.03195  0.32024  1.0000
  N   N14       1.0  0.82389  0.02396  0.24310  1.0000
  H   H425      1.0  0.82602  0.02561  0.12756  1.0000
  H   H426      1.0  0.74274  0.06341  0.26423  1.0000
  H   H427      1.0  0.72414  0.06467  0.35259  1.0000
  S   S58       1.0  0.94818  0.21141  0.04088  1.0000
  H   H428      1.0  0.88638  0.05292  0.07558  1.0000
  H   H429      1.0  0.55428  0.05780  0.08891  1.0000
  H   H430      1.0  0.78802  0.31934  0.51371  1.0000
  H   H431      1.0  0.99680  0.15043  0.06369  1.0000
  H   H432      1.0  0.67752  0.03499  0.51279  1.0000
  H   H433      1.0  0.74716  0.02352  0.29172  1.0000
  C   C242      1.0  0.64710  0.02668  0.48037  1.0000
  H   H434      1.0  0.66089  0.01964  0.44467  1.0000
  C   C243      1.0  0.79300  0.01816  0.13910  1.0000
  C   C244      1.0  0.86825  0.04466  0.03434  1.0000
  H   H435      1.0  0.57631  0.04420  0.00292  1.0000
  H   H436      1.0  0.95572  0.30815  0.63782  1.0000
  C   C245      1.0  0.99889  0.03673  0.76829  1.0000
  H   H437      1.0  0.96674  0.04502  0.78158  1.0000
  H   H438      1.0  0.51617  0.06289  0.72651  1.0000
  H   H439      1.0  0.97070  0.06896  0.96104  1.0000
  H   H440      1.0  0.87412  0.06323  0.00539  1.0000
  C   C246      1.0  0.96477  0.13185  0.89446  1.0000
  C   C247      1.0  0.97643  0.29610  0.67467  1.0000
  H   H441      1.0  0.64004  0.33955  0.91491  1.0000
  H   H442      1.0  0.96961  0.14982  0.92791  1.0000
  H   H443      1.0  0.99843  0.04797  0.72888  1.0000
  H   H444      1.0  0.94755  0.14438  0.85648  1.0000
  H   H445      1.0  0.51047  0.10538  0.71061  1.0000
  H   H446      1.0  0.97888  0.09801  0.81218  1.0000
  H   H447      1.0  0.94087  0.11250  0.90226  1.0000
  H   H448      1.0  0.96459  0.30639  0.70984  1.0000
  H   H449      1.0  0.52662  0.06477  0.55258  1.0000
  H   H450      1.0  0.96866  0.26977  0.67215  1.0000
  C   C248      1.0  0.99772  0.19496  0.02086  1.0000
  H   H451      1.0  0.98287  0.23578  0.54235  1.0000
  S   S59       1.0  0.93530  0.34962  0.54452  1.0000
  C   C249      1.0  0.99148  0.05799  0.99730  1.0000
  H   H452      1.0  0.52617  0.03110  0.88854  1.0000
  H   H453      1.0  0.68538  0.34261  0.87707  1.0000
  H   H454      1.0  0.82933  0.04283  0.03123  1.0000
  H   H455      1.0  0.58005  0.32305  0.56982  1.0000
  H   H456      1.0  0.99313  0.06971  0.86557  1.0000
  H   H457      1.0  0.58582  0.58747  0.15661  1.0000
  H   H458      1.0  0.84641  0.58659  0.27582  1.0000
  H   H459      1.0  0.55704  0.61347  0.23874  1.0000
  H   H460      1.0  0.51613  0.45819  0.45219  1.0000
  H   H461      1.0  0.69483  0.66604  0.49002  1.0000
  S   S60       1.0  0.96358  0.65315  0.40689  1.0000
  H   H462      1.0  0.60740  0.55014  0.44721  1.0000
  H   H463      1.0  0.92846  0.49760  0.46405  1.0000
  C   C250      1.0  0.78074  0.64122  0.42229  1.0000
  H   H464      1.0  0.80341  0.60727  0.34561  1.0000
  H   H465      1.0  0.50636  0.37791  0.46897  1.0000
  H   H466      1.0  0.78900  0.50520  0.50673  1.0000
  N   N15       1.0  0.80480  0.65528  0.38117  1.0000
  H   H467      1.0  0.89792  0.39232  0.35601  1.0000
  S   S61       1.0  0.58447  0.60201  0.35393  1.0000
  H   H468      1.0  0.50843  0.61201  0.15229  1.0000
  C   C251      1.0  0.55928  0.50002  0.48355  1.0000
  H   H469      1.0  0.75503  0.59378  0.48784  1.0000
  H   H470      1.0  0.81958  0.41826  0.06777  1.0000
  H   H471      1.0  0.82772  0.59937  0.45247  1.0000
  H   H472      1.0  0.76981  0.63080  0.52666  1.0000
  H   H473      1.0  0.64283  0.55080  0.21498  1.0000
  C   C252      1.0  0.59935  0.63538  0.39796  1.0000
  H   H474      1.0  0.52948  0.65736  0.37775  1.0000
  C   C253      1.0  0.94788  0.51036  0.49955  1.0000
  H   H475      1.0  0.75118  0.62511  0.40160  1.0000
  H   H476      1.0  0.62699  0.67458  0.19084  1.0000
  C   C254      1.0  0.65891  0.66420  0.46547  1.0000
  H   H477      1.0  0.65814  0.49793  0.47103  1.0000
  H   H478      1.0  0.61500  0.41791  0.06207  1.0000
  C   C255      1.0  0.64619  0.63815  0.42917  1.0000
  S   S62       1.0  0.96079  0.67642  0.25739  1.0000
  H   H479      1.0  0.88810  0.61288  0.25454  1.0000
  H   H480      1.0  0.67242  0.61979  0.42599  1.0000
  H   H481      1.0  0.95067  0.36759  0.37862  1.0000
  N   N16       1.0  0.55885  0.65095  0.18087  1.0000
  C   C256      1.0  0.96453  0.54169  0.49474  1.0000
  H   H482      1.0  0.84294  0.63623  0.49098  1.0000
  C   C257      1.0  0.81297  0.62135  0.46831  1.0000
  H   H483      1.0  0.57292  0.44816  0.49604  1.0000
  C   C258      1.0  0.62391  0.56974  0.23341  1.0000
  C   C259      1.0  0.53352  0.53747  0.06901  1.0000
  H   H484      1.0  0.70591  0.52289  0.50748  1.0000
  H   H485      1.0  0.64814  0.57853  0.27125  1.0000
  H   H486      1.0  0.65703  0.52848  0.38700  1.0000
  C   C260      1.0  0.68841  0.52936  0.42190  1.0000
  H   H487      1.0  0.71474  0.51074  0.41565  1.0000
  H   H488      1.0  0.61137  0.63533  0.25230  1.0000
  H   H489      1.0  0.53274  0.62631  0.48664  1.0000
  C   C261      1.0  0.54241  0.46551  0.48949  1.0000
  H   H490      1.0  0.82142  0.64480  0.27383  1.0000
  N   N17       1.0  0.61723  0.54398  0.53356  1.0000
  H   H491      1.0  0.59207  0.55864  0.24329  1.0000
  C   C262      1.0  0.91324  0.37154  0.38186  1.0000
  C   C263      1.0  0.60889  0.59762  0.19391  1.0000
  H   H492      1.0  0.53464  0.43216  0.07397  1.0000
  H   H493      1.0  0.64164  0.60710  0.18388  1.0000
  H   H494      1.0  0.85947  0.61780  0.38868  1.0000
  C   C264      1.0  0.67330  0.52264  0.47432  1.0000
  S   S63       1.0  0.95255  0.55981  0.43066  1.0000
  H   H495      1.0  0.76394  0.66054  0.44230  1.0000
  H   H496      1.0  0.90248  0.59687  0.32175  1.0000
  C   C265      1.0  0.58338  0.62496  0.21908  1.0000
  C   C266      1.0  0.56556  0.65922  0.40200  1.0000
  C   C267      1.0  0.82879  0.62768  0.35779  1.0000
  H   H497      1.0  0.57193  0.53890  0.08218  1.0000
  C   C268      1.0  0.78226  0.41637  0.07212  1.0000
  H   H498      1.0  0.91311  0.37795  0.42421  1.0000
  C   C269      1.0  0.52197  0.63436  0.13675  1.0000
  H   H499      1.0  0.52165  0.54741  0.14853  1.0000
  C   C270      1.0  0.84938  0.63588  0.30836  1.0000
  H   H500      1.0  0.55186  0.56766  0.49204  1.0000
  H   H501      1.0  0.61131  0.65003  0.13250  1.0000
  C   C271      1.0  0.63686  0.54856  0.48424  1.0000
  H   H502      1.0  0.70512  0.55359  0.42348  1.0000
  C   C272      1.0  0.59613  0.66735  0.15790  1.0000
  H   H503      1.0  0.75376  0.65270  0.30364  1.0000
  C   C273      1.0  0.76826  0.67089  0.33572  1.0000
  H   H504      1.0  0.69710  0.66679  0.35202  1.0000
  H   H505      1.0  0.87244  0.66698  0.43547  1.0000
  C   C274      1.0  0.87288  0.60611  0.28907  1.0000
  H   H506      1.0  0.65540  0.57217  0.48644  1.0000
  H   H507      1.0  0.77899  0.43021  0.10868  1.0000
  H   H508      1.0  0.57393  0.50041  0.44710  1.0000
  H   H509      1.0  0.83494  0.53539  0.51372  1.0000
  Fe  Fe31      1.0  0.99560  0.60338  0.41879  1.0000
  H   H510      1.0  0.77460  0.39040  0.07721  1.0000
  H   H511      1.0  0.52495  0.46423  0.52384  1.0000
  H   H512      1.0  0.53846  0.62573  0.10368  1.0000
  H   H513      1.0  0.87716  0.65459  0.31879  1.0000
  H   H514      1.0  0.69332  0.44681  0.06003  1.0000
  H   H515      1.0  0.52757  0.51628  0.47668  1.0000
  Fe  Fe32      1.0  0.50654  0.58922  0.32258  1.0000
  C   C275      1.0  0.78461  0.60979  0.50818  1.0000
  H   H516      1.0  0.68949  0.40500  0.04419  1.0000
  H   H517      1.0  0.61756  0.61139  0.51499  1.0000
  H   H518      1.0  0.58810  0.67645  0.29111  1.0000
  H   H519      1.0  0.56976  0.46824  0.07650  1.0000
  C   C276      1.0  0.55230  0.44819  0.04999  1.0000
  C   C277      1.0  0.55138  0.62763  0.52990  1.0000
  C   C278      1.0  0.53510  0.67424  0.21279  1.0000
  C   C279      1.0  0.57786  0.56866  0.53189  1.0000
  C   C280      1.0  0.50517  0.54243  0.10671  1.0000
  C   C281      1.0  0.84281  0.67922  0.40639  1.0000
  C   C282      1.0  0.98228  0.36807  0.52362  1.0000
  H   H520      1.0  0.50907  0.66102  0.23038  1.0000
  Fe  Fe33      1.0  0.00039  0.65749  0.33934  1.0000
  C   C283      1.0  0.82282  0.51405  0.53299  1.0000
  Fe  Fe34      1.0  0.52985  0.53090  0.76466  1.0000
  S   S64       1.0  0.58860  0.51575  0.83454  1.0000
  S   S65       1.0  0.53345  0.57097  0.70592  1.0000
  H   H521      1.0  0.63644  0.65663  0.66796  1.0000
  H   H522      1.0  0.55653  0.56289  0.56175  1.0000
  Fe  Fe35      1.0  0.53072  0.50867  0.87967  1.0000
  C   C284      1.0  0.71320  0.51280  0.93137  1.0000
  Fe  Fe36      1.0  0.57250  0.46544  0.80227  1.0000
  S   S66       1.0  0.63203  0.42876  0.80363  1.0000
  H   H523      1.0  0.94437  0.47090  0.55269  1.0000
  H   H524      1.0  0.56384  0.65286  0.53954  1.0000
  C   C285      1.0  0.68271  0.49431  0.96244  1.0000
  S   S67       1.0  0.89022  0.43107  0.60310  1.0000
  H   H525      1.0  0.91370  0.60366  0.69546  1.0000
  Fe  Fe37      1.0  0.85700  0.41867  0.67167  1.0000
  S   S68       1.0  0.78248  0.44125  0.65794  1.0000
  Fe  Fe38      1.0  0.92288  0.38133  0.61251  1.0000
  S   S69       1.0  0.91984  0.43622  0.73532  1.0000
  S   S70       1.0  0.51739  0.48079  0.72901  1.0000
  C   C286      1.0  0.91088  0.55159  0.71344  1.0000
  C   C287      1.0  0.67480  0.43365  0.76463  1.0000
  C   C288      1.0  0.66907  0.45707  0.72432  1.0000
  C   C289      1.0  0.70256  0.45911  0.69221  1.0000
  C   C290      1.0  0.74243  0.43822  0.70070  1.0000
  C   C291      1.0  0.74880  0.41536  0.74187  1.0000
  C   C292      1.0  0.71488  0.41294  0.77340  1.0000
  H   H526      1.0  0.63836  0.47313  0.71725  1.0000
  H   H527      1.0  0.69745  0.47679  0.66040  1.0000
  H   H528      1.0  0.77930  0.39912  0.74867  1.0000
  H   H529      1.0  0.71951  0.39470  0.80436  1.0000
  C   C293      1.0  0.58153  0.59801  0.72438  1.0000
  C   C294      1.0  0.59000  0.61985  0.68611  1.0000
  C   C295      1.0  0.62973  0.64033  0.69822  1.0000
  C   C296      1.0  0.65984  0.64026  0.74987  1.0000
  C   C297      1.0  0.65066  0.61903  0.78870  1.0000
  C   C298      1.0  0.61188  0.59771  0.77585  1.0000
  H   H530      1.0  0.56594  0.62066  0.64688  1.0000
  H   H531      1.0  0.90344  0.66645  0.79333  1.0000
  H   H532      1.0  0.67365  0.61902  0.82883  1.0000
  H   H533      1.0  0.60517  0.58145  0.80602  1.0000
  H   H534      1.0  0.70392  0.45024  0.92630  1.0000
  H   H535      1.0  0.89014  0.51664  0.62592  1.0000
  C   C299      1.0  0.85797  0.51081  0.76974  1.0000
  C   C300      1.0  0.82845  0.48525  0.78984  1.0000
  H   H536      1.0  0.91340  0.55615  0.75680  1.0000
  H   H537      1.0  0.89598  0.50291  0.78119  1.0000
  H   H538      1.0  0.85483  0.53353  0.79187  1.0000
  H   H539      1.0  0.83285  0.46128  0.77142  1.0000
  H   H540      1.0  0.84063  0.48299  0.83425  1.0000
  H   H541      1.0  0.79003  0.49213  0.77984  1.0000
  H   H542      1.0  0.71550  0.53952  0.68586  1.0000
  N   N18       1.0  0.86047  0.54398  0.68334  1.0000
  H   H543      1.0  0.80208  0.50116  0.60524  1.0000
  C   C301      1.0  0.86217  0.53552  0.62599  1.0000
  C   C302      1.0  0.84223  0.51475  0.70753  1.0000
  H   H544      1.0  0.71741  0.53826  0.94616  1.0000
  H   H545      1.0  0.84998  0.49440  0.53635  1.0000
  S   S71       1.0  0.98968  0.39681  0.67143  1.0000
  H   H546      1.0  0.64856  0.50788  0.95827  1.0000
  C   C303      1.0  0.74812  0.43003  0.02203  1.0000
  C   C304      1.0  0.98497  0.58635  0.72703  1.0000
  H   H547      1.0  0.63015  0.36464  0.85549  1.0000
  C   C305      1.0  0.90413  0.66762  0.59164  1.0000
  H   H548      1.0  0.70103  0.49447  0.00577  1.0000
  C   C306      1.0  0.93443  0.58111  0.69304  1.0000
  H   H549      1.0  0.93749  0.57753  0.65092  1.0000
  H   H550      1.0  0.81816  0.63711  0.71215  1.0000
  H   H551      1.0  0.74913  0.50144  0.93724  1.0000
  C   C307      1.0  0.67237  0.45934  0.93995  1.0000
  H   H552      1.0  0.61102  0.41020  0.91104  1.0000
  C   C308      1.0  0.95669  0.49520  0.54993  1.0000
  H   H553      1.0  0.79030  0.56612  0.66067  1.0000
  C   C309      1.0  0.82336  0.58677  0.73703  1.0000
  H   H554      1.0  0.75379  0.41623  0.98668  1.0000
  H   H555      1.0  0.70596  0.37491  0.96087  1.0000
  H   H556      1.0  0.80863  0.59602  0.54096  1.0000
  H   H557      1.0  0.87249  0.55690  0.60523  1.0000
  H   H558      1.0  0.61197  0.56184  0.63934  1.0000
  C   C310      1.0  0.79798  0.61955  0.73059  1.0000
  H   H559      1.0  0.69781  0.39985  0.90143  1.0000
  H   H560      1.0  0.64398  0.46170  0.90224  1.0000
  H   H561      1.0  0.62424  0.47311  0.01735  1.0000
  H   H562      1.0  0.93418  0.53000  0.71260  1.0000
  H   H563      1.0  0.52608  0.62151  0.55486  1.0000
  H   H564      1.0  0.68530  0.52958  0.58444  1.0000
  H   H565      1.0  0.78680  0.54195  0.58290  1.0000
  H   H566      1.0  0.85450  0.49199  0.69085  1.0000
  H   H567      1.0  0.79571  0.62906  0.77077  1.0000
  H   H568      1.0  0.83717  0.59231  0.65734  1.0000
  S   S72       1.0  0.72838  0.66846  0.61914  1.0000
  S   S73       1.0  0.88354  0.36687  0.67461  1.0000
  H   H569      1.0  0.62676  0.38757  0.97175  1.0000
  H   H570      1.0  0.80191  0.57039  0.75608  1.0000
  S   S74       1.0  0.51884  0.45670  0.85226  1.0000
  H   H571      1.0  0.63260  0.52065  0.64473  1.0000
  H   H572      1.0  0.96734  0.41497  0.55352  1.0000
  H   H573      1.0  0.85869  0.59063  0.76459  1.0000
  H   H574      1.0  0.75892  0.45536  0.01741  1.0000
  C   C311      1.0  0.68383  0.55526  0.68489  1.0000
  H   H575      1.0  0.76126  0.61732  0.70514  1.0000
  C   C312      1.0  0.82727  0.57260  0.68186  1.0000
  H   H576      1.0  0.80252  0.51403  0.69546  1.0000
  H   H577      1.0  0.00120  0.60720  0.71092  1.0000
  C   C313      1.0  0.59407  0.60442  0.54138  1.0000
  C   C314      1.0  0.81514  0.52306  0.58866  1.0000
  S   S75       1.0  0.70819  0.66708  0.76746  1.0000
  C   C315      1.0  0.93478  0.64586  0.57380  1.0000
  Fe  Fe39      1.0  0.94914  0.38531  0.73359  1.0000
  H   H578      1.0  0.58670  0.45791  0.95716  1.0000
  H   H579      1.0  0.57884  0.50875  0.56876  1.0000
  H   H580      1.0  0.52443  0.45851  0.01654  1.0000
  H   H581      1.0  0.67538  0.57193  0.58189  1.0000
  C   C316      1.0  0.51263  0.53030  0.01454  1.0000
  C   C317      1.0  0.98993  0.55787  0.54084  1.0000
  H   H582      1.0  0.69590  0.51303  0.88763  1.0000
  C   C318      1.0  0.67938  0.38504  0.92615  1.0000
  C   C319      1.0  0.97275  0.65739  0.55390  1.0000
  C   C320      1.0  0.61414  0.45045  0.99354  1.0000
  H   H583      1.0  0.56906  0.40904  0.00236  1.0000
  H   H584      1.0  0.92441  0.65798  0.86425  1.0000
  S   S76       1.0  0.55027  0.52361  0.96907  1.0000
  Fe  Fe40      1.0  0.95420  0.44578  0.66640  1.0000
  H   H585      1.0  0.69338  0.58104  0.68168  1.0000
  H   H586      1.0  0.86166  0.66615  0.83582  1.0000
  S   S77       1.0  0.85623  0.65237  0.61480  1.0000
  C   C321      1.0  0.64266  0.54587  0.63786  1.0000
  N   N19       1.0  0.65704  0.43574  0.97729  1.0000
  C   C322      1.0  0.64098  0.40481  0.94644  1.0000
  C   C323      1.0  0.98173  0.51134  0.59614  1.0000
  C   C324      1.0  0.65715  0.54838  0.58317  1.0000
  H   H587      1.0  0.67274  0.55230  0.72343  1.0000
  C   C325      1.0  0.69553  0.42902  0.02750  1.0000
  H   H588      1.0  0.92872  0.62004  0.57444  1.0000
  H   H589      1.0  0.61407  0.60834  0.58362  1.0000
  C   C326      1.0  0.89865  0.67257  0.83426  1.0000
  C   C327      1.0  0.65719  0.35622  0.89138  1.0000
  H   H590      1.0  0.98433  0.59171  0.76959  1.0000
  S   S78       1.0  0.98019  0.35370  0.80591  1.0000
  H   H591      1.0  0.50292  0.35082  0.56181  1.0000
  C   C328      1.0  0.58892  0.42876  0.02762  1.0000
  S   S79       1.0  0.99217  0.49298  0.66013  1.0000
  H   H592      1.0  0.62589  0.49197  0.54334  1.0000
  C   C329      1.0  0.99859  0.54270  0.59139  1.0000
  C   C330      1.0  0.99091  0.40090  0.53494  1.0000
  H   H593      1.0  0.99581  0.64049  0.53951  1.0000
  C   C331      1.0  0.59684  0.51057  0.53476  1.0000
  H   H594      1.0  0.57933  0.36095  0.53530  1.0000
  H   H595      1.0  0.84335  0.98128  0.05490  1.0000
  C   C332      1.0  0.88434  0.70932  0.19531  1.0000
  H   H596      1.0  0.94141  0.93246  0.16806  1.0000
  H   H597      1.0  0.89558  0.69834  0.16163  1.0000
  H   H598      1.0  0.77686  0.98281  0.23589  1.0000
  H   H599      1.0  0.67188  0.90149  0.38224  1.0000
  H   H600      1.0  0.96796  0.84145  0.09979  1.0000
  H   H601      1.0  0.60877  0.73522  0.08140  1.0000
  Fe  Fe41      1.0  0.75104  0.80114  0.15114  1.0000
  S   S80       1.0  0.80206  0.84031  0.14105  1.0000
  S   S81       1.0  0.77290  0.76473  0.21940  1.0000
  Fe  Fe42      1.0  0.73940  0.87419  0.13538  1.0000
  S   S82       1.0  0.74290  0.92681  0.16244  1.0000
  S   S83       1.0  0.68961  0.83593  0.15091  1.0000
  S   S84       1.0  0.57667  0.96799  0.27387  1.0000
  C   C333      1.0  0.69714  0.93836  0.19410  1.0000
  C   C334      1.0  0.68276  0.97095  0.19396  1.0000
  C   C335      1.0  0.64618  0.98052  0.21891  1.0000
  C   C336      1.0  0.62350  0.95734  0.24357  1.0000
  C   C337      1.0  0.63793  0.92481  0.24377  1.0000
  C   C338      1.0  0.67478  0.91537  0.21929  1.0000
  H   H602      1.0  0.69917  0.98869  0.17360  1.0000
  H   H603      1.0  0.72257  0.73056  0.30375  1.0000
  H   H604      1.0  0.62056  0.90683  0.26294  1.0000
  H   H605      1.0  0.68610  0.89032  0.22048  1.0000
  C   C339      1.0  0.57865  0.68578  0.43712  1.0000
  H   H606      1.0  0.88056  0.83217  0.08260  1.0000
  H   H607      1.0  0.79293  0.99139  0.14276  1.0000
  H   H608      1.0  0.87305  0.74630  0.41681  1.0000
  H   H609      1.0  0.93272  0.77319  0.08205  1.0000
  H   H610      1.0  0.79768  0.72233  0.40869  1.0000
  H   H611      1.0  0.99957  0.92358  0.04437  1.0000
  C   C340      1.0  0.59357  0.92583  0.46207  1.0000
  H   H612      1.0  0.85933  0.75068  0.48198  1.0000
  C   C341      1.0  0.57918  0.98620  0.45670  1.0000
  H   H613      1.0  0.59458  0.70755  0.24408  1.0000
  C   C342      1.0  0.84347  0.72950  0.18597  1.0000
  C   C343      1.0  0.82749  0.74269  0.22940  1.0000
  C   C344      1.0  0.85348  0.73610  0.28212  1.0000
  C   C345      1.0  0.89531  0.71683  0.29135  1.0000
  H   H614      1.0  0.81568  0.70110  0.47234  1.0000
  C   C346      1.0  0.91040  0.70278  0.24795  1.0000
  H   H615      1.0  0.84141  0.74625  0.31589  1.0000
  H   H616      1.0  0.75494  0.01547  0.05521  1.0000
  C   C347      1.0  0.57938  0.69723  0.12203  1.0000
  H   H617      1.0  0.68836  0.69787  0.26628  1.0000
  H   H618      1.0  0.53243  0.97662  0.53030  1.0000
  C   C348      1.0  0.88062  0.90692  0.17887  1.0000
  H   H619      1.0  0.52780  0.93036  0.35436  1.0000
  C   C349      1.0  0.62308  0.99795  0.50006  1.0000
  H   H620      1.0  0.97960  0.90814  0.10091  1.0000
  S   S85       1.0  0.64002  0.72140  0.51392  1.0000
  Fe  Fe43      1.0  0.77278  0.83122  0.05276  1.0000
  N   N20       1.0  0.55997  0.95354  0.46700  1.0000
  S   S86       1.0  0.71585  0.86873  0.04633  1.0000
  C   C350      1.0  0.60341  0.92768  0.08076  1.0000
  H   H621      1.0  0.61406  0.99613  0.09546  1.0000
  H   H622      1.0  0.85944  0.68931  0.37520  1.0000
  H   H623      1.0  0.73008  0.69941  0.38847  1.0000
  C   C351      1.0  0.72290  0.68622  0.34955  1.0000
  H   H624      1.0  0.65312  0.94776  0.43496  1.0000
  C   C352      1.0  0.62475  0.92963  0.42040  1.0000
  H   H625      1.0  0.89783  0.74111  0.09959  1.0000
  H   H626      1.0  0.80276  0.98697  0.33373  1.0000
  C   C353      1.0  0.81511  0.98856  0.25173  1.0000
  C   C354      1.0  0.82726  0.97610  0.31064  1.0000
  C   C355      1.0  0.86772  0.73291  0.45245  1.0000
  H   H627      1.0  0.89367  0.88269  0.16897  1.0000
  H   H628      1.0  0.91578  0.71265  0.33197  1.0000
  H   H629      1.0  0.58855  0.98688  0.41698  1.0000
  C   C356      1.0  0.82145  0.93935  0.31199  1.0000
  H   H630      1.0  0.82347  0.73401  0.14523  1.0000
  N   N21       1.0  0.90898  0.95403  0.05797  1.0000
  H   H631      1.0  0.90155  0.72023  0.47080  1.0000
  H   H632      1.0  0.56234  0.88335  0.05988  1.0000
  H   H633      1.0  0.89106  0.91038  0.22323  1.0000
  H   H634      1.0  0.66588  0.72018  0.31670  1.0000
  C   C357      1.0  0.92000  0.74811  0.07154  1.0000
  C   C358      1.0  0.82690  0.70882  0.43563  1.0000
  H   H635      1.0  0.83432  0.97295  0.22771  1.0000
  H   H636      1.0  0.52415  0.97421  0.35812  1.0000
  H   H637      1.0  0.86402  0.98205  0.33243  1.0000
  H   H638      1.0  0.64987  0.97822  0.51162  1.0000
  H   H639      1.0  0.96732  0.97184  0.12157  1.0000
  H   H640      1.0  0.64116  0.69736  0.08605  1.0000
  Fe  Fe44      1.0  0.66997  0.82853  0.06091  1.0000
  C   C359      1.0  0.94583  0.84367  0.05940  1.0000
  H   H641      1.0  0.59175  0.88745  0.13007  1.0000
  C   C360      1.0  0.69843  0.71008  0.30622  1.0000
  C   C361      1.0  0.64918  0.89771  0.41132  1.0000
  H   H642      1.0  0.84629  0.92682  0.29102  1.0000
  H   H643      1.0  0.82938  0.93102  0.35441  1.0000
  H   H644      1.0  0.78426  0.93241  0.29226  1.0000
  H   H645      1.0  0.62219  0.87908  0.39417  1.0000
  H   H646      1.0  0.63518  0.00567  0.21862  1.0000
  C   C362      1.0  0.90229  0.93353  0.15137  1.0000
  H   H647      1.0  0.60385  0.93790  0.38084  1.0000
  H   H648      1.0  0.67212  0.88877  0.44975  1.0000
  H   H649      1.0  0.88857  0.95718  0.16254  1.0000
  C   C363      1.0  0.57210  0.90076  0.09390  1.0000
  C   C364      1.0  0.59175  0.00067  0.05430  1.0000
  H   H650      1.0  0.53896  0.91115  0.10256  1.0000
  H   H651      1.0  0.64680  0.72334  0.14485  1.0000
  H   H652      1.0  0.84114  0.90778  0.16586  1.0000
  C   C365      1.0  0.62514  0.68814  0.46948  1.0000
  C   C366      1.0  0.99438  0.92958  0.08511  1.0000
  H   H653      1.0  0.67268  0.96743  0.06602  1.0000
  H   H654      1.0  0.56093  0.71546  0.14227  1.0000
  H   H655      1.0  0.55257  0.70440  0.43977  1.0000
  S   S87       1.0  0.72583  0.78977  0.06239  1.0000
  H   H656      1.0  0.97523  0.97716  0.05613  1.0000
  H   H657      1.0  0.95122  0.73141  0.07716  1.0000
  C   C367      1.0  0.62172  0.71418  0.10785  1.0000
  H   H658      1.0  0.57330  0.90283  0.45263  1.0000
  H   H659      1.0  0.60821  0.94536  0.11431  1.0000
  H   H660      1.0  0.55096  0.00514  0.45381  1.0000
  C   C368      1.0  0.96137  0.95981  0.08133  1.0000
  H   H661      1.0  0.89358  0.99604  0.10236  1.0000
  C   C369      1.0  0.55239  0.95424  0.52372  1.0000
  C   C370      1.0  0.50900  0.95120  0.36809  1.0000
  H   H662      1.0  0.61924  0.92130  0.50136  1.0000
  H   H663      1.0  0.63876  0.91701  0.07988  1.0000
  C   C371      1.0  0.89639  0.83875  0.04982  1.0000
  H   H664      1.0  0.51343  0.70312  0.30341  1.0000
  H   H665      1.0  0.56475  0.72896  0.32108  1.0000
  H   H666      1.0  0.54009  0.90176  0.52919  1.0000
  H   H667      1.0  0.74305  0.94079  0.04364  1.0000
  C   C372      1.0  0.88970  0.92874  0.08929  1.0000
  H   H668      1.0  0.55435  0.99893  0.05880  1.0000
  H   H669      1.0  0.91748  0.99329  0.28719  1.0000
  C   C373      1.0  0.54015  0.71644  0.28704  1.0000
  H   H670      1.0  0.90170  0.90409  0.08012  1.0000
  H   H671      1.0  0.55517  0.68949  0.08358  1.0000
  C   C374      1.0  0.88235  0.98545  0.06110  1.0000
  H   H672      1.0  0.51366  0.69285  0.18649  1.0000
  H   H673      1.0  0.85005  0.92774  0.07608  1.0000
  H   H674      1.0  0.52159  0.73504  0.25824  1.0000
  C   C375      1.0  0.56855  0.69303  0.25946  1.0000
  C   C376      1.0  0.51174  0.94866  0.42911  1.0000
  H   H675      1.0  0.78566  0.68948  0.31542  1.0000
  H   H676      1.0  0.87932  0.01435  0.20025  1.0000
  H   H677      1.0  0.97351  0.82858  0.53175  1.0000
  H   H678      1.0  0.64717  0.76088  0.74940  1.0000
  S   S88       1.0  0.70032  0.73916  0.66332  1.0000
  Fe  Fe45      1.0  0.70451  0.71693  0.58378  1.0000
  Fe  Fe46      1.0  0.77648  0.75402  0.67112  1.0000
  S   S89       1.0  0.79500  0.80204  0.71508  1.0000
  Fe  Fe47      1.0  0.73009  0.69194  0.69890  1.0000
  H   H679      1.0  0.68325  0.81757  0.77857  1.0000
  C   C377      1.0  0.72795  0.94569  0.00024  1.0000
  H   H680      1.0  0.87068  0.00541  0.97919  1.0000
  C   C378      1.0  0.54196  0.82044  0.80015  1.0000
  H   H681      1.0  0.73989  0.92605  0.97616  1.0000
  H   H682      1.0  0.81050  0.92382  0.88884  1.0000
  H   H683      1.0  0.51432  0.00696  0.97332  1.0000
  H   H684      1.0  0.59012  0.73691  0.66864  1.0000
  N   N22       1.0  0.60201  0.97538  0.01514  1.0000
  S   S90       1.0  0.54637  0.92506  0.81060  1.0000
  H   H685      1.0  0.64946  0.86598  0.68663  1.0000
  H   H686      1.0  0.68271  0.87559  0.75442  1.0000
  S   S91       1.0  0.77842  0.73581  0.58776  1.0000
  S   S92       1.0  0.80706  0.83307  0.98277  1.0000
  H   H687      1.0  0.87199  0.91086  0.90303  1.0000
  C   C379      1.0  0.84747  0.93063  0.90952  1.0000
  H   H688      1.0  0.98606  0.80642  0.62766  1.0000
  H   H689      1.0  0.83719  0.91379  0.98537  1.0000
  H   H690      1.0  0.87264  0.70448  0.91246  1.0000
  C   C380      1.0  0.86797  0.84149  0.99753  1.0000
  C   C381      1.0  0.88881  0.84917  0.95507  1.0000
  C   C382      1.0  0.93803  0.85388  0.96459  1.0000
  C   C383      1.0  0.88887  0.01214  0.02112  1.0000
  H   H691      1.0  0.86696  0.85072  0.91443  1.0000
  H   H692      1.0  0.95405  0.85829  0.93122  1.0000
  C   C384      1.0  0.60756  0.83380  0.75898  1.0000
  C   C385      1.0  0.60564  0.89047  0.88974  1.0000
  C   C386      1.0  0.61670  0.86874  0.93297  1.0000
  C   C387      1.0  0.58087  0.85725  0.95635  1.0000
  H   H693      1.0  0.63365  0.89851  0.87129  1.0000
  H   H694      1.0  0.65281  0.85989  0.94663  1.0000
  C   C388      1.0  0.85208  0.81997  0.73007  1.0000
  C   C389      1.0  0.86789  0.83650  0.77938  1.0000
  C   C390      1.0  0.91129  0.85347  0.79071  1.0000
  C   C391      1.0  0.93856  0.85484  0.75208  1.0000
  C   C392      1.0  0.92232  0.83870  0.70254  1.0000
  C   C393      1.0  0.87982  0.82078  0.69192  1.0000
  H   H695      1.0  0.84614  0.83653  0.80867  1.0000
  H   H696      1.0  0.92297  0.86616  0.82871  1.0000
  H   H697      1.0  0.94237  0.84054  0.67191  1.0000
  H   H698      1.0  0.86737  0.80887  0.65329  1.0000
  N   N23       1.0  0.89665  0.75401  0.91433  1.0000
  C   C394      1.0  0.92191  0.77591  0.88294  1.0000
  C   C395      1.0  0.84444  0.76341  0.90215  1.0000
  C   C396      1.0  0.91746  0.76037  0.97364  1.0000
  C   C397      1.0  0.90263  0.71833  0.90304  1.0000
  H   H699      1.0  0.95419  0.76254  0.65502  1.0000
  C   C398      1.0  0.89010  0.74628  0.01365  1.0000
  C   C399      1.0  0.81557  0.75810  0.84365  1.0000
  C   C400      1.0  0.76539  0.77264  0.83542  1.0000
  H   H700      1.0  0.67030  0.99585  0.01383  1.0000
  H   H701      1.0  0.56255  0.78580  0.70758  1.0000
  H   H702      1.0  0.91103  0.80156  0.88728  1.0000
  H   H703      1.0  0.91086  0.77125  0.83899  1.0000
  H   H704      1.0  0.82498  0.74935  0.92697  1.0000
  H   H705      1.0  0.84064  0.78933  0.91293  1.0000
  H   H706      1.0  0.92048  0.78681  0.98188  1.0000
  H   H707      1.0  0.52383  0.80118  0.81797  1.0000
  H   H708      1.0  0.98942  0.82168  0.86637  1.0000
  C   C401      1.0  0.91178  0.70095  0.59011  1.0000
  H   H709      1.0  0.91953  0.95958  0.97718  1.0000
  C   C402      1.0  0.95140  0.74282  0.73099  1.0000
  H   H710      1.0  0.96186  0.99482  0.72689  1.0000
  S   S93       1.0  0.98659  0.91727  0.90583  1.0000
  H   H711      1.0  0.83298  0.76950  0.81435  1.0000
  H   H712      1.0  0.76728  0.79937  0.84133  1.0000
  H   H713      1.0  0.74489  0.76743  0.79367  1.0000
  C   C403      1.0  0.90693  0.70878  0.84528  1.0000
  H   H714      1.0  0.74194  0.96904  0.98948  1.0000
  H   H715      1.0  0.92465  0.72431  0.71252  1.0000
  C   C404      1.0  0.60264  0.77832  0.87909  1.0000
  S   S94       1.0  0.99283  0.87650  0.76353  1.0000
  C   C405      1.0  0.59649  0.72576  0.70917  1.0000
  H   H716      1.0  0.62802  0.75260  0.95424  1.0000
  C   C406      1.0  0.53363  0.86789  0.93596  1.0000
  H   H717      1.0  0.82650  0.95638  0.97359  1.0000
  C   C407      1.0  0.64307  0.76613  0.92475  1.0000
  C   C408      1.0  0.58053  0.98479  0.95762  1.0000
  H   H718      1.0  0.99043  0.98801  0.79649  1.0000
  H   H719      1.0  0.88142  0.72202  0.81351  1.0000
  C   C409      1.0  0.90276  0.94242  0.00057  1.0000
  C   C410      1.0  0.55850  0.90081  0.86893  1.0000
  H   H720      1.0  0.58161  0.92563  0.99367  1.0000
  H   H721      1.0  0.66743  0.74972  0.90882  1.0000
  C   C411      1.0  0.85064  0.93594  0.96961  1.0000
  H   H722      1.0  0.57805  0.79286  0.89784  1.0000
  H   H723      1.0  0.58614  0.96520  0.92936  1.0000
  H   H724      1.0  0.95462  0.75071  0.98576  1.0000
  H   H725      1.0  0.85694  0.95316  0.89111  1.0000
  H   H726      1.0  0.65469  0.78754  0.83231  1.0000
  H   H727      1.0  0.65015  0.80780  0.71094  1.0000
  H   H728      1.0  0.70909  0.85021  0.71118  1.0000
  C   C412      1.0  0.65552  0.82623  0.74374  1.0000
  S   S95       1.0  0.80595  0.70811  0.71278  1.0000
  H   H729      1.0  0.59896  0.00630  0.94630  1.0000
  C   C413      1.0  0.62204  0.79952  0.83929  1.0000
  N   N24       1.0  0.58703  0.80725  0.78685  1.0000
  C   C414      1.0  0.67342  0.94666  0.98778  1.0000
  C   C415      1.0  0.52598  0.99101  0.94358  1.0000
  H   H730      1.0  0.66066  0.92233  0.99500  1.0000
  C   C416      1.0  0.96656  0.85153  0.01675  1.0000
  H   H731      1.0  0.93200  0.76409  0.74265  1.0000
  H   H732      1.0  0.95497  0.73813  0.56747  1.0000
  C   C417      1.0  0.65539  0.97247  0.02302  1.0000
  H   H733      1.0  0.61214  0.85624  0.78448  1.0000
  H   H734      1.0  0.97536  0.73227  0.76737  1.0000
  C   C418      1.0  0.67518  0.85645  0.72270  1.0000
  H   H735      1.0  0.88775  0.71786  0.60314  1.0000
  H   H736      1.0  0.54251  0.76544  0.75865  1.0000
  H   H737      1.0  0.93523  0.70818  0.93056  1.0000
  H   H738      1.0  0.66095  0.95209  0.94428  1.0000
  C   C419      1.0  0.61265  0.75113  0.75345  1.0000
  H   H739      1.0  0.63515  0.82233  0.86122  1.0000
  H   H740      1.0  0.74617  0.76197  0.86399  1.0000
  H   H741      1.0  0.61917  0.73837  0.79258  1.0000
  H   H742      1.0  0.56355  0.71359  0.71389  1.0000
  H   H743      1.0  0.92231  0.91914  0.99929  1.0000
  H   H744      1.0  0.62493  0.70720  0.71211  1.0000
  H   H745      1.0  0.81138  0.73176  0.83468  1.0000
  H   H746      1.0  0.54190  0.94718  0.02463  1.0000
  C   C420      1.0  0.57407  0.77799  0.75036  1.0000
  C   C421      1.0  0.95038  0.71242  0.57093  1.0000
  S   S96       1.0  0.59414  0.82869  0.00928  1.0000
  H   H747      1.0  0.99616  0.73015  0.67802  1.0000
  C   C422      1.0  0.98007  0.75258  0.69044  1.0000
  H   H748      1.0  0.58249  0.84050  0.72041  1.0000
  H   H749      1.0  0.99035  0.78514  0.94092  1.0000
  H   H750      1.0  0.94327  0.71433  0.84064  1.0000
  H   H751      1.0  0.58272  0.75717  0.85833  1.0000
  H   H752      1.0  0.55078  0.83952  0.83170  1.0000
  C   C423      1.0  0.58050  0.94371  0.02602  1.0000
  Fe  Fe48      1.0  0.80199  0.68860  0.62969  1.0000
  C   C424      1.0  0.98082  0.69066  0.55261  1.0000
  C   C425      1.0  0.97728  0.77499  0.89966  1.0000
  H   H753      1.0  0.50711  0.96761  0.94181  1.0000
  H   H754      1.0  0.66365  0.78691  0.94613  1.0000
  H   H755      1.0  0.56517  0.92213  0.62373  1.0000
  H   H756      1.0  0.88038  0.72060  0.00384  1.0000
  H   H757      1.0  0.85707  0.76071  0.01245  1.0000
  C   C426      1.0  0.52250  0.88982  0.89264  1.0000
  H   H758      1.0  0.51587  0.85900  0.74145  1.0000
  H   H759      1.0  0.99098  0.74980  0.89913  1.0000
  H   H760      1.0  0.51949  0.99136  0.85677  1.0000
  C   C427      1.0  0.99420  0.00014  0.75904  1.0000
  H   H761      1.0  0.98655  0.78806  0.82000  1.0000
  H   H762      1.0  0.00028  0.79944  0.72706  1.0000
  C   C428      1.0  0.99911  0.79578  0.86257  1.0000
  H   H763      1.0  0.50554  0.85893  0.95346  1.0000
  C   C429      1.0  0.50987  0.00683  0.88858  1.0000
  C   C430      1.0  0.50410  0.83494  0.75241  1.0000
  C   C431      1.0  0.52777  0.92542  0.60041  1.0000
  H   H764      1.0  0.51334  0.94863  0.61276  1.0000
  H   H765      1.0  0.58721  0.95541  0.55377  1.0000
  H   H766      1.0  0.50602  0.90535  0.61040  1.0000
  H   H767      1.0  0.92695  0.01584  0.02239  1.0000
  H   H768      1.0  0.61163  0.00615  0.53675  1.0000
  C   C432      1.0  0.52515  0.92516  0.53984  1.0000
