data_image0
_chemical_formula_structural       CFeCHCHCH2CHCH2CH3NCH4CHFeHC2H2SH3SH2CHCH2FeSFeCSFeS2HC3HSH2CHCH2FeS2HSFeSFeS3CSHCSNFeSFeHSFeSHCH2CH2CSCH3CHSC2HCHC9H4C6H5C3HC6H4C6H4C6H3C3FeC2H13CH3CH3CHC2H5SC2H2CH6CHNC5HC4HCH5SH18CHNH3C2H2SH6C2H2NC8HC2H15CH7SH3C2H2Fe2HCH7CHCSHCH2Fe2CHCNH2SH7CH2CH3CH3C2SH2C3SH4SH2C2H4CH2C3NCH4C2H5CFeC3HCH3SCH6CH2CSH7CH3NHCHCSHC3HC3H2SH2FeH5C3H6S2CHCHCSH2CHCNH2C3HCH2SH2CH3SHC2SCHCH2CHCH12CH4CH4SH3NH3CHSFeCH3CHC3H3C2HCH4FeCH2CFeHFe3S2HCH2C2HC4H2CH2C2H6C2FeH2S2CH2CHCHCH4CH2CH4C2HC2SH2CH2CH3C2HCH4CHCH2C2HSCH4CHCFeH2C4H3SC3HSH3C2H2CH5C2NSH2SHC2HC2H7CH3S2H2CH4SC2H8NCH6SHCH2FeC2HCHCH2CHCSC3HCHCH6CNC2HC2S2H3CHFe2H3C2HCH2NSFeH2CH6FeHCFeHC2HCHCSH4CH7SHCHCSHC2H7CH2CSFeS2H3FeHFeS3FeSH2S2FeSFeCSHC2H2CHFeSCFeS2FeSFeSHSH2CH5CH6C3HC3HCH3CHCSCHC4HFeC3HCH3C6H4C6H4C3H3CH9CH3CHCNHC3H2NH10CHCH6CH3CH3CSHCH7C7H2CHCH3CH2CH2CSC3HCH5C4H4CH4CHCH2CHCH2SNC2H3CNH4CHC2H2C2HNC2H2CFeH4C5H2CH8CH6CH8CH7CH2NCH7C2H2FeSFeS2FeHSH2FeSCFeS2FeSFeS4CH3CH4NC7H4C2H2C6H4SC6H4NC12H18CH8CNC11H25CH2CHSH2NCHC6HC3H2CH12NCH10NH8C2H6CH5CH2C2HCHCHCHCH4C2FeC2FeCH2NH2CH4CHSH3CH3C2HCHSH2CHC2H2C4FeHC4H2CH3CH3NFeSH3SC2H3SHC3HCSC2SH3CHCH3CHCSFeHSH2CHCSHFeC2H3CSH5CH2SHC3HSH2CHCHCSFeH2CH2FeCSH2CHSCSCH4FeH4C2HC4H2SHC2SH4C2HCH3CH2CH2CHCH3CH2CHCHCFeHCH3C2NSH4C2H5C3H7CH3SHSH2SCFeS2FeS2FeSFeS3FeC2FeS2FeSH2NFeSHSC6H4C3H5CSH4CHCH2C6H8C4HC6H3CSHCH10CHCSH2C2H2CHC2H2SHCH3C2HC2H3SH4CH4NH3CHCH3C2H2C3HCHNC12H28CHCHC2HFeHC2H2CHCH2CH4CHSH3CH3CH5C2HC2H2NC2H11CHSH2CHCHCHFeH2NC2HC3SC2HCH10CHC2HCHC4FeH2C3H5CHSH3C2HNCH5CH2FeH2S2H2CH3CH8NFeH2C2HFeH2S2HCH2CHCH2FeSH3FeS2FeS2FeSFeS3HC3H2C2H2C2HCNC2HSC3HFeHNH4CHC6H4C6H3CH2CH8NC12H27CH2CHCH2CH2CHC2HCH4CSHCH7FeC2SH3CHC3HCH3CSH3SCH3C2H2C2H4SCH2CH2NHFeSHFeS2FeSFeS3C2H2CHSCH6C6H4C2HC4H4CH3CH2CH2CH2C2H2CHCH3C2H5CHFeCH12SH5CHNC9HNH24C2HC2H3CH2C2H2CHCH2CHCH2C2H4CH4SH2C3H2CHCH2CH2CH2CHCSH2CHCH2CFeH2CHCHSC2H2CH6SC4HC3H3C3HC2H4CHC3HCH3CH2CHNHC2NC3HCH7C2SCH3NH3C2H4CH3CH3C2NH8CH4SH4CFeS2FeS2HCSHCH3CHNHCHC4HFeC2HCHC2H2SHC3H3C6HCH2C6H2NC3H2C4HCH6S2H2CH15SHCSHCHCH3CH3CH2FeHCHFeHSH8C2SH2C2H5CHSHCHFeSFeH3FeSCH2
_chemical_formula_sum              "C864 Fe96 H1536 N48 S192"
_cell_length_a       67.4103
_cell_length_b       74.036
_cell_length_c       33.8552
_cell_angle_alpha    84.6655
_cell_angle_beta     78.7848
_cell_angle_gamma    110.856

_space_group_name_H-M_alt    "P 1"
_space_group_IT_number       1

loop_
  _space_group_symop_operation_xyz
  'x, y, z'

loop_
  _atom_site_type_symbol
  _atom_site_label
  _atom_site_symmetry_multiplicity
  _atom_site_fract_x
  _atom_site_fract_y
  _atom_site_fract_z
  _atom_site_occupancy
  C   C1        1.0  0.07397  0.44580  0.53142  1.0000
  Fe  Fe1       1.0  0.99096  0.46863  0.72675  1.0000
  C   C2        1.0  0.01222  0.42544  0.68786  1.0000
  H   H1        1.0  0.01061  0.41263  0.70992  1.0000
  C   C3        1.0  0.00958  0.43629  0.61617  1.0000
  H   H2        1.0  0.03618  0.44412  0.51421  1.0000
  C   C4        1.0  0.99808  0.44366  0.55441  1.0000
  H   H3        1.0  0.02311  0.40949  0.51244  1.0000
  H   H4        1.0  0.00905  0.40361  0.58434  1.0000
  C   C5        1.0  0.00433  0.46576  0.55640  1.0000
  H   H5        1.0  0.00692  0.46920  0.58661  1.0000
  C   C6        1.0  0.00987  0.41940  0.64659  1.0000
  H   H6        1.0  0.00279  0.41786  0.50126  1.0000
  H   H7        1.0  0.08032  0.46191  0.53099  1.0000
  C   C7        1.0  0.03500  0.44407  0.54752  1.0000
  H   H8        1.0  0.02357  0.41485  0.63502  1.0000
  H   H9        1.0  0.01955  0.47442  0.53263  1.0000
  H   H10       1.0  0.04581  0.41979  0.56095  1.0000
  N   N1        1.0  0.01157  0.43393  0.57166  1.0000
  C   C8        1.0  0.00212  0.41253  0.56768  1.0000
  H   H11       1.0  0.05300  0.43878  0.59156  1.0000
  H   H12       1.0  0.99419  0.40647  0.65197  1.0000
  H   H13       1.0  0.02254  0.45024  0.61882  1.0000
  H   H14       1.0  0.99397  0.43792  0.62919  1.0000
  C   C9        1.0  0.05127  0.43582  0.56060  1.0000
  H   H15       1.0  0.99930  0.43078  0.70048  1.0000
  Fe  Fe2       1.0  0.00370  0.47700  0.40653  1.0000
  H   H16       1.0  0.04136  0.45985  0.55041  1.0000
  C   C10       1.0  0.98661  0.47264  0.54740  1.0000
  C   C11       1.0  0.00586  0.40795  0.52356  1.0000
  H   H17       1.0  0.08546  0.43989  0.54179  1.0000
  H   H18       1.0  0.99422  0.38394  0.49087  1.0000
  S   S1        1.0  0.02617  0.47253  0.72009  1.0000
  H   H19       1.0  0.02855  0.43721  0.68450  1.0000
  H   H20       1.0  0.98343  0.46940  0.51733  1.0000
  H   H21       1.0  0.99934  0.44289  0.52160  1.0000
  S   S2        1.0  0.99848  0.44701  0.43724  1.0000
  H   H22       1.0  0.07333  0.44299  0.49992  1.0000
  H   H23       1.0  0.98420  0.40614  0.58245  1.0000
  C   C12       1.0  0.99098  0.38696  0.52251  1.0000
  H   H24       1.0  0.99405  0.37622  0.54318  1.0000
  C   C13       1.0  0.11627  0.53237  0.90128  1.0000
  H   H25       1.0  0.13248  0.54147  0.00357  1.0000
  H   H26       1.0  0.30618  0.66288  0.08361  1.0000
  Fe  Fe3       1.0  0.17024  0.61188  0.14180  1.0000
  S   S3        1.0  0.16333  0.59201  0.09550  1.0000
  Fe  Fe4       1.0  0.19920  0.62583  0.20037  1.0000
  C   C14       1.0  0.14924  0.54140  0.99640  1.0000
  S   S4        1.0  0.22642  0.62519  0.22900  1.0000
  Fe  Fe5       1.0  0.15103  0.61877  0.22447  1.0000
  S   S5        1.0  0.11998  0.60902  0.27402  1.0000
  S   S6        1.0  0.16875  0.59926  0.20569  1.0000
  H   H27       1.0  0.03849  0.54751  0.16822  1.0000
  C   C15       1.0  0.25632  0.69871  0.10806  1.0000
  C   C16       1.0  0.25107  0.60114  0.33217  1.0000
  C   C17       1.0  0.22418  0.69078  0.89280  1.0000
  H   H28       1.0  0.16369  0.59378  0.72921  1.0000
  S   S7        1.0  0.03849  0.51965  0.68892  1.0000
  H   H29       1.0  0.06597  0.49797  0.51382  1.0000
  H   H30       1.0  0.30729  0.62964  0.81277  1.0000
  C   C18       1.0  0.16367  0.56437  0.72728  1.0000
  H   H31       1.0  0.16089  0.55416  0.70522  1.0000
  C   C19       1.0  0.29367  0.56026  0.29607  1.0000
  H   H32       1.0  0.12213  0.53942  0.92665  1.0000
  H   H33       1.0  0.00518  0.55683  0.52430  1.0000
  Fe  Fe6       1.0  0.13653  0.60228  0.82072  1.0000
  S   S8        1.0  0.13145  0.58425  0.88155  1.0000
  S   S9        1.0  0.11831  0.59296  0.77212  1.0000
  H   H34       1.0  0.27830  0.68041  0.04381  1.0000
  S   S10       1.0  0.17362  0.62141  0.89461  1.0000
  Fe  Fe7       1.0  0.16811  0.59429  0.86625  1.0000
  S   S11       1.0  0.18691  0.57468  0.87222  1.0000
  Fe  Fe8       1.0  0.13724  0.61266  0.90468  1.0000
  S   S12       1.0  0.11669  0.61345  0.96501  1.0000
  S   S13       1.0  0.17271  0.60993  0.80344  1.0000
  S   S14       1.0  0.13951  0.63013  0.84486  1.0000
  C   C20       1.0  0.29257  0.71675  0.79204  1.0000
  S   S15       1.0  0.27746  0.58775  0.05345  1.0000
  H   H35       1.0  0.15158  0.48934  0.15524  1.0000
  C   C21       1.0  0.31032  0.56444  0.08892  1.0000
  S   S16       1.0  0.29546  0.59729  0.95253  1.0000
  N   N2        1.0  0.16555  0.67415  0.02387  1.0000
  Fe  Fe9       1.0  0.27328  0.60509  0.00032  1.0000
  S   S17       1.0  0.24039  0.60590  0.00193  1.0000
  Fe  Fe10      1.0  0.30233  0.58252  0.00650  1.0000
  H   H36       1.0  0.10855  0.51622  0.91183  1.0000
  S   S18       1.0  0.29880  0.63333  0.00566  1.0000
  Fe  Fe11      1.0  0.02968  0.49937  0.74851  1.0000
  S   S19       1.0  0.31446  0.54122  0.19780  1.0000
  H   H37       1.0  0.23389  0.59598  0.35048  1.0000
  C   C22       1.0  0.27354  0.68034  0.82216  1.0000
  H   H38       1.0  0.10397  0.61029  0.15440  1.0000
  H   H39       1.0  0.11441  0.54858  0.10915  1.0000
  C   C23       1.0  0.10613  0.54553  0.37615  1.0000
  H   H40       1.0  0.11348  0.53108  0.82460  1.0000
  H   H41       1.0  0.27792  0.65589  0.04625  1.0000
  C   C24       1.0  0.99527  0.56516  0.53676  1.0000
  S   S20       1.0  0.98530  0.49349  0.43866  1.0000
  C   C25       1.0  0.05512  0.59584  0.38497  1.0000
  H   H42       1.0  0.22475  0.70653  0.78001  1.0000
  H   H43       1.0  0.08164  0.55145  0.52821  1.0000
  H   H44       1.0  0.10445  0.54006  0.26247  1.0000
  C   C26       1.0  0.24931  0.71479  0.04990  1.0000
  H   H45       1.0  0.20301  0.52554  0.79792  1.0000
  S   S21       1.0  0.28678  0.71517  0.93653  1.0000
  C   C27       1.0  0.22459  0.70207  0.81147  1.0000
  C   C28       1.0  0.12818  0.52807  0.82787  1.0000
  H   H46       1.0  0.30546  0.51943  0.06711  1.0000
  C   C29       1.0  0.99554  0.56490  0.58233  1.0000
  H   H47       1.0  0.07690  0.56463  0.46177  1.0000
  C   C30       1.0  0.11472  0.51882  0.75009  1.0000
  C   C31       1.0  0.20483  0.53534  0.76939  1.0000
  C   C32       1.0  0.16634  0.53420  0.79530  1.0000
  C   C33       1.0  0.20225  0.58250  0.90816  1.0000
  C   C34       1.0  0.22252  0.58083  0.90582  1.0000
  C   C35       1.0  0.23484  0.58824  0.93407  1.0000
  C   C36       1.0  0.22656  0.59690  0.96487  1.0000
  C   C37       1.0  0.20624  0.59817  0.96730  1.0000
  C   C38       1.0  0.19420  0.59103  0.93908  1.0000
  H   H48       1.0  0.22887  0.57424  0.88181  1.0000
  H   H49       1.0  0.25057  0.58717  0.93217  1.0000
  H   H50       1.0  0.19969  0.60462  0.99132  1.0000
  H   H51       1.0  0.17833  0.59169  0.94187  1.0000
  C   C39       1.0  0.06739  0.53054  0.79125  1.0000
  C   C40       1.0  0.07674  0.54195  0.75218  1.0000
  C   C41       1.0  0.09212  0.56119  0.74685  1.0000
  C   C42       1.0  0.09863  0.56898  0.78047  1.0000
  C   C43       1.0  0.08966  0.55749  0.81957  1.0000
  C   C44       1.0  0.07401  0.53829  0.82495  1.0000
  H   H52       1.0  0.07242  0.53590  0.72589  1.0000
  H   H53       1.0  0.09925  0.56995  0.71648  1.0000
  H   H54       1.0  0.09453  0.56347  0.84568  1.0000
  H   H55       1.0  0.06690  0.52947  0.85527  1.0000
  H   H56       1.0  0.12040  0.52995  0.16916  1.0000
  C   C45       1.0  0.25308  0.58695  0.30302  1.0000
  C   C46       1.0  0.26411  0.71097  0.06973  1.0000
  C   C47       1.0  0.24874  0.63997  0.80967  1.0000
  H   H57       1.0  0.26082  0.55323  0.28745  1.0000
  C   C48       1.0  0.14861  0.59682  0.06134  1.0000
  C   C49       1.0  0.13464  0.60678  0.07080  1.0000
  C   C50       1.0  0.12379  0.61107  0.04196  1.0000
  C   C51       1.0  0.12736  0.60573  0.00343  1.0000
  C   C52       1.0  0.14040  0.59490  0.99490  1.0000
  C   C53       1.0  0.15087  0.59036  0.02392  1.0000
  H   H58       1.0  0.13241  0.61135  0.10002  1.0000
  H   H59       1.0  0.11333  0.61913  0.04883  1.0000
  H   H60       1.0  0.14260  0.59021  0.96567  1.0000
  H   H61       1.0  0.16145  0.58249  0.01672  1.0000
  C   C54       1.0  0.25049  0.62755  0.19408  1.0000
  C   C55       1.0  0.25022  0.62330  0.15476  1.0000
  C   C56       1.0  0.26909  0.62292  0.12914  1.0000
  C   C57       1.0  0.28835  0.62724  0.14263  1.0000
  C   C58       1.0  0.28898  0.63269  0.18095  1.0000
  C   C59       1.0  0.27002  0.63268  0.20678  1.0000
  H   H62       1.0  0.23534  0.61986  0.14447  1.0000
  H   H63       1.0  0.26862  0.61910  0.09918  1.0000
  H   H64       1.0  0.01779  0.60108  0.81204  1.0000
  H   H65       1.0  0.27036  0.63640  0.23685  1.0000
  C   C60       1.0  0.07494  0.54553  0.27983  1.0000
  C   C61       1.0  0.09766  0.55098  0.26898  1.0000
  C   C62       1.0  0.11160  0.57048  0.26711  1.0000
  C   C63       1.0  0.10286  0.58458  0.27590  1.0000
  C   C64       1.0  0.08013  0.57908  0.28701  1.0000
  C   C65       1.0  0.06618  0.55957  0.28904  1.0000
  H   H66       1.0  0.12907  0.57446  0.25966  1.0000
  H   H67       1.0  0.07331  0.59001  0.29296  1.0000
  H   H68       1.0  0.04869  0.55559  0.29632  1.0000
  C   C66       1.0  0.03671  0.52674  0.50480  1.0000
  C   C67       1.0  0.03077  0.52818  0.54589  1.0000
  C   C68       1.0  0.03683  0.51822  0.57551  1.0000
  Fe  Fe12      1.0  0.03208  0.49243  0.66126  1.0000
  C   C69       1.0  0.04919  0.50704  0.56416  1.0000
  C   C70       1.0  0.04978  0.51616  0.49311  1.0000
  H   H69       1.0  0.08303  0.52746  0.16339  1.0000
  H   H70       1.0  0.03150  0.51896  0.60725  1.0000
  H   H71       1.0  0.30908  0.51471  0.13887  1.0000
  H   H72       1.0  0.29443  0.65724  0.80685  1.0000
  H   H73       1.0  0.14902  0.52881  0.98079  1.0000
  H   H74       1.0  0.25589  0.54437  0.03100  1.0000
  H   H75       1.0  0.26242  0.63978  0.93125  1.0000
  H   H76       1.0  0.02069  0.53625  0.55525  1.0000
  H   H77       1.0  0.21599  0.53266  0.74394  1.0000
  H   H78       1.0  0.26766  0.69555  0.12345  1.0000
  H   H79       1.0  0.22299  0.55129  0.98617  1.0000
  H   H80       1.0  0.20035  0.62881  0.03091  1.0000
  H   H81       1.0  0.13364  0.60612  0.42644  1.0000
  C   C71       1.0  0.28093  0.66864  0.06217  1.0000
  H   H82       1.0  0.18086  0.56901  0.72998  1.0000
  H   H83       1.0  0.17610  0.51582  0.75464  1.0000
  H   H84       1.0  0.09981  0.58603  0.46048  1.0000
  C   C72       1.0  0.23315  0.71074  0.87525  1.0000
  H   H85       1.0  0.22374  0.73061  0.14613  1.0000
  H   H86       1.0  0.25499  0.72378  0.02003  1.0000
  H   H87       1.0  0.14325  0.55377  0.85561  1.0000
  C   C73       1.0  0.13560  0.53764  0.86420  1.0000
  H   H88       1.0  0.00473  0.58057  0.52057  1.0000
  C   C74       1.0  0.99018  0.57369  0.45113  1.0000
  C   C75       1.0  0.27691  0.59379  0.27680  1.0000
  H   H89       1.0  0.14778  0.53254  0.87410  1.0000
  H   H90       1.0  0.25081  0.64800  0.99842  1.0000
  H   H91       1.0  0.18363  0.68286  0.93850  1.0000
  H   H92       1.0  0.03711  0.58891  0.38995  1.0000
  H   H93       1.0  0.26187  0.60192  0.35345  1.0000
  S   S22       1.0  0.05396  0.49247  0.60208  1.0000
  C   C76       1.0  0.23348  0.71632  0.83448  1.0000
  C   C77       1.0  0.18185  0.64746  0.03047  1.0000
  H   H94       1.0  0.22771  0.68041  0.15550  1.0000
  H   H95       1.0  0.14864  0.52332  0.73026  1.0000
  C   C78       1.0  0.16440  0.50092  0.16520  1.0000
  H   H96       1.0  0.31606  0.57422  0.14450  1.0000
  H   H97       1.0  0.21572  0.71022  0.05328  1.0000
  H   H98       1.0  0.26871  0.66384  0.09216  1.0000
  H   H99       1.0  0.11945  0.65345  0.13910  1.0000
  H   H100      1.0  0.11629  0.53318  0.73394  1.0000
  H   H101      1.0  0.17527  0.65678  0.94923  1.0000
  C   C79       1.0  0.16927  0.66893  0.94785  1.0000
  H   H102      1.0  0.19767  0.67598  0.99163  1.0000
  N   N3        1.0  0.02725  0.57195  0.77091  1.0000
  C   C80       1.0  0.01677  0.58588  0.75889  1.0000
  C   C81       1.0  0.03667  0.56519  0.73345  1.0000
  C   C82       1.0  0.00931  0.55414  0.79897  1.0000
  C   C83       1.0  0.04439  0.58073  0.79401  1.0000
  C   C84       1.0  0.06331  0.60045  0.77296  1.0000
  H   H103      1.0  0.14409  0.57883  0.70406  1.0000
  C   C85       1.0  0.01587  0.53674  0.81141  1.0000
  C   C86       1.0  0.04723  0.58040  0.69299  1.0000
  C   C87       1.0  0.05839  0.57233  0.65932  1.0000
  C   C88       1.0  0.07573  0.61005  0.80369  1.0000
  H   H104      1.0  0.10538  0.48896  0.73733  1.0000
  C   C89       1.0  0.18260  0.53128  0.75958  1.0000
  H   H105      1.0  0.00403  0.57856  0.74252  1.0000
  H   H106      1.0  0.02874  0.59894  0.73659  1.0000
  H   H107      1.0  0.04894  0.55928  0.73986  1.0000
  H   H108      1.0  0.02368  0.55267  0.72597  1.0000
  H   H109      1.0  0.30486  0.68604  0.09115  1.0000
  S   S23       1.0  0.24036  0.72878  0.90578  1.0000
  H   H110      1.0  0.03657  0.58242  0.82482  1.0000
  H   H111      1.0  0.05262  0.57053  0.80029  1.0000
  H   H112      1.0  0.05759  0.61121  0.75910  1.0000
  H   H113      1.0  0.07518  0.59773  0.74895  1.0000
  H   H114      1.0  0.12225  0.51188  0.83794  1.0000
  H   H115      1.0  0.17282  0.58934  0.67883  1.0000
  H   H116      1.0  0.02938  0.54121  0.82710  1.0000
  H   H117      1.0  0.02114  0.53079  0.78419  1.0000
  H   H118      1.0  0.03440  0.58392  0.68162  1.0000
  H   H119      1.0  0.05954  0.59421  0.69706  1.0000
  H   H120      1.0  0.06659  0.58385  0.63149  1.0000
  H   H121      1.0  0.07092  0.56776  0.66927  1.0000
  H   H122      1.0  0.04606  0.55961  0.65118  1.0000
  H   H123      1.0  0.06527  0.61495  0.82620  1.0000
  H   H124      1.0  0.08100  0.59962  0.82040  1.0000
  H   H125      1.0  0.09060  0.62304  0.78732  1.0000
  H   H126      1.0  0.27988  0.55128  0.24634  1.0000
  H   H127      1.0  0.18466  0.72300  0.15693  1.0000
  C   C90       1.0  0.29291  0.69984  0.82103  1.0000
  H   H128      1.0  0.00857  0.49427  0.21323  1.0000
  N   N4        1.0  0.28131  0.58090  0.24702  1.0000
  H   H129      1.0  0.15416  0.56552  0.79068  1.0000
  H   H130      1.0  0.12007  0.50807  0.69263  1.0000
  H   H131      1.0  0.00758  0.57886  0.45260  1.0000
  C   C91       1.0  0.26506  0.57796  0.22063  1.0000
  C   C92       1.0  0.26990  0.56931  0.18145  1.0000
  H   H132      1.0  0.21238  0.55088  0.77322  1.0000
  H   H133      1.0  0.01741  0.51401  0.24112  1.0000
  S   S24       1.0  0.99657  0.48637  0.66546  1.0000
  H   H134      1.0  0.99528  0.54829  0.78453  1.0000
  H   H135      1.0  0.26378  0.59215  0.21035  1.0000
  H   H136      1.0  0.24837  0.56802  0.23866  1.0000
  H   H137      1.0  0.27282  0.55567  0.18810  1.0000
  H   H138      1.0  0.28438  0.58019  0.15870  1.0000
  H   H139      1.0  0.16288  0.52179  0.82036  1.0000
  C   C93       1.0  0.05632  0.50654  0.52275  1.0000
  C   C94       1.0  0.13668  0.52012  0.76004  1.0000
  H   H140      1.0  0.31124  0.57849  0.07546  1.0000
  H   H141      1.0  0.16025  0.55523  0.97520  1.0000
  N   N5        1.0  0.19040  0.53984  0.06342  1.0000
  C   C95       1.0  0.21084  0.53568  0.05019  1.0000
  C   C96       1.0  0.17386  0.52351  0.09707  1.0000
  C   C97       1.0  0.18061  0.54036  0.02687  1.0000
  C   C98       1.0  0.19532  0.55955  0.07673  1.0000
  C   C99       1.0  0.20567  0.56248  0.11369  1.0000
  C   C100      1.0  0.22897  0.55057  0.01432  1.0000
  C   C101      1.0  0.15681  0.53977  0.03588  1.0000
  C   C102      1.0  0.18280  0.51377  0.12836  1.0000
  H   H142      1.0  0.05476  0.51528  0.46137  1.0000
  C   C103      1.0  0.21265  0.58374  0.12035  1.0000
  C   C104      1.0  0.24866  0.54465  0.00423  1.0000
  H   H143      1.0  0.20640  0.52091  0.04115  1.0000
  H   H144      1.0  0.21877  0.53491  0.07572  1.0000
  H   H145      1.0  0.16170  0.52874  0.11426  1.0000
  H   H146      1.0  0.16433  0.51103  0.08360  1.0000
  H   H147      1.0  0.18058  0.52782  0.01100  1.0000
  H   H148      1.0  0.19084  0.55393  0.00384  1.0000
  H   H149      1.0  0.20583  0.57164  0.05081  1.0000
  H   H150      1.0  0.18011  0.56236  0.08544  1.0000
  H   H151      1.0  0.22039  0.55881  0.10937  1.0000
  H   H152      1.0  0.19342  0.55334  0.14196  1.0000
  H   H153      1.0  0.23487  0.56539  0.02245  1.0000
  H   H154      1.0  0.15548  0.55191  0.05153  1.0000
  H   H155      1.0  0.14502  0.52580  0.05567  1.0000
  H   H156      1.0  0.19036  0.50419  0.11359  1.0000
  H   H157      1.0  0.19542  0.52455  0.13997  1.0000
  C   C105      1.0  0.98908  0.56965  0.40796  1.0000
  H   H158      1.0  0.24778  0.57218  0.32171  1.0000
  H   H159      1.0  0.10130  0.51417  0.77828  1.0000
  H   H160      1.0  0.21788  0.58493  0.14942  1.0000
  H   H161      1.0  0.22648  0.59360  0.09478  1.0000
  H   H162      1.0  0.19889  0.58875  0.12286  1.0000
  H   H163      1.0  0.24385  0.52996  0.99513  1.0000
  H   H164      1.0  0.26142  0.55546  0.97841  1.0000
  S   S25       1.0  0.15034  0.62953  0.16093  1.0000
  H   H165      1.0  0.02596  0.59052  0.57290  1.0000
  H   H166      1.0  0.14357  0.55192  0.14330  1.0000
  H   H167      1.0  0.12685  0.55211  0.19131  1.0000
  C   C106      1.0  0.14794  0.55514  0.77011  1.0000
  C   C107      1.0  0.25099  0.56454  0.16064  1.0000
  H   H168      1.0  0.00271  0.55811  0.82813  1.0000
  H   H169      1.0  0.31085  0.62149  0.86183  1.0000
  Fe  Fe13      1.0  0.17552  0.63630  0.83283  1.0000
  Fe  Fe14      1.0  0.01772  0.51864  0.42278  1.0000
  H   H170      1.0  0.06232  0.60153  0.35178  1.0000
  C   C108      1.0  0.12652  0.54623  0.16236  1.0000
  H   H171      1.0  0.28832  0.52944  0.29569  1.0000
  H   H172      1.0  0.24155  0.58660  0.28344  1.0000
  H   H173      1.0  0.25823  0.68329  0.82822  1.0000
  H   H174      1.0  0.08293  0.51561  0.40042  1.0000
  H   H175      1.0  0.07546  0.60713  0.16773  1.0000
  H   H176      1.0  0.22383  0.68643  0.92439  1.0000
  H   H177      1.0  0.00145  0.50748  0.84790  1.0000
  C   C109      1.0  0.01882  0.57478  0.58740  1.0000
  H   H178      1.0  0.01841  0.57379  0.62050  1.0000
  C   C110      1.0  0.22693  0.70697  0.06872  1.0000
  S   S26       1.0  0.05769  0.52128  0.28065  1.0000
  H   H179      1.0  0.09460  0.58090  0.12150  1.0000
  C   C111      1.0  0.11220  0.55300  0.13958  1.0000
  H   H180      1.0  0.11834  0.56919  0.13599  1.0000
  H   H181      1.0  0.08153  0.57294  0.06250  1.0000
  Fe  Fe15      1.0  0.00247  0.51200  0.69849  1.0000
  Fe  Fe16      1.0  0.30527  0.61530  0.05423  1.0000
  C   C112      1.0  0.30424  0.59087  0.21971  1.0000
  H   H182      1.0  0.19467  0.67647  0.04424  1.0000
  C   C113      1.0  0.23374  0.69017  0.12620  1.0000
  N   N6        1.0  0.14514  0.53458  0.78739  1.0000
  H   H183      1.0  0.09044  0.53841  0.02993  1.0000
  H   H184      1.0  0.16804  0.60509  0.38478  1.0000
  S   S27       1.0  0.02724  0.53790  0.46880  1.0000
  H   H185      1.0  0.14251  0.65231  0.99864  1.0000
  H   H186      1.0  0.98597  0.57301  0.59661  1.0000
  H   H187      1.0  0.03673  0.51392  0.15088  1.0000
  H   H188      1.0  0.25550  0.61606  0.31463  1.0000
  H   H189      1.0  0.10326  0.56535  0.06904  1.0000
  H   H190      1.0  0.08685  0.54509  0.19557  1.0000
  H   H191      1.0  0.14207  0.65336  0.92197  1.0000
  C   C114      1.0  0.15441  0.66786  0.98989  1.0000
  H   H192      1.0  0.09602  0.56213  0.00109  1.0000
  H   H193      1.0  0.15205  0.67986  0.90940  1.0000
  C   C115      1.0  0.15690  0.66713  0.91412  1.0000
  H   H194      1.0  0.05106  0.54358  0.20807  1.0000
  H   H195      1.0  0.16759  0.66687  0.88491  1.0000
  H   H196      1.0  0.06808  0.54574  0.02378  1.0000
  C   C116      1.0  0.08500  0.55090  0.02815  1.0000
  H   H197      1.0  0.16822  0.62961  0.37987  1.0000
  H   H198      1.0  0.10737  0.57174  0.52347  1.0000
  H   H199      1.0  0.16318  0.61589  0.33917  1.0000
  C   C117      1.0  0.08606  0.55997  0.06682  1.0000
  C   C118      1.0  0.16028  0.61471  0.37297  1.0000
  S   S28       1.0  0.04760  0.50658  0.79861  1.0000
  H   H200      1.0  0.10544  0.51781  0.35918  1.0000
  H   H201      1.0  0.02949  0.56739  0.57362  1.0000
  C   C119      1.0  0.08788  0.54348  0.16306  1.0000
  C   C120      1.0  0.07013  0.54511  0.10550  1.0000
  C   C121      1.0  0.09961  0.55715  0.51507  1.0000
  S   S29       1.0  0.98950  0.53547  0.68553  1.0000
  H   H202      1.0  0.17071  0.63890  0.01280  1.0000
  H   H203      1.0  0.30593  0.67020  0.84314  1.0000
  H   H204      1.0  0.09486  0.59462  0.35626  1.0000
  H   H205      1.0  0.07167  0.53068  0.10390  1.0000
  S   S30       1.0  0.20268  0.63660  0.13424  1.0000
  H   H206      1.0  0.30437  0.60060  0.19246  1.0000
  H   H207      1.0  0.17453  0.64150  0.06360  1.0000
  C   C122      1.0  0.30931  0.52858  0.12498  1.0000
  C   C123      1.0  0.09065  0.55668  0.38689  1.0000
  H   H208      1.0  0.18537  0.54089  0.73042  1.0000
  H   H209      1.0  0.24622  0.65125  0.78945  1.0000
  H   H210      1.0  0.11845  0.55333  0.34687  1.0000
  H   H211      1.0  0.12700  0.58760  0.34924  1.0000
  C   C124      1.0  0.07883  0.57270  0.14417  1.0000
  H   H212      1.0  0.09441  0.57737  0.19570  1.0000
  H   H213      1.0  0.28113  0.60877  0.25975  1.0000
  C   C125      1.0  0.10770  0.50381  0.72234  1.0000
  C   C126      1.0  0.01614  0.51049  0.21025  1.0000
  C   C127      1.0  0.20332  0.64435  0.01983  1.0000
  N   N7        1.0  0.07225  0.55077  0.14683  1.0000
  C   C128      1.0  0.08824  0.60298  0.17770  1.0000
  H   H214      1.0  0.14378  0.64727  0.06513  1.0000
  H   H215      1.0  0.21008  0.64780  0.98621  1.0000
  H   H216      1.0  0.17520  0.54782  0.80649  1.0000
  H   H217      1.0  0.13181  0.55574  0.76924  1.0000
  C   C129      1.0  0.18578  0.66953  0.02169  1.0000
  C   C130      1.0  0.08153  0.58071  0.18433  1.0000
  H   H218      1.0  0.09046  0.60832  0.20677  1.0000
  H   H219      1.0  0.13333  0.57702  0.39175  1.0000
  H   H220      1.0  0.27748  0.71954  0.80296  1.0000
  H   H221      1.0  0.12930  0.61722  0.38067  1.0000
  H   H222      1.0  0.99192  0.52496  0.87028  1.0000
  C   C131      1.0  0.16085  0.58268  0.70886  1.0000
  Fe  Fe17      1.0  0.18251  0.65325  0.15905  1.0000
  C   C132      1.0  0.25685  0.65210  0.93215  1.0000
  C   C133      1.0  0.12415  0.58593  0.38324  1.0000
  C   C134      1.0  0.13573  0.60661  0.39299  1.0000
  H   H223      1.0  0.10603  0.54683  0.52881  1.0000
  C   C135      1.0  0.31157  0.54387  0.14745  1.0000
  H   H224      1.0  0.05709  0.56750  0.38627  1.0000
  H   H225      1.0  0.30884  0.69845  0.81003  1.0000
  H   H226      1.0  0.06664  0.57734  0.13274  1.0000
  S   S31       1.0  0.18130  0.64443  0.22470  1.0000
  C   C136      1.0  0.10475  0.55861  0.46857  1.0000
  H   H227      1.0  0.05348  0.54292  0.10127  1.0000
  H   H228      1.0  0.29341  0.71342  0.76059  1.0000
  H   H229      1.0  0.25462  0.55760  0.13388  1.0000
  H   H230      1.0  0.06598  0.57445  0.20831  1.0000
  H   H231      1.0  0.31061  0.56499  0.27686  1.0000
  H   H232      1.0  0.20685  0.66124  0.88433  1.0000
  C   C137      1.0  0.06366  0.58065  0.40035  1.0000
  H   H233      1.0  0.27594  0.67725  0.79043  1.0000
  H   H234      1.0  0.05685  0.57664  0.43386  1.0000
  C   C138      1.0  0.29110  0.65806  0.83999  1.0000
  S   S32       1.0  0.20238  0.66500  0.80015  1.0000
  H   H235      1.0  0.21543  0.65375  0.03492  1.0000
  H   H236      1.0  0.12278  0.56428  0.45712  1.0000
  H   H237      1.0  0.27755  0.66567  0.97194  1.0000
  H   H238      1.0  0.09736  0.54348  0.46250  1.0000
  H   H239      1.0  0.11513  0.54456  0.39977  1.0000
  H   H240      1.0  0.05912  0.60833  0.40182  1.0000
  H   H241      1.0  0.29335  0.56966  0.31961  1.0000
  C   C139      1.0  0.05001  0.54098  0.17657  1.0000
  H   H242      1.0  0.29229  0.70416  0.85156  1.0000
  H   H243      1.0  0.10383  0.53777  0.89359  1.0000
  H   H244      1.0  0.12093  0.66772  0.04965  1.0000
  N   N8        1.0  0.09988  0.57571  0.40261  1.0000
  H   H245      1.0  0.25368  0.67189  0.97477  1.0000
  C   C140      1.0  0.09368  0.52461  0.37067  1.0000
  H   H246      1.0  0.08586  0.55942  0.35797  1.0000
  C   C141      1.0  0.25996  0.65997  0.97164  1.0000
  S   S33       1.0  0.19087  0.68410  0.12872  1.0000
  H   H247      1.0  0.04852  0.51089  0.19324  1.0000
  C   C142      1.0  0.30731  0.53124  0.08441  1.0000
  C   C143      1.0  0.21451  0.67653  0.87019  1.0000
  C   C144      1.0  0.09487  0.57195  0.44872  1.0000
  H   H248      1.0  0.09379  0.60254  0.40430  1.0000
  C   C145      1.0  0.26926  0.66867  0.89435  1.0000
  C   C146      1.0  0.21453  0.68220  0.82953  1.0000
  C   C147      1.0  0.08905  0.58924  0.38984  1.0000
  H   H249      1.0  0.98468  0.54438  0.47753  1.0000
  H   H250      1.0  0.29378  0.64183  0.89482  1.0000
  S   S34       1.0  0.03645  0.50131  0.39603  1.0000
  H   H251      1.0  0.23904  0.64611  0.93367  1.0000
  H   H252      1.0  0.10614  0.63862  0.10494  1.0000
  Fe  Fe18      1.0  0.02993  0.51102  0.33694  1.0000
  H   H253      1.0  0.14436  0.67657  0.98487  1.0000
  H   H254      1.0  0.17697  0.69952  0.05248  1.0000
  H   H255      1.0  0.13322  0.68304  0.08388  1.0000
  H   H256      1.0  0.18335  0.70945  0.95913  1.0000
  H   H257      1.0  0.24918  0.57831  0.14956  1.0000
  C   C148      1.0  0.03882  0.51833  0.18072  1.0000
  C   C149      1.0  0.29117  0.63926  0.86413  1.0000
  C   C150      1.0  0.14962  0.66334  0.06436  1.0000
  H   H258      1.0  0.27588  0.62630  0.86762  1.0000
  H   H259      1.0  0.08366  0.52453  0.34822  1.0000
  H   H260      1.0  0.28580  0.67692  0.89850  1.0000
  H   H261      1.0  0.24719  0.63290  0.87395  1.0000
  H   H262      1.0  0.07517  0.54644  0.40877  1.0000
  H   H263      1.0  0.09787  0.65793  0.12099  1.0000
  S   S35       1.0  0.31155  0.62522  0.11278  1.0000
  S   S36       1.0  0.01382  0.53053  0.36287  1.0000
  C   C151      1.0  0.18954  0.71022  0.98721  1.0000
  H   H264      1.0  0.22717  0.61748  0.78357  1.0000
  C   C152      1.0  0.25026  0.64619  0.85182  1.0000
  H   H265      1.0  0.15790  0.66604  0.08987  1.0000
  C   C153      1.0  0.21908  0.69449  0.10664  1.0000
  S   S37       1.0  0.29228  0.72205  0.04711  1.0000
  H   H266      1.0  0.23546  0.55423  0.18192  1.0000
  H   H267      1.0  0.26059  0.67900  0.89700  1.0000
  C   C154      1.0  0.30760  0.54920  0.06649  1.0000
  H   H268      1.0  0.21408  0.62155  0.83174  1.0000
  C   C155      1.0  0.12887  0.66820  0.07554  1.0000
  N   N9        1.0  0.27106  0.66288  0.85253  1.0000
  H   H269      1.0  0.23594  0.65019  0.86250  1.0000
  H   H270      1.0  0.26368  0.63790  0.79439  1.0000
  C   C156      1.0  0.22934  0.62066  0.81421  1.0000
  C   C157      1.0  0.17160  0.69586  0.02403  1.0000
  C   C158      1.0  0.11209  0.65361  0.11245  1.0000
  H   H271      1.0  0.20470  0.70718  0.98203  1.0000
  C   C159      1.0  0.30406  0.67580  0.06898  1.0000
  H   H272      1.0  0.23220  0.60841  0.83033  1.0000
  H   H273      1.0  0.15710  0.69980  0.02486  1.0000
  S   S38       1.0  0.99861  0.48495  0.34475  1.0000
  H   H274      1.0  0.01139  0.62181  0.75770  1.0000
  H   H275      1.0  0.13451  0.50512  0.77426  1.0000
  C   C160      1.0  0.99761  0.60894  0.77772  1.0000
  H   H276      1.0  0.09185  0.50315  0.71623  1.0000
  H   H277      1.0  0.30398  0.63643  0.19107  1.0000
  H   H278      1.0  0.31001  0.57967  0.20774  1.0000
  S   S39       1.0  0.99384  0.49376  0.76054  1.0000
  H   H279      1.0  0.27076  0.53369  0.33858  1.0000
  C   C161      1.0  0.00595  0.59381  0.79426  1.0000
  C   C162      1.0  0.28752  0.53935  0.31820  1.0000
  S   S40       1.0  0.30487  0.55309  0.01617  1.0000
  C   C163      1.0  0.27792  0.56090  0.26882  1.0000
  H   H280      1.0  0.15689  0.51000  0.18208  1.0000
  C   C164      1.0  0.31258  0.56187  0.12887  1.0000
  H   H281      1.0  0.28767  0.59577  0.29832  1.0000
  H   H282      1.0  0.00530  0.51694  0.19887  1.0000
  C   C165      1.0  0.99663  0.52009  0.84109  1.0000
  H   H283      1.0  0.98885  0.54957  0.59913  1.0000
  C   C166      1.0  0.30995  0.63399  0.84243  1.0000
  H   H284      1.0  0.19649  0.72676  0.10297  1.0000
  H   H285      1.0  0.99162  0.58181  0.81522  1.0000
  H   H286      1.0  0.99899  0.58327  0.38519  1.0000
  H   H287      1.0  0.28943  0.73048  0.13571  1.0000
  H   H288      1.0  0.31628  0.69535  0.91992  1.0000
  H   H289      1.0  0.30692  0.73031  0.79110  1.0000
  H   H290      1.0  0.99558  0.55817  0.40102  1.0000
  H   H291      1.0  0.29925  0.53922  0.33707  1.0000
  H   H292      1.0  0.99213  0.48875  0.54644  1.0000
  H   H293      1.0  0.17112  0.49368  0.18637  1.0000
  H   H294      1.0  0.98962  0.61416  0.80359  1.0000
  H   H295      1.0  0.98539  0.60230  0.76006  1.0000
  C   C167      1.0  0.19587  0.73147  0.99411  1.0000
  H   H296      1.0  0.24014  0.73173  0.82094  1.0000
  H   H297      1.0  0.98342  0.52476  0.55014  1.0000
  H   H298      1.0  0.98430  0.58571  0.45598  1.0000
  H   H299      1.0  0.25991  0.75047  0.15676  1.0000
  C   C168      1.0  0.27239  0.77914  0.06269  1.0000
  H   H300      1.0  0.22784  0.76780  0.09007  1.0000
  H   H301      1.0  0.26313  0.80644  0.19308  1.0000
  H   H302      1.0  0.24987  0.78515  0.02921  1.0000
  H   H303      1.0  0.26128  0.80386  0.05817  1.0000
  S   S41       1.0  0.28250  0.75586  0.96302  1.0000
  H   H304      1.0  0.23637  0.74885  0.07458  1.0000
  H   H305      1.0  0.28997  0.80605  0.10897  1.0000
  H   H306      1.0  0.29297  0.74699  0.17238  1.0000
  N   N10       1.0  0.25810  0.76881  0.10476  1.0000
  H   H307      1.0  0.28943  0.78755  0.06386  1.0000
  H   H308      1.0  0.28595  0.79036  0.15658  1.0000
  H   H309      1.0  0.25990  0.74006  0.11177  1.0000
  C   C169      1.0  0.25646  0.78308  0.13313  1.0000
  H   H310      1.0  0.18940  0.74572  0.12478  1.0000
  S   S42       1.0  0.30560  0.75614  0.86807  1.0000
  Fe  Fe19      1.0  0.31498  0.77209  0.91892  1.0000
  C   C170      1.0  0.26480  0.79347  0.03911  1.0000
  H   H311      1.0  0.27612  0.81530  0.98367  1.0000
  H   H312      1.0  0.24699  0.77504  0.16444  1.0000
  H   H313      1.0  0.24684  0.79142  0.12353  1.0000
  C   C171      1.0  0.26635  0.75419  0.12290  1.0000
  H   H314      1.0  0.27366  0.76808  0.04319  1.0000
  C   C172      1.0  0.21875  0.74297  0.13796  1.0000
  C   C173      1.0  0.23541  0.75753  0.09965  1.0000
  C   C174      1.0  0.29765  0.74588  0.13966  1.0000
  H   H315      1.0  0.21726  0.75030  0.16481  1.0000
  H   H316      1.0  0.26726  0.82219  0.14533  1.0000
  H   H317      1.0  0.20853  0.74142  0.96699  1.0000
  C   C175      1.0  0.28232  0.80577  0.00069  1.0000
  C   C176      1.0  0.29148  0.75979  0.11288  1.0000
  H   H318      1.0  0.30051  0.77488  0.11706  1.0000
  C   C177      1.0  0.27433  0.81347  0.16240  1.0000
  H   H319      1.0  0.29724  0.81535  0.00902  1.0000
  H   H320      1.0  0.29738  0.75876  0.08048  1.0000
  H   H321      1.0  0.29018  0.82368  0.16658  1.0000
  H   H322      1.0  0.28668  0.79620  0.98013  1.0000
  Fe  Fe20      1.0  0.27443  0.73765  0.91469  1.0000
  C   C178      1.0  0.27827  0.79801  0.13856  1.0000
  H   H323      1.0  0.31562  0.74990  0.13056  1.0000
  H   H324      1.0  0.20282  0.73350  0.02130  1.0000
  C   C179      1.0  0.19597  0.73415  0.13001  1.0000
  Fe  Fe21      1.0  0.29723  0.73469  0.98157  1.0000
  H   H325      1.0  0.18143  0.73566  0.99830  1.0000
  Fe  Fe22      1.0  0.58779  0.16210  0.60909  1.0000
  Fe  Fe23      1.0  0.57247  0.19489  0.59024  1.0000
  Fe  Fe24      1.0  0.57352  0.16622  0.53117  1.0000
  S   S43       1.0  0.55803  0.15096  0.48403  1.0000
  S   S44       1.0  0.55621  0.16210  0.59712  1.0000
  H   H326      1.0  0.55613  0.10254  0.64323  1.0000
  C   C180      1.0  0.56191  0.04465  0.53509  1.0000
  H   H327      1.0  0.58193  0.04447  0.98500  1.0000
  H   H328      1.0  0.60021  0.17465  0.39722  1.0000
  C   C181      1.0  0.57244  0.13867  0.45617  1.0000
  C   C182      1.0  0.58664  0.13187  0.47219  1.0000
  H   H329      1.0  0.55297  0.06879  0.52080  1.0000
  C   C183      1.0  0.59706  0.12126  0.40839  1.0000
  C   C184      1.0  0.58258  0.12775  0.39266  1.0000
  C   C185      1.0  0.56997  0.13605  0.41678  1.0000
  C   C186      1.0  0.55153  0.07859  0.70985  1.0000
  H   H330      1.0  0.58125  0.12654  0.36160  1.0000
  H   H331      1.0  0.55894  0.14120  0.40429  1.0000
  C   C187      1.0  0.53774  0.11088  0.57771  1.0000
  H   H332      1.0  0.62505  0.09773  0.78514  1.0000
  H   H333      1.0  0.54605  0.05845  0.66763  1.0000
  C   C188      1.0  0.64039  0.17483  0.40480  1.0000
  C   C189      1.0  0.53470  0.02015  0.00071  1.0000
  H   H334      1.0  0.52695  0.07962  0.57628  1.0000
  H   H335      1.0  0.60683  0.03314  0.62755  1.0000
  H   H336      1.0  0.52480  0.04475  0.00147  1.0000
  H   H337      1.0  0.54593  0.07103  0.25572  1.0000
  H   H338      1.0  0.53404  0.07644  0.72047  1.0000
  H   H339      1.0  0.54199  0.05667  0.59816  1.0000
  C   C190      1.0  0.64040  0.06826  0.57477  1.0000
  C   C191      1.0  0.64776  0.04985  0.87032  1.0000
  Fe  Fe25      1.0  0.58458  0.98906  0.87694  1.0000
  H   H340      1.0  0.53215  0.08189  0.64496  1.0000
  H   H341      1.0  0.60473  0.04981  0.88702  1.0000
  S   S45       1.0  0.60267  0.19458  0.60816  1.0000
  S   S46       1.0  0.58647  0.13801  0.65629  1.0000
  C   C192      1.0  0.51914  0.11183  0.55909  1.0000
  H   H342      1.0  0.51677  0.12569  0.56338  1.0000
  H   H343      1.0  0.58062  0.06388  0.24044  1.0000
  C   C193      1.0  0.56417  0.06575  0.53797  1.0000
  H   H344      1.0  0.56592  0.04314  0.50249  1.0000
  C   C194      1.0  0.53882  0.00679  0.06568  1.0000
  H   H345      1.0  0.58481  0.00747  0.27839  1.0000
  C   C195      1.0  0.56590  0.00951  0.33550  1.0000
  H   H346      1.0  0.58836  0.13364  0.50264  1.0000
  H   H347      1.0  0.62043  0.19755  0.36697  1.0000
  H   H348      1.0  0.52375  0.04570  0.07483  1.0000
  H   H349      1.0  0.48043  0.01910  0.11099  1.0000
  C   C196      1.0  0.54283  0.09252  0.56898  1.0000
  H   H350      1.0  0.57014  0.06430  0.59783  1.0000
  H   H351      1.0  0.59300  0.98838  0.63798  1.0000
  C   C197      1.0  0.63365  0.02442  0.83103  1.0000
  H   H352      1.0  0.59819  0.13151  0.26840  1.0000
  H   H353      1.0  0.58146  0.00824  0.10550  1.0000
  H   H354      1.0  0.58273  0.06951  0.38392  1.0000
  H   H355      1.0  0.55474  0.21907  0.52738  1.0000
  C   C198      1.0  0.56027  0.06082  0.34289  1.0000
  C   C199      1.0  0.56660  0.06934  0.38097  1.0000
  H   H356      1.0  0.55300  0.05204  0.20075  1.0000
  C   C200      1.0  0.56644  0.01435  0.37441  1.0000
  C   C201      1.0  0.54983  0.05727  0.42043  1.0000
  S   S47       1.0  0.56517  0.00493  0.20124  1.0000
  H   H357      1.0  0.55543  0.09939  0.93222  1.0000
  H   H358      1.0  0.54006  0.02962  0.23826  1.0000
  C   C202      1.0  0.57911  0.09100  0.29257  1.0000
  H   H359      1.0  0.55627  0.04474  0.34901  1.0000
  H   H360      1.0  0.54459  0.06242  0.34183  1.0000
  C   C203      1.0  0.59233  0.00920  0.07549  1.0000
  H   H361      1.0  0.56716  0.08456  0.37913  1.0000
  H   H362      1.0  0.54444  0.99558  0.00993  1.0000
  H   H363      1.0  0.58666  0.02493  0.41608  1.0000
  C   C204      1.0  0.54070  0.04473  0.23021  1.0000
  C   C205      1.0  0.52824  0.03475  0.06065  1.0000
  H   H364      1.0  0.57332  0.04075  0.55040  1.0000
  C   C206      1.0  0.53992  0.00654  0.02388  1.0000
  H   H365      1.0  0.52438  0.04359  0.22600  1.0000
  H   H366      1.0  0.55445  0.06420  0.44673  1.0000
  H   H367      1.0  0.53324  0.05668  0.41941  1.0000
  H   H368      1.0  0.54949  0.04211  0.42521  1.0000
  C   C207      1.0  0.64829  0.03674  0.79555  1.0000
  H   H369      1.0  0.59091  0.07517  0.80557  1.0000
  C   C208      1.0  0.61980  0.08891  0.85141  1.0000
  H   H370      1.0  0.57693  0.09083  0.85462  1.0000
  H   H371      1.0  0.60785  0.08214  0.32006  1.0000
  C   C209      1.0  0.58186  0.08498  0.88098  1.0000
  C   C210      1.0  0.58632  0.02117  0.38606  1.0000
  H   H372      1.0  0.64555  0.00765  0.07851  1.0000
  S   S48       1.0  0.57969  0.99765  0.93868  1.0000
  C   C211      1.0  0.59868  0.12281  0.44864  1.0000
  H   H373      1.0  0.60049  0.05432  0.66611  1.0000
  H   H374      1.0  0.62437  0.07331  0.92463  1.0000
  H   H375      1.0  0.63117  0.08121  0.84392  1.0000
  H   H376      1.0  0.61189  0.10548  0.25199  1.0000
  C   C212      1.0  0.61430  0.06764  0.26874  1.0000
  H   H377      1.0  0.54784  0.02588  0.80975  1.0000
  C   C213      1.0  0.60500  0.01740  0.32058  1.0000
  Fe  Fe26      1.0  0.54772  0.99703  0.92848  1.0000
  H   H378      1.0  0.60769  0.05263  0.26145  1.0000
  H   H379      1.0  0.57908  0.04827  0.91405  1.0000
  C   C214      1.0  0.62007  0.03983  0.69116  1.0000
  C   C215      1.0  0.54625  0.05634  0.26435  1.0000
  C   C216      1.0  0.61187  0.18944  0.39858  1.0000
  C   C217      1.0  0.47461  0.98623  0.07442  1.0000
  H   H380      1.0  0.48865  0.99445  0.99440  1.0000
  H   H381      1.0  0.62462  0.00693  0.02044  1.0000
  H   H382      1.0  0.60095  0.07877  0.94540  1.0000
  S   S49       1.0  0.53162  0.02189  0.13601  1.0000
  C   C218      1.0  0.56071  0.07343  0.91528  1.0000
  C   C219      1.0  0.53308  0.02097  0.08403  1.0000
  C   C220      1.0  0.56897  0.05808  0.27089  1.0000
  H   H383      1.0  0.60540  0.13187  0.21411  1.0000
  S   S50       1.0  0.61381  0.11241  0.37615  1.0000
  H   H384      1.0  0.55146  0.01295  0.39544  1.0000
  H   H385      1.0  0.50361  0.09925  0.57416  1.0000
  H   H386      1.0  0.56275  0.09165  0.29401  1.0000
  C   C221      1.0  0.55619  0.07414  0.66660  1.0000
  C   C222      1.0  0.55846  0.06822  0.58336  1.0000
  H   H387      1.0  0.62654  0.11641  0.54027  1.0000
  H   H388      1.0  0.54938  0.09528  0.53521  1.0000
  C   C223      1.0  0.54334  0.22118  0.50945  1.0000
  H   H389      1.0  0.54488  0.03419  0.54946  1.0000
  H   H390      1.0  0.53276  0.11098  0.61085  1.0000
  H   H391      1.0  0.58127  0.07563  0.52243  1.0000
  H   H392      1.0  0.60240  0.19747  0.41407  1.0000
  H   H393      1.0  0.54246  0.99608  0.08368  1.0000
  C   C224      1.0  0.55039  0.08740  0.63618  1.0000
  C   C225      1.0  0.52887  0.03424  0.01917  1.0000
  N   N11       1.0  0.55851  0.08803  0.59091  1.0000
  S   S51       1.0  0.53515  0.01961  0.94886  1.0000
  H   H394      1.0  0.55231  0.12450  0.56379  1.0000
  H   H395      1.0  0.60532  0.03886  0.96312  1.0000
  S   S52       1.0  0.54108  0.00244  0.32078  1.0000
  H   H396      1.0  0.52312  0.11166  0.52572  1.0000
  C   C226      1.0  0.59035  0.06431  0.83118  1.0000
  C   C227      1.0  0.62835  0.18782  0.42251  1.0000
  H   H397      1.0  0.61912  0.18121  0.45466  1.0000
  C   C228      1.0  0.58081  0.10412  0.57397  1.0000
  C   C229      1.0  0.59918  0.10331  0.59415  1.0000
  H   H398      1.0  0.59574  0.05617  0.33019  1.0000
  H   H399      1.0  0.58639  0.10470  0.54062  1.0000
  H   H400      1.0  0.58004  0.11866  0.57727  1.0000
  H   H401      1.0  0.60082  0.08901  0.59448  1.0000
  H   H402      1.0  0.59581  0.10591  0.62598  1.0000
  H   H403      1.0  0.57355  0.07590  0.65804  1.0000
  H   H404      1.0  0.55458  0.05409  0.84533  1.0000
  C   C230      1.0  0.60622  0.06702  0.93522  1.0000
  H   H405      1.0  0.53309  0.04832  0.29234  1.0000
  H   H406      1.0  0.55520  0.06861  0.73120  1.0000
  H   H407      1.0  0.56198  0.09399  0.71056  1.0000
  S   S53       1.0  0.58620  0.19897  0.52278  1.0000
  S   S54       1.0  0.55861  0.21601  0.61617  1.0000
  H   H408      1.0  0.58881  0.01792  0.57320  1.0000
  H   H409      1.0  0.58300  0.00867  0.05166  1.0000
  C   C231      1.0  0.58518  0.01104  0.30854  1.0000
  H   H410      1.0  0.45990  0.98856  0.00527  1.0000
  H   H411      1.0  0.54100  0.08854  0.89496  1.0000
  H   H412      1.0  0.64358  0.17826  0.37091  1.0000
  H   H413      1.0  0.59058  0.09569  0.22528  1.0000
  S   S55       1.0  0.55421  0.99158  0.86416  1.0000
  C   C232      1.0  0.59719  0.00578  0.72143  1.0000
  C   C233      1.0  0.54638  0.08537  0.92291  1.0000
  H   H414      1.0  0.55071  0.05942  0.90768  1.0000
  H   H415      1.0  0.62707  0.99854  0.95437  1.0000
  H   H416      1.0  0.56605  0.99955  0.61143  1.0000
  H   H417      1.0  0.53157  0.07682  0.94791  1.0000
  H   H418      1.0  0.61603  0.06627  0.74285  1.0000
  H   H419      1.0  0.61161  0.11073  0.81555  1.0000
  H   H420      1.0  0.56815  0.04287  0.27916  1.0000
  H   H421      1.0  0.56473  0.06996  0.94460  1.0000
  N   N12       1.0  0.57703  0.07003  0.30253  1.0000
  C   C234      1.0  0.62116  0.11935  0.57134  1.0000
  H   H422      1.0  0.63950  0.00712  0.72411  1.0000
  H   H423      1.0  0.62284  0.02119  0.89638  1.0000
  H   H424      1.0  0.62623  0.99886  0.66034  1.0000
  H   H425      1.0  0.60654  0.02345  0.06856  1.0000
  H   H426      1.0  0.49228  0.99599  0.06536  1.0000
  H   H427      1.0  0.58533  0.09936  0.31622  1.0000
  S   S56       1.0  0.60416  0.16432  0.54352  1.0000
  H   H428      1.0  0.62858  0.15932  0.41371  1.0000
  C   C235      1.0  0.61304  0.99165  0.03444  1.0000
  H   H429      1.0  0.60025  0.07622  0.71673  1.0000
  H   H430      1.0  0.64488  0.08653  0.28077  1.0000
  Fe  Fe27      1.0  0.61550  0.19681  0.54091  1.0000
  C   C236      1.0  0.64823  0.98788  0.03526  1.0000
  C   C237      1.0  0.61247  0.06927  0.71282  1.0000
  H   H431      1.0  0.60328  0.11463  0.70276  1.0000
  C   C238      1.0  0.62443  0.10449  0.81309  1.0000
  H   H432      1.0  0.60635  0.00721  0.74575  1.0000
  C   C239      1.0  0.63046  0.15890  0.63970  1.0000
  H   H433      1.0  0.60976  0.99359  0.10027  1.0000
  H   H434      1.0  0.45438  0.02071  0.11043  1.0000
  C   C240      1.0  0.60560  0.02260  0.35920  1.0000
  H   H435      1.0  0.60984  0.11780  0.46097  1.0000
  C   C241      1.0  0.59863  0.06923  0.30732  1.0000
  S   S57       1.0  0.60925  0.06440  0.44173  1.0000
  C   C242      1.0  0.61677  0.12794  0.68652  1.0000
  C   C243      1.0  0.59476  0.10305  0.25129  1.0000
  C   C244      1.0  0.59369  0.12331  0.24347  1.0000
  H   H436      1.0  0.64761  0.05491  0.89928  1.0000
  C   C245      1.0  0.46304  0.01048  0.11162  1.0000
  H   H437      1.0  0.58772  0.22421  0.69907  1.0000
  C   C246      1.0  0.59994  0.05075  0.97209  1.0000
  H   H438      1.0  0.57697  0.12193  0.24146  1.0000
  H   H439      1.0  0.61488  0.00716  0.60043  1.0000
  H   H440      1.0  0.58767  0.04075  0.71699  1.0000
  H   H441      1.0  0.56644  0.04822  0.77574  1.0000
  H   H442      1.0  0.44406  0.99131  0.07670  1.0000
  H   H443      1.0  0.58213  0.01726  0.66324  1.0000
  C   C247      1.0  0.56733  0.04781  0.83975  1.0000
  N   N13       1.0  0.61171  0.01919  0.68197  1.0000
  C   C248      1.0  0.59599  0.05893  0.90008  1.0000
  C   C249      1.0  0.60358  0.05027  0.69610  1.0000
  H   H444      1.0  0.63379  0.11995  0.58843  1.0000
  C   C250      1.0  0.56451  0.03757  0.80289  1.0000
  C   C251      1.0  0.59837  0.00342  0.62079  1.0000
  S   S58       1.0  0.64717  0.21848  0.50082  1.0000
  S   S59       1.0  0.61819  0.06525  0.55293  1.0000
  H   H445      1.0  0.57669  0.03067  0.79602  1.0000
  H   H446      1.0  0.60262  0.05802  0.81897  1.0000
  H   H447      1.0  0.64079  0.99168  0.88663  1.0000
  C   C252      1.0  0.61300  0.14181  0.66106  1.0000
  H   H448      1.0  0.61636  0.07821  0.24149  1.0000
  Fe  Fe28      1.0  0.63110  0.07255  0.48482  1.0000
  Fe  Fe29      1.0  0.62936  0.09504  0.40783  1.0000
  H   H449      1.0  0.61998  0.01871  0.29967  1.0000
  H   H450      1.0  0.46853  0.01114  0.04693  1.0000
  H   H451      1.0  0.56441  0.03637  0.86608  1.0000
  C   C253      1.0  0.64649  0.12149  0.80699  1.0000
  C   C254      1.0  0.58298  0.00330  0.59302  1.0000
  H   H452      1.0  0.58352  0.01036  0.73345  1.0000
  C   C255      1.0  0.63798  0.13156  0.69154  1.0000
  H   H453      1.0  0.64645  0.12959  0.83300  1.0000
  H   H454      1.0  0.54630  0.21562  0.48041  1.0000
  N   N14       1.0  0.59646  0.07417  0.86661  1.0000
  S   S60       1.0  0.63049  0.03059  0.37362  1.0000
  Fe  Fe30      1.0  0.63575  0.05653  0.40602  1.0000
  H   H455      1.0  0.60058  0.98793  0.01598  1.0000
  H   H456      1.0  0.59102  0.09818  0.89299  1.0000
  C   C256      1.0  0.59919  0.01886  0.64925  1.0000
  H   H457      1.0  0.62503  0.09716  0.87589  1.0000
  H   H458      1.0  0.64925  0.18345  0.47621  1.0000
  H   H459      1.0  0.48623  0.99430  0.91987  1.0000
  H   H460      1.0  0.62614  0.04001  0.71955  1.0000
  H   H461      1.0  0.61989  0.13391  0.56884  1.0000
  H   H462      1.0  0.62777  0.16949  0.61950  1.0000
  Fe  Fe31      1.0  0.53563  0.99769  0.17504  1.0000
  H   H463      1.0  0.58274  0.99222  0.57296  1.0000
  C   C257      1.0  0.63538  0.98803  0.95273  1.0000
  Fe  Fe32      1.0  0.54090  0.99088  0.26150  1.0000
  H   H464      1.0  0.60792  0.05684  0.99631  1.0000
  C   C258      1.0  0.63363  0.03083  0.86866  1.0000
  C   C259      1.0  0.46157  0.99977  0.07514  1.0000
  H   H465      1.0  0.63445  0.04944  0.66649  1.0000
  C   C260      1.0  0.59999  0.99210  0.07725  1.0000
  H   H466      1.0  0.52625  0.21240  0.52713  1.0000
  C   C261      1.0  0.63129  0.01414  0.66621  1.0000
  S   S61       1.0  0.61540  0.00136  0.82692  1.0000
  H   H467      1.0  0.62772  0.07983  0.69121  1.0000
  H   H468      1.0  0.63995  0.20292  0.42194  1.0000
  H   H469      1.0  0.63543  0.09015  0.60855  1.0000
  H   H470      1.0  0.63592  0.06086  0.30265  1.0000
  C   C262      1.0  0.63702  0.07125  0.27572  1.0000
  H   H471      1.0  0.64301  0.15810  0.47544  1.0000
  H   H472      1.0  0.45528  0.99982  0.14084  1.0000
  H   H473      1.0  0.64263  0.98374  0.10293  1.0000
  H   H474      1.0  0.64084  0.12111  0.71179  1.0000
  H   H475      1.0  0.60231  0.23014  0.56460  1.0000
  H   H476      1.0  0.64870  0.03173  0.76671  1.0000
  H   H477      1.0  0.60985  0.99341  0.24664  1.0000
  S   S62       1.0  0.64904  0.10411  0.45412  1.0000
  H   H478      1.0  0.64079  0.02360  0.63600  1.0000
  C   C263      1.0  0.62132  0.98640  0.25247  1.0000
  H   H479      1.0  0.63714  0.99808  0.25274  1.0000
  C   C264      1.0  0.64768  0.01652  0.69354  1.0000
  S   S63       1.0  0.51148  0.98582  0.23614  1.0000
  H   H480      1.0  0.64750  0.06904  0.24851  1.0000
  C   C265      1.0  0.64516  0.08151  0.60171  1.0000
  C   C266      1.0  0.58634  0.98371  0.71982  1.0000
  H   H481      1.0  0.45660  0.98608  0.93449  1.0000
  H   H482      1.0  0.64917  0.04650  0.54598  1.0000
  H   H483      1.0  0.61514  0.23106  0.70598  1.0000
  H   H484      1.0  0.64979  0.13192  0.77842  1.0000
  H   H485      1.0  0.57576  0.27165  0.75084  1.0000
  H   H486      1.0  0.57355  0.41741  0.36363  1.0000
  H   H487      1.0  0.48706  0.42537  0.88615  1.0000
  C   C267      1.0  0.54917  0.36177  0.66552  1.0000
  H   H488      1.0  0.60914  0.31186  0.46869  1.0000
  H   H489      1.0  0.54068  0.40073  0.75464  1.0000
  C   C268      1.0  0.48787  0.45529  0.77222  1.0000
  S   S64       1.0  0.52279  0.47302  0.40819  1.0000
  Fe  Fe33      1.0  0.59332  0.34300  0.58417  1.0000
  S   S65       1.0  0.60048  0.32471  0.63162  1.0000
  S   S66       1.0  0.55863  0.33360  0.57887  1.0000
  H   H490      1.0  0.47461  0.43531  0.83072  1.0000
  H   H491      1.0  0.53783  0.46132  0.59114  1.0000
  H   H492      1.0  0.57000  0.35592  0.70283  1.0000
  Fe  Fe34      1.0  0.62722  0.32470  0.58125  1.0000
  H   H493      1.0  0.64306  0.42523  0.36316  1.0000
  Fe  Fe35      1.0  0.62491  0.35318  0.63888  1.0000
  S   S67       1.0  0.63115  0.35491  0.70130  1.0000
  S   S68       1.0  0.61798  0.34038  0.53268  1.0000
  S   S69       1.0  0.61519  0.37180  0.59623  1.0000
  Fe  Fe36      1.0  0.58265  0.45336  0.43271  1.0000
  S   S70       1.0  0.54828  0.43556  0.43099  1.0000
  H   H494      1.0  0.60630  0.37520  0.48199  1.0000
  H   H495      1.0  0.44527  0.44899  0.25039  1.0000
  S   S71       1.0  0.53237  0.45226  0.51299  1.0000
  S   S72       1.0  0.49252  0.48185  0.04399  1.0000
  Fe  Fe37      1.0  0.54250  0.42732  0.49878  1.0000
  S   S73       1.0  0.52061  0.39657  0.53026  1.0000
  Fe  Fe38      1.0  0.54157  0.46201  0.44510  1.0000
  C   C269      1.0  0.52677  0.27371  0.52121  1.0000
  S   S74       1.0  0.57765  0.44271  0.49946  1.0000
  H   H496      1.0  0.57678  0.32902  0.44413  1.0000
  C   C270      1.0  0.49406  0.43749  0.90259  1.0000
  C   C271      1.0  0.51004  0.37260  0.66233  1.0000
  H   H497      1.0  0.57231  0.40436  0.68045  1.0000
  H   H498      1.0  0.61819  0.27695  0.85679  1.0000
  C   C272      1.0  0.63920  0.47382  0.42397  1.0000
  H   H499      1.0  0.54545  0.33496  0.70436  1.0000
  Fe  Fe39      1.0  0.61267  0.46497  0.76933  1.0000
  S   S75       1.0  0.60556  0.44829  0.83238  1.0000
  C   C273      1.0  0.49070  0.45985  0.30484  1.0000
  Fe  Fe40      1.0  0.56534  0.44813  0.76588  1.0000
  S   S76       1.0  0.55446  0.43033  0.82868  1.0000
  S   S77       1.0  0.53881  0.44555  0.73346  1.0000
  Fe  Fe41      1.0  0.57707  0.45734  0.84529  1.0000
  S   S78       1.0  0.56751  0.46745  0.90386  1.0000
  Fe  Fe42      1.0  0.58403  0.42316  0.80880  1.0000
  S   S79       1.0  0.58248  0.39268  0.82647  1.0000
  H   H500      1.0  0.51116  0.26843  0.60350  1.0000
  S   S80       1.0  0.59350  0.43902  0.74427  1.0000
  H   H501      1.0  0.55565  0.24893  0.55751  1.0000
  H   H502      1.0  0.58825  0.25692  0.70434  1.0000
  C   C274      1.0  0.50821  0.47987  0.15258  1.0000
  H   H503      1.0  0.55178  0.29025  0.75239  1.0000
  H   H504      1.0  0.60688  0.41692  0.38415  1.0000
  H   H505      1.0  0.53805  0.35305  0.64809  1.0000
  H   H506      1.0  0.59397  0.28121  0.85082  1.0000
  H   H507      1.0  0.38918  0.46199  0.24544  1.0000
  C   C275      1.0  0.50431  0.29348  0.50548  1.0000
  H   H508      1.0  0.52793  0.27106  0.48918  1.0000
  H   H509      1.0  0.57495  0.31263  0.72860  1.0000
  H   H510      1.0  0.42045  0.44950  0.13364  1.0000
  H   H511      1.0  0.50289  0.44191  0.80961  1.0000
  H   H512      1.0  0.51123  0.26186  0.53939  1.0000
  H   H513      1.0  0.50262  0.30784  0.50655  1.0000
  C   C276      1.0  0.64633  0.42635  0.82907  1.0000
  C   C277      1.0  0.60380  0.23660  0.69392  1.0000
  C   C278      1.0  0.44299  0.48141  0.37112  1.0000
  H   H514      1.0  0.59199  0.44062  0.64796  1.0000
  C   C279      1.0  0.56364  0.41335  0.66987  1.0000
  C   C280      1.0  0.56518  0.40158  0.37749  1.0000
  C   C281      1.0  0.35917  0.45905  0.22940  1.0000
  H   H515      1.0  0.58251  0.47249  0.69350  1.0000
  C   C282      1.0  0.50878  0.43198  0.92638  1.0000
  H   H516      1.0  0.51794  0.36861  0.63433  1.0000
  H   H517      1.0  0.63593  0.26635  0.70999  1.0000
  H   H518      1.0  0.48895  0.28173  0.52434  1.0000
  C   C283      1.0  0.62242  0.42965  0.51908  1.0000
  H   H519      1.0  0.52248  0.43013  0.90530  1.0000
  C   C284      1.0  0.62261  0.27135  0.70547  1.0000
  S   S81       1.0  0.60985  0.45451  0.38130  1.0000
  C   C285      1.0  0.64577  0.30370  0.71484  1.0000
  H   H520      1.0  0.35348  0.44289  0.23117  1.0000
  C   C286      1.0  0.50257  0.47491  0.11629  1.0000
  C   C287      1.0  0.54359  0.40112  0.65501  1.0000
  C   C288      1.0  0.56681  0.28553  0.50453  1.0000
  C   C289      1.0  0.48995  0.44812  0.81533  1.0000
  H   H521      1.0  0.47272  0.45736  0.21904  1.0000
  Fe  Fe43      1.0  0.64055  0.36775  0.54785  1.0000
  C   C290      1.0  0.53797  0.45456  0.65424  1.0000
  C   C291      1.0  0.55057  0.45772  0.68307  1.0000
  C   C292      1.0  0.64646  0.42692  0.78381  1.0000
  H   H522      1.0  0.62814  0.44444  0.63987  1.0000
  C   C293      1.0  0.54762  0.46365  0.61330  1.0000
  H   H523      1.0  0.52084  0.44495  0.66339  1.0000
  H   H524      1.0  0.35205  0.46218  0.25918  1.0000
  H   H525      1.0  0.49913  0.41793  0.94802  1.0000
  C   C294      1.0  0.61736  0.36585  0.73440  1.0000
  C   C295      1.0  0.61534  0.36120  0.77631  1.0000
  C   C296      1.0  0.60454  0.36954  0.80402  1.0000
  C   C297      1.0  0.59623  0.38305  0.79002  1.0000
  C   C298      1.0  0.59854  0.38806  0.74791  1.0000
  C   C299      1.0  0.60898  0.37930  0.72002  1.0000
  H   H526      1.0  0.62193  0.35094  0.78750  1.0000
  H   H527      1.0  0.60275  0.36562  0.83649  1.0000
  H   H528      1.0  0.59196  0.39836  0.73701  1.0000
  H   H529      1.0  0.61072  0.38303  0.68755  1.0000
  C   C300      1.0  0.54943  0.35182  0.56344  1.0000
  C   C301      1.0  0.52812  0.34586  0.55831  1.0000
  C   C302      1.0  0.51974  0.35981  0.54731  1.0000
  C   C303      1.0  0.53260  0.37984  0.54128  1.0000
  C   C304      1.0  0.55403  0.38593  0.54621  1.0000
  C   C305      1.0  0.56247  0.37188  0.55743  1.0000
  H   H530      1.0  0.51793  0.33040  0.56326  1.0000
  H   H531      1.0  0.50317  0.35506  0.54358  1.0000
  H   H532      1.0  0.56382  0.40141  0.54253  1.0000
  H   H533      1.0  0.57890  0.37656  0.56176  1.0000
  C   C306      1.0  0.63277  0.40036  0.41388  1.0000
  C   C307      1.0  0.61491  0.27595  0.58706  1.0000
  C   C308      1.0  0.59514  0.27307  0.61447  1.0000
  H   H534      1.0  0.62327  0.29700  0.48465  1.0000
  H   H535      1.0  0.59304  0.28505  0.62800  1.0000
  H   H536      1.0  0.53290  0.47378  0.78151  1.0000
  C   C309      1.0  0.60681  0.29655  0.71914  1.0000
  H   H537      1.0  0.46282  0.47488  0.23994  1.0000
  H   H538      1.0  0.52755  0.24141  0.55978  1.0000
  H   H539      1.0  0.47719  0.46369  0.77340  1.0000
  H   H540      1.0  0.40012  0.46444  0.09549  1.0000
  H   H541      1.0  0.58892  0.42344  0.61272  1.0000
  H   H542      1.0  0.52374  0.35637  0.72029  1.0000
  H   H543      1.0  0.58349  0.29140  0.77856  1.0000
  H   H544      1.0  0.55055  0.29490  0.57298  1.0000
  H   H545      1.0  0.54865  0.37633  0.71716  1.0000
  C   C310      1.0  0.48134  0.48296  0.34921  1.0000
  H   H546      1.0  0.44520  0.44619  0.41578  1.0000
  H   H547      1.0  0.42131  0.46835  0.02557  1.0000
  H   H548      1.0  0.46612  0.35887  0.65614  1.0000
  C   C311      1.0  0.56975  0.47609  0.60145  1.0000
  H   H549      1.0  0.45817  0.45622  0.33433  1.0000
  C   C312      1.0  0.42768  0.46635  0.19976  1.0000
  N   N15       1.0  0.41948  0.47334  0.16513  1.0000
  H   H550      1.0  0.48062  0.43866  0.92568  1.0000
  C   C313      1.0  0.55846  0.47302  0.01885  1.0000
  C   C314      1.0  0.45987  0.47076  0.84631  1.0000
  C   C315      1.0  0.47807  0.37086  0.63130  1.0000
  H   H551      1.0  0.61811  0.39995  0.51387  1.0000
  H   H552      1.0  0.61479  0.42781  0.44329  1.0000
  N   N16       1.0  0.60974  0.39811  0.43342  1.0000
  H   H553      1.0  0.51074  0.46933  0.17335  1.0000
  H   H554      1.0  0.56291  0.37410  0.64408  1.0000
  H   H555      1.0  0.55549  0.48134  0.07721  1.0000
  H   H556      1.0  0.56460  0.38121  0.42727  1.0000
  H   H557      1.0  0.61759  0.41856  0.66217  1.0000
  H   H558      1.0  0.42247  0.44808  0.05773  1.0000
  H   H559      1.0  0.48448  0.36442  0.60590  1.0000
  H   H560      1.0  0.41432  0.46597  0.32147  1.0000
  H   H561      1.0  0.63238  0.26236  0.54818  1.0000
  H   H562      1.0  0.50067  0.46054  0.10911  1.0000
  C   C316      1.0  0.54683  0.27892  0.57624  1.0000
  H   H563      1.0  0.48467  0.44468  0.29830  1.0000
  C   C317      1.0  0.53825  0.45385  0.02978  1.0000
  H   H564      1.0  0.64371  0.44767  0.70268  1.0000
  H   H565      1.0  0.44442  0.47103  0.11649  1.0000
  H   H566      1.0  0.53598  0.41156  0.64651  1.0000
  H   H567      1.0  0.58129  0.37637  0.47640  1.0000
  H   H568      1.0  0.63885  0.42253  0.71484  1.0000
  H   H569      1.0  0.58799  0.27006  0.51938  1.0000
  C   C318      1.0  0.45810  0.46115  0.22697  1.0000
  H   H570      1.0  0.41598  0.45141  0.21602  1.0000
  H   H571      1.0  0.52219  0.45595  0.85514  1.0000
  H   H572      1.0  0.64036  0.39561  0.43706  1.0000
  C   C319      1.0  0.54716  0.24293  0.50028  1.0000
  H   H573      1.0  0.38794  0.47109  0.15511  1.0000
  H   H574      1.0  0.50667  0.29119  0.47321  1.0000
  H   H575      1.0  0.60563  0.42524  0.53864  1.0000
  C   C320      1.0  0.58006  0.42964  0.63522  1.0000
  S   S82       1.0  0.58552  0.47593  0.78377  1.0000
  H   H576      1.0  0.53029  0.29263  0.64398  1.0000
  C   C321      1.0  0.57404  0.39694  0.41376  1.0000
  H   H577      1.0  0.50689  0.46299  0.31181  1.0000
  H   H578      1.0  0.52363  0.45661  0.02510  1.0000
  H   H579      1.0  0.54093  0.44349  0.00961  1.0000
  H   H580      1.0  0.53507  0.44694  0.06213  1.0000
  H   H581      1.0  0.50753  0.39634  0.62179  1.0000
  H   H582      1.0  0.57268  0.46946  0.02300  1.0000
  H   H583      1.0  0.35966  0.46607  0.04667  1.0000
  C   C322      1.0  0.60016  0.24191  0.57897  1.0000
  C   C323      1.0  0.56833  0.29638  0.73118  1.0000
  C   C324      1.0  0.55873  0.34821  0.68448  1.0000
  C   C325      1.0  0.57789  0.25452  0.62413  1.0000
  C   C326      1.0  0.62294  0.29677  0.80079  1.0000
  C   C327      1.0  0.57830  0.34122  0.46156  1.0000
  C   C328      1.0  0.61893  0.28059  0.77371  1.0000
  H   H584      1.0  0.51445  0.40402  0.71198  1.0000
  H   H585      1.0  0.61295  0.31258  0.71998  1.0000
  C   C329      1.0  0.37415  0.47945  0.03998  1.0000
  H   H586      1.0  0.56807  0.34339  0.65987  1.0000
  C   C330      1.0  0.44837  0.44609  0.47751  1.0000
  H   H587      1.0  0.47853  0.47312  0.89231  1.0000
  H   H588      1.0  0.58790  0.36264  0.40769  1.0000
  H   H589      1.0  0.43108  0.45928  0.89814  1.0000
  C   C331      1.0  0.61204  0.28810  0.84596  1.0000
  H   H590      1.0  0.55841  0.42040  0.69509  1.0000
  H   H591      1.0  0.53850  0.30595  0.50312  1.0000
  C   C332      1.0  0.61736  0.26028  0.56969  1.0000
  H   H592      1.0  0.59255  0.40949  0.47906  1.0000
  H   H593      1.0  0.59187  0.29239  0.53962  1.0000
  C   C333      1.0  0.58849  0.28519  0.51301  1.0000
  S   S83       1.0  0.57642  0.48052  0.44159  1.0000
  C   C334      1.0  0.59763  0.37779  0.45859  1.0000
  C   C335      1.0  0.59891  0.40143  0.39998  1.0000
  C   C336      1.0  0.41822  0.47132  0.08936  1.0000
  H   H594      1.0  0.64836  0.27746  0.47465  1.0000
  C   C337      1.0  0.45007  0.46424  0.18860  1.0000
  H   H595      1.0  0.60158  0.39301  0.37533  1.0000
  H   H596      1.0  0.44792  0.45503  0.50202  1.0000
  H   H597      1.0  0.44566  0.47137  0.04294  1.0000
  H   H598      1.0  0.58398  0.33814  0.48910  1.0000
  H   H599      1.0  0.46182  0.42829  0.76776  1.0000
  C   C338      1.0  0.47872  0.43802  0.75063  1.0000
  C   C339      1.0  0.62360  0.41417  0.49296  1.0000
  C   C340      1.0  0.47448  0.46160  0.34121  1.0000
  C   C341      1.0  0.42752  0.46428  0.05172  1.0000
  H   H600      1.0  0.44844  0.45130  0.17333  1.0000
  H   H601      1.0  0.51574  0.39546  0.82228  1.0000
  H   H602      1.0  0.56759  0.39260  0.35387  1.0000
  H   H603      1.0  0.54958  0.39688  0.62569  1.0000
  C   C342      1.0  0.52386  0.29359  0.52207  1.0000
  H   H604      1.0  0.56261  0.25224  0.64529  1.0000
  H   H605      1.0  0.61585  0.29997  0.86447  1.0000
  H   H606      1.0  0.48957  0.39044  0.67194  1.0000
  H   H607      1.0  0.56854  0.30108  0.50284  1.0000
  C   C343      1.0  0.38414  0.46840  0.22009  1.0000
  H   H608      1.0  0.52092  0.29666  0.55367  1.0000
  C   C344      1.0  0.52612  0.26789  0.61159  1.0000
  H   H609      1.0  0.56189  0.34190  0.47151  1.0000
  H   H610      1.0  0.56062  0.27717  0.58704  1.0000
  C   C345      1.0  0.49680  0.38412  0.64731  1.0000
  H   H611      1.0  0.56676  0.29257  0.70070  1.0000
  C   C346      1.0  0.54398  0.25120  0.54043  1.0000
  H   H612      1.0  0.64882  0.44103  0.83741  1.0000
  H   H613      1.0  0.56602  0.28232  0.47326  1.0000
  S   S84       1.0  0.63670  0.29894  0.57326  1.0000
  N   N17       1.0  0.54610  0.27232  0.53561  1.0000
  C   C347      1.0  0.41994  0.48209  0.32027  1.0000
  C   C348      1.0  0.46313  0.47687  0.42322  1.0000
  H   H614      1.0  0.47442  0.45182  0.36814  1.0000
  H   H615      1.0  0.54261  0.27605  0.66027  1.0000
  H   H616      1.0  0.60206  0.26955  0.78631  1.0000
  C   C349      1.0  0.50701  0.45720  0.87233  1.0000
  N   N18       1.0  0.62295  0.28792  0.72862  1.0000
  H   H617      1.0  0.54738  0.39823  0.38811  1.0000
  H   H618      1.0  0.61034  0.24184  0.66043  1.0000
  H   H619      1.0  0.64218  0.31556  0.65551  1.0000
  H   H620      1.0  0.62970  0.27258  0.77871  1.0000
  C   C350      1.0  0.60951  0.41284  0.46132  1.0000
  H   H621      1.0  0.35310  0.46525  0.20537  1.0000
  C   C351      1.0  0.60091  0.25308  0.71551  1.0000
  C   C352      1.0  0.50925  0.39523  0.79451  1.0000
  H   H622      1.0  0.49220  0.38415  0.80258  1.0000
  H   H623      1.0  0.63024  0.41566  0.84793  1.0000
  C   C353      1.0  0.58035  0.23895  0.60605  1.0000
  C   C354      1.0  0.57269  0.47012  0.67130  1.0000
  H   H624      1.0  0.49823  0.35847  0.68204  1.0000
  N   N19       1.0  0.52680  0.38337  0.68468  1.0000
  C   C355      1.0  0.51498  0.38934  0.72098  1.0000
  C   C356      1.0  0.60790  0.29652  0.47661  1.0000
  H   H625      1.0  0.46279  0.47725  0.16756  1.0000
  H   H626      1.0  0.62602  0.27646  0.67197  1.0000
  C   C357      1.0  0.39472  0.46488  0.17785  1.0000
  Fe  Fe44      1.0  0.56812  0.46842  0.50828  1.0000
  H   H627      1.0  0.63226  0.42684  0.60922  1.0000
  H   H628      1.0  0.52384  0.25226  0.61949  1.0000
  H   H629      1.0  0.52310  0.37531  0.77280  1.0000
  H   H630      1.0  0.51334  0.26890  0.67500  1.0000
  C   C358      1.0  0.63130  0.43070  0.64020  1.0000
  C   C359      1.0  0.58330  0.28780  0.74753  1.0000
  C   C360      1.0  0.52828  0.27698  0.65002  1.0000
  C   C361      1.0  0.47436  0.46368  0.86894  1.0000
  C   C362      1.0  0.52362  0.38995  0.76045  1.0000
  H   H631      1.0  0.42835  0.47608  0.22312  1.0000
  H   H632      1.0  0.38603  0.47563  0.97869  1.0000
  C   C363      1.0  0.53677  0.36944  0.69909  1.0000
  H   H633      1.0  0.61675  0.30810  0.79131  1.0000
  H   H634      1.0  0.50906  0.40990  0.78509  1.0000
  H   H635      1.0  0.38828  0.44872  0.17834  1.0000
  H   H636      1.0  0.51568  0.44352  0.94424  1.0000
  H   H637      1.0  0.64660  0.31672  0.72959  1.0000
  H   H638      1.0  0.57074  0.40591  0.43675  1.0000
  H   H639      1.0  0.49753  0.37895  0.73136  1.0000
  H   H640      1.0  0.60539  0.29552  0.68721  1.0000
  C   C364      1.0  0.42634  0.46582  0.12688  1.0000
  H   H641      1.0  0.60619  0.28917  0.44961  1.0000
  H   H642      1.0  0.46948  0.37965  0.61930  1.0000
  H   H643      1.0  0.57175  0.43740  0.61905  1.0000
  H   H644      1.0  0.47826  0.44362  0.71936  1.0000
  H   H645      1.0  0.62657  0.47944  0.67818  1.0000
  H   H646      1.0  0.62724  0.44416  0.49949  1.0000
  C   C365      1.0  0.59447  0.36055  0.43454  1.0000
  H   H647      1.0  0.49266  0.47018  0.27709  1.0000
  H   H648      1.0  0.64348  0.41196  0.77727  1.0000
  H   H649      1.0  0.63266  0.39031  0.39139  1.0000
  H   H650      1.0  0.59485  0.24706  0.74868  1.0000
  H   H651      1.0  0.48929  0.42939  0.74781  1.0000
  H   H652      1.0  0.63239  0.43060  0.77896  1.0000
  H   H653      1.0  0.62521  0.47148  0.44870  1.0000
  H   H654      1.0  0.42882  0.45674  0.44616  1.0000
  C   C366      1.0  0.58223  0.47935  0.63047  1.0000
  H   H655      1.0  0.46432  0.44429  0.47111  1.0000
  H   H656      1.0  0.64081  0.30429  0.79793  1.0000
  H   H657      1.0  0.56117  0.47881  0.98627  1.0000
  H   H658      1.0  0.61034  0.35899  0.42380  1.0000
  H   H659      1.0  0.43508  0.43133  0.48858  1.0000
  H   H660      1.0  0.43489  0.46529  0.37383  1.0000
  H   H661      1.0  0.46333  0.44882  0.88627  1.0000
  C   C367      1.0  0.44524  0.45589  0.43869  1.0000
  H   H662      1.0  0.47915  0.47624  0.42566  1.0000
  H   H663      1.0  0.50415  0.46502  0.75253  1.0000
  N   N20       1.0  0.49506  0.46310  0.84321  1.0000
  C   C368      1.0  0.64840  0.42126  0.39058  1.0000
  H   H664      1.0  0.63401  0.43124  0.53895  1.0000
  H   H665      1.0  0.45198  0.45962  0.82854  1.0000
  H   H666      1.0  0.53553  0.24435  0.48229  1.0000
  H   H667      1.0  0.64102  0.41845  0.47745  1.0000
  H   H668      1.0  0.56409  0.25071  0.48106  1.0000
  H   H669      1.0  0.51239  0.46880  0.89101  1.0000
  H   H670      1.0  0.53528  0.47872  0.95069  1.0000
  C   C369      1.0  0.63613  0.46694  0.38766  1.0000
  C   C370      1.0  0.44147  0.47327  0.87677  1.0000
  H   H671      1.0  0.64899  0.43262  0.40995  1.0000
  H   H672      1.0  0.43096  0.47795  0.86010  1.0000
  Fe  Fe45      1.0  0.34360  0.53324  0.19415  1.0000
  S   S85       1.0  0.50723  0.55499  0.20554  1.0000
  Fe  Fe46      1.0  0.54072  0.57853  0.19730  1.0000
  S   S86       1.0  0.55401  0.60351  0.14407  1.0000
  S   S87       1.0  0.53580  0.58340  0.26227  1.0000
  Fe  Fe47      1.0  0.49175  0.54829  0.99748  1.0000
  H   H673      1.0  0.53285  0.62273  0.10022  1.0000
  S   S88       1.0  0.49420  0.57003  0.03956  1.0000
  H   H674      1.0  0.50332  0.54797  0.36642  1.0000
  H   H675      1.0  0.48903  0.54148  0.41992  1.0000
  Fe  Fe48      1.0  0.50789  0.71218  0.06444  1.0000
  S   S89       1.0  0.48322  0.69143  0.03710  1.0000
  C   C371      1.0  0.36033  0.69884  0.84659  1.0000
  Fe  Fe49      1.0  0.50899  0.68020  0.12454  1.0000
  S   S90       1.0  0.48451  0.65655  0.10290  1.0000
  S   S91       1.0  0.52341  0.67322  0.17572  1.0000
  Fe  Fe50      1.0  0.50326  0.67297  0.03954  1.0000
  S   S92       1.0  0.51076  0.65904  0.98474  1.0000
  Fe  Fe51      1.0  0.46640  0.67666  0.10202  1.0000
  S   S93       1.0  0.42984  0.66277  0.12652  1.0000
  S   S94       1.0  0.52958  0.69512  0.06139  1.0000
  S   S95       1.0  0.48929  0.69910  0.12960  1.0000
  S   S96       1.0  0.42114  0.57603  0.11894  1.0000
  C   C372      1.0  0.45626  0.52920  0.12954  1.0000
  H   H676      1.0  0.63544  0.53140  0.73784  1.0000
  H   H677      1.0  0.37456  0.67699  0.84311  1.0000
  H   H678      1.0  0.47651  0.51733  0.34991  1.0000
  C   C373      1.0  0.39672  0.50864  0.06108  1.0000
  H   H679      1.0  0.53966  0.70966  0.25908  1.0000
  H   H680      1.0  0.32246  0.59752  0.26831  1.0000
  H   H681      1.0  0.43214  0.54055  0.37256  1.0000
  H   H682      1.0  0.33265  0.71904  0.06360  1.0000
  N   N21       1.0  0.60262  0.54153  0.62973  1.0000
  C   C374      1.0  0.54963  0.51163  0.40216  1.0000
  C   C375      1.0  0.42368  0.63817  0.12108  1.0000
  C   C376      1.0  0.40797  0.62278  0.15123  1.0000
  C   C377      1.0  0.40627  0.60334  0.14999  1.0000
  C   C378      1.0  0.42060  0.59949  0.11911  1.0000
  C   C379      1.0  0.43548  0.61478  0.08815  1.0000
  C   C380      1.0  0.43665  0.63397  0.08865  1.0000
  H   H683      1.0  0.39784  0.62597  0.17629  1.0000
  H   H684      1.0  0.39449  0.59149  0.17360  1.0000
  H   H685      1.0  0.44654  0.61189  0.06412  1.0000
  H   H686      1.0  0.44837  0.64571  0.06462  1.0000
  C   C381      1.0  0.41178  0.51383  0.02291  1.0000
  C   C382      1.0  0.56151  0.53560  0.33960  1.0000
  H   H687      1.0  0.42627  0.52714  0.01626  1.0000
  H   H688      1.0  0.39975  0.51793  0.08385  1.0000
  C   C383      1.0  0.49781  0.59429  0.02233  1.0000
  C   C384      1.0  0.50037  0.60168  0.98123  1.0000
  C   C385      1.0  0.50423  0.62164  0.96934  1.0000
  C   C386      1.0  0.50525  0.63397  0.99866  1.0000
  C   C387      1.0  0.50273  0.62639  0.03928  1.0000
  C   C388      1.0  0.49910  0.60675  0.05098  1.0000
  H   H689      1.0  0.49948  0.59211  0.95881  1.0000
  H   H690      1.0  0.50629  0.62749  0.93767  1.0000
  H   H691      1.0  0.50427  0.63577  0.06172  1.0000
  H   H692      1.0  0.49776  0.60138  0.08237  1.0000
  S   S97       1.0  0.47408  0.55749  0.31711  1.0000
  C   C389      1.0  0.54438  0.62203  0.15493  1.0000
  C   C390      1.0  0.54680  0.63030  0.19012  1.0000
  C   C391      1.0  0.54038  0.64611  0.19662  1.0000
  C   C392      1.0  0.53135  0.65345  0.16817  1.0000
  C   C393      1.0  0.52893  0.64512  0.13324  1.0000
  C   C394      1.0  0.53526  0.62936  0.12680  1.0000
  H   H693      1.0  0.55403  0.62480  0.21182  1.0000
  H   H694      1.0  0.54241  0.65262  0.22362  1.0000
  H   H695      1.0  0.52239  0.65093  0.11088  1.0000
  H   H696      1.0  0.58409  0.50253  0.34382  1.0000
  N   N22       1.0  0.38607  0.57620  0.00936  1.0000
  C   C395      1.0  0.39165  0.58333  0.96386  1.0000
  C   C396      1.0  0.36753  0.55628  0.01952  1.0000
  C   C397      1.0  0.37763  0.59009  0.03051  1.0000
  C   C398      1.0  0.40552  0.57558  0.02467  1.0000
  C   C399      1.0  0.42348  0.57144  0.99495  1.0000
  C   C400      1.0  0.40749  0.60514  0.94888  1.0000
  C   C401      1.0  0.36999  0.58489  0.07789  1.0000
  C   C402      1.0  0.37257  0.53932  0.00242  1.0000
  C   C403      1.0  0.35207  0.52038  0.01312  1.0000
  C   C404      1.0  0.44083  0.56956  0.01638  1.0000
  C   C405      1.0  0.41785  0.60929  0.90297  1.0000
  C   C406      1.0  0.36521  0.60145  0.09616  1.0000
  H   H697      1.0  0.37644  0.58170  0.95356  1.0000
  H   H698      1.0  0.39860  0.57403  0.94670  1.0000
  H   H699      1.0  0.36174  0.55111  0.05294  1.0000
  H   H700      1.0  0.35310  0.55725  0.00934  1.0000
  H   H701      1.0  0.36369  0.59128  0.01883  1.0000
  H   H702      1.0  0.39057  0.60514  0.02365  1.0000
  H   H703      1.0  0.41431  0.58980  0.03378  1.0000
  H   H704      1.0  0.39978  0.56446  0.05321  1.0000
  H   H705      1.0  0.43211  0.58366  0.96857  1.0000
  H   H706      1.0  0.41670  0.55784  0.98259  1.0000
  H   H707      1.0  0.39829  0.61486  0.95463  1.0000
  H   H708      1.0  0.42077  0.60932  0.96525  1.0000
  H   H709      1.0  0.38253  0.58209  0.09140  1.0000
  H   H710      1.0  0.35474  0.57163  0.08776  1.0000
  H   H711      1.0  0.37875  0.54271  0.96870  1.0000
  H   H712      1.0  0.38473  0.53621  0.01668  1.0000
  H   H713      1.0  0.33897  0.52244  0.00005  1.0000
  H   H714      1.0  0.35611  0.50846  0.00042  1.0000
  C   C407      1.0  0.62017  0.57887  0.63392  1.0000
  H   H715      1.0  0.44926  0.58349  0.02667  1.0000
  H   H716      1.0  0.43331  0.55755  0.04345  1.0000
  H   H717      1.0  0.45327  0.56623  0.99498  1.0000
  H   H718      1.0  0.42848  0.62512  0.89314  1.0000
  H   H719      1.0  0.42808  0.60056  0.89575  1.0000
  H   H720      1.0  0.40497  0.60566  0.88559  1.0000
  H   H721      1.0  0.35190  0.60413  0.08494  1.0000
  H   H722      1.0  0.35982  0.59718  0.12996  1.0000
  C   C408      1.0  0.32992  0.67319  0.91550  1.0000
  N   N23       1.0  0.44864  0.60209  0.23385  1.0000
  C   C409      1.0  0.45461  0.62203  0.20863  1.0000
  C   C410      1.0  0.45242  0.58837  0.20571  1.0000
  C   C411      1.0  0.42436  0.59423  0.25369  1.0000
  C   C412      1.0  0.46102  0.60272  0.26688  1.0000
  C   C413      1.0  0.48438  0.61898  0.25817  1.0000
  C   C414      1.0  0.44739  0.63657  0.23224  1.0000
  C   C415      1.0  0.41414  0.57283  0.27751  1.0000
  C   C416      1.0  0.47635  0.59318  0.18261  1.0000
  C   C417      1.0  0.47749  0.57774  0.15629  1.0000
  C   C418      1.0  0.49671  0.61510  0.28924  1.0000
  C   C419      1.0  0.45992  0.65781  0.21080  1.0000
  H   H723      1.0  0.44694  0.62053  0.18208  1.0000
  H   H724      1.0  0.47243  0.62905  0.19419  1.0000
  H   H725      1.0  0.44673  0.57324  0.22303  1.0000
  H   H726      1.0  0.44251  0.58742  0.18266  1.0000
  H   H727      1.0  0.41500  0.59503  0.23025  1.0000
  H   H728      1.0  0.42074  0.60349  0.27588  1.0000
  H   H729      1.0  0.45177  0.60470  0.29609  1.0000
  H   H730      1.0  0.46231  0.58826  0.27444  1.0000
  H   H731      1.0  0.48343  0.63354  0.26021  1.0000
  H   H732      1.0  0.49442  0.62017  0.22735  1.0000
  H   H733      1.0  0.42972  0.63317  0.23433  1.0000
  H   H734      1.0  0.44971  0.63541  0.26379  1.0000
  H   H735      1.0  0.42478  0.56998  0.29637  1.0000
  H   H736      1.0  0.41172  0.56241  0.25567  1.0000
  H   H737      1.0  0.48351  0.60777  0.16237  1.0000
  H   H738      1.0  0.48649  0.59265  0.20450  1.0000
  H   H739      1.0  0.47089  0.56302  0.17568  1.0000
  H   H740      1.0  0.46792  0.57746  0.13288  1.0000
  H   H741      1.0  0.49480  0.58101  0.14076  1.0000
  H   H742      1.0  0.49955  0.60136  0.28609  1.0000
  H   H743      1.0  0.51286  0.62739  0.28366  1.0000
  H   H744      1.0  0.48732  0.61377  0.32093  1.0000
  H   H745      1.0  0.45364  0.66760  0.22768  1.0000
  H   H746      1.0  0.47758  0.66232  0.20963  1.0000
  H   H747      1.0  0.45765  0.65954  0.17937  1.0000
  C   C420      1.0  0.62187  0.51707  0.37283  1.0000
  H   H748      1.0  0.53452  0.48970  0.32295  1.0000
  H   H749      1.0  0.36943  0.64679  0.00207  1.0000
  C   C421      1.0  0.42470  0.52953  0.26540  1.0000
  H   H750      1.0  0.39523  0.52169  0.36352  1.0000
  S   S98       1.0  0.46439  0.51921  0.02354  1.0000
  H   H751      1.0  0.62978  0.60833  0.64808  1.0000
  H   H752      1.0  0.38013  0.61518  0.08827  1.0000
  N   N24       1.0  0.57192  0.61344  0.00136  1.0000
  C   C422      1.0  0.56928  0.59647  0.03315  1.0000
  H   H753      1.0  0.58656  0.50236  0.84019  1.0000
  C   C423      1.0  0.56219  0.62660  0.02202  1.0000
  C   C424      1.0  0.56023  0.60650  0.96861  1.0000
  C   C425      1.0  0.56658  0.59128  0.94632  1.0000
  C   C426      1.0  0.54554  0.58158  0.05187  1.0000
  C   C427      1.0  0.56458  0.64552  0.99405  1.0000
  C   C428      1.0  0.59779  0.49869  0.32863  1.0000
  H   H754      1.0  0.56555  0.54473  0.93350  1.0000
  C   C429      1.0  0.55324  0.58508  0.91476  1.0000
  C   C430      1.0  0.54484  0.56446  0.08169  1.0000
  C   C431      1.0  0.55996  0.66031  0.01911  1.0000
  H   H755      1.0  0.57581  0.60196  0.05935  1.0000
  H   H756      1.0  0.57912  0.58810  0.02053  1.0000
  C   C432      1.0  0.34498  0.61026  0.20962  1.0000
  H   H757      1.0  0.52640  0.50473  0.65005  1.0000
  H   H758      1.0  0.56878  0.63056  0.04913  1.0000
  H   H759      1.0  0.54432  0.61854  0.03474  1.0000
  H   H760      1.0  0.54216  0.60033  0.98127  1.0000
  H   H761      1.0  0.56332  0.61915  0.94450  1.0000
  H   H762      1.0  0.56348  0.57784  0.96800  1.0000
  H   H763      1.0  0.58414  0.59759  0.92990  1.0000
  H   H764      1.0  0.53545  0.58873  0.06877  1.0000
  H   H765      1.0  0.53786  0.57507  0.02783  1.0000
  H   H766      1.0  0.55269  0.64173  0.97457  1.0000
  H   H767      1.0  0.58117  0.65308  0.97366  1.0000
  H   H768      1.0  0.50213  0.48862  0.79742  1.0000
  N   N25       1.0  0.46513  0.48709  0.38085  1.0000
  C   C433      1.0  0.50211  0.50717  0.09841  1.0000
  H   H769      1.0  0.60847  0.58981  0.68767  1.0000
  H   H770      1.0  0.53551  0.57780  0.92998  1.0000
  H   H771      1.0  0.55586  0.59798  0.89184  1.0000
  H   H772      1.0  0.55840  0.57457  0.89845  1.0000
  H   H773      1.0  0.55283  0.56971  0.10646  1.0000
  H   H774      1.0  0.52747  0.55489  0.09576  1.0000
  H   H775      1.0  0.55296  0.55568  0.06543  1.0000
  H   H776      1.0  0.56022  0.67299  0.99841  1.0000
  H   H777      1.0  0.54361  0.65356  0.04071  1.0000
  H   H778      1.0  0.57253  0.66572  0.03655  1.0000
  N   N26       1.0  0.58671  0.72047  0.12696  1.0000
  H   H779      1.0  0.34593  0.51576  0.04688  1.0000
  H   H780      1.0  0.37553  0.67583  0.06202  1.0000
  H   H781      1.0  0.57241  0.51052  0.96896  1.0000
  H   H782      1.0  0.54296  0.48623  0.82027  1.0000
  H   H783      1.0  0.43454  0.69975  0.07088  1.0000
  H   H784      1.0  0.61897  0.54746  0.40998  1.0000
  H   H785      1.0  0.60786  0.62688  0.03827  1.0000
  H   H786      1.0  0.36784  0.70202  0.06757  1.0000
  C   C434      1.0  0.62261  0.55510  0.55355  1.0000
  C   C435      1.0  0.59512  0.50961  0.02889  1.0000
  H   H787      1.0  0.56381  0.69305  0.11798  1.0000
  H   H788      1.0  0.60747  0.57428  0.38316  1.0000
  H   H789      1.0  0.54447  0.50192  0.60642  1.0000
  H   H790      1.0  0.34570  0.61770  0.17897  1.0000
  H   H791      1.0  0.59844  0.54470  0.98493  1.0000
  H   H792      1.0  0.59239  0.56314  0.92788  1.0000
  C   C436      1.0  0.58144  0.54028  0.98139  1.0000
  H   H793      1.0  0.64351  0.65390  0.00760  1.0000
  H   H794      1.0  0.55393  0.52382  0.28611  1.0000
  H   H795      1.0  0.61453  0.56577  0.55584  1.0000
  H   H796      1.0  0.63582  0.58985  0.35906  1.0000
  H   H797      1.0  0.33685  0.66082  0.06152  1.0000
  C   C437      1.0  0.44167  0.71589  0.06006  1.0000
  H   H798      1.0  0.37784  0.71002  0.99612  1.0000
  H   H799      1.0  0.60230  0.59830  0.64133  1.0000
  C   C438      1.0  0.34651  0.66803  0.89427  1.0000
  C   C439      1.0  0.56133  0.48836  0.89575  1.0000
  H   H800      1.0  0.36267  0.69412  0.96688  1.0000
  C   C440      1.0  0.51033  0.49830  0.16236  1.0000
  H   H801      1.0  0.62737  0.58495  0.60087  1.0000
  C   C441      1.0  0.60739  0.50813  0.98610  1.0000
  H   H802      1.0  0.56047  0.50726  0.66758  1.0000
  C   C442      1.0  0.55273  0.52051  0.31850  1.0000
  H   H803      1.0  0.60573  0.52364  0.03631  1.0000
  C   C443      1.0  0.62100  0.57795  0.35533  1.0000
  H   H804      1.0  0.61035  0.54857  0.34395  1.0000
  H   H805      1.0  0.48583  0.49307  0.31957  1.0000
  H   H806      1.0  0.55812  0.53088  0.66530  1.0000
  H   H807      1.0  0.44833  0.48477  0.89474  1.0000
  C   C444      1.0  0.34391  0.70408  0.86823  1.0000
  C   C445      1.0  0.40929  0.52671  0.33760  1.0000
  Fe  Fe52      1.0  0.39200  0.55068  0.15686  1.0000
  C   C446      1.0  0.64748  0.52989  0.41583  1.0000
  C   C447      1.0  0.37804  0.49128  0.06980  1.0000
  Fe  Fe53      1.0  0.54954  0.56032  0.27202  1.0000
  C   C448      1.0  0.60822  0.72923  0.13869  1.0000
  H   H808      1.0  0.56029  0.69852  0.20655  1.0000
  H   H809      1.0  0.63790  0.55516  0.60485  1.0000
  N   N27       1.0  0.57200  0.50873  0.03351  1.0000
  H   H810      1.0  0.58656  0.51696  0.60196  1.0000
  H   H811      1.0  0.58414  0.54108  0.12664  1.0000
  C   C449      1.0  0.54450  0.50527  0.76719  1.0000
  H   H812      1.0  0.41825  0.50015  0.13665  1.0000
  H   H813      1.0  0.35962  0.64018  0.05734  1.0000
  H   H814      1.0  0.45984  0.54451  0.24512  1.0000
  H   H815      1.0  0.59662  0.49725  0.29674  1.0000
  C   C450      1.0  0.56352  0.71441  0.20194  1.0000
  H   H816      1.0  0.34132  0.71380  0.95784  1.0000
  S   S99       1.0  0.34300  0.50358  0.21615  1.0000
  H   H817      1.0  0.62921  0.53922  0.46526  1.0000
  H   H818      1.0  0.47421  0.53776  0.11949  1.0000
  H   H819      1.0  0.62621  0.49262  0.00857  1.0000
  C   C451      1.0  0.60979  0.63626  0.00915  1.0000
  H   H820      1.0  0.51138  0.49428  0.84175  1.0000
  H   H821      1.0  0.34273  0.66345  0.00751  1.0000
  H   H822      1.0  0.42250  0.50052  0.18664  1.0000
  C   C452      1.0  0.58230  0.54719  0.93697  1.0000
  C   C453      1.0  0.37108  0.67149  0.03343  1.0000
  H   H823      1.0  0.54053  0.52480  0.60744  1.0000
  C   C454      1.0  0.36174  0.68093  0.85980  1.0000
  H   H824      1.0  0.55037  0.52015  0.06954  1.0000
  S   S100      1.0  0.37993  0.51027  0.29357  1.0000
  H   H825      1.0  0.49473  0.51003  0.42449  1.0000
  H   H826      1.0  0.57324  0.54825  0.00050  1.0000
  C   C455      1.0  0.34779  0.67089  0.03318  1.0000
  H   H827      1.0  0.63669  0.71754  0.20691  1.0000
  C   C456      1.0  0.32181  0.68647  0.02847  1.0000
  C   C457      1.0  0.47372  0.50897  0.38082  1.0000
  H   H828      1.0  0.51764  0.54528  0.40472  1.0000
  H   H829      1.0  0.63310  0.57634  0.64648  1.0000
  C   C458      1.0  0.49559  0.51765  0.39406  1.0000
  C   C459      1.0  0.61476  0.59475  0.65403  1.0000
  C   C460      1.0  0.54423  0.48997  0.92390  1.0000
  C   C461      1.0  0.53947  0.49677  0.38147  1.0000
  Fe  Fe54      1.0  0.36538  0.50809  0.15464  1.0000
  H   H830      1.0  0.58903  0.56389  0.62155  1.0000
  C   C462      1.0  0.40644  0.52308  0.29887  1.0000
  C   C463      1.0  0.64089  0.49299  0.66959  1.0000
  C   C464      1.0  0.57273  0.50310  0.86124  1.0000
  C   C465      1.0  0.63747  0.51631  0.49193  1.0000
  H   H831      1.0  0.44882  0.53185  0.10415  1.0000
  H   H832      1.0  0.61582  0.58342  0.32901  1.0000
  C   C466      1.0  0.45171  0.50737  0.14071  1.0000
  H   H833      1.0  0.61874  0.51052  0.71981  1.0000
  H   H834      1.0  0.31953  0.61821  0.24196  1.0000
  H   H835      1.0  0.46125  0.51283  0.40114  1.0000
  C   C467      1.0  0.50957  0.48353  0.82031  1.0000
  H   H836      1.0  0.49698  0.48627  0.35840  1.0000
  H   H837      1.0  0.42265  0.52661  0.23548  1.0000
  H   H838      1.0  0.55081  0.51511  0.99852  1.0000
  N   N28       1.0  0.34524  0.69044  0.03008  1.0000
  Fe  Fe55      1.0  0.50356  0.55830  0.27144  1.0000
  S   S101      1.0  0.39615  0.52265  0.17441  1.0000
  H   H839      1.0  0.55300  0.71757  0.14597  1.0000
  H   H840      1.0  0.61117  0.52146  0.96346  1.0000
  H   H841      1.0  0.46058  0.50596  0.16442  1.0000
  S   S102      1.0  0.34269  0.72669  0.85160  1.0000
  C   C468      1.0  0.63326  0.55179  0.38324  1.0000
  C   C469      1.0  0.43014  0.53735  0.34270  1.0000
  H   H842      1.0  0.50919  0.51645  0.37166  1.0000
  H   H843      1.0  0.60353  0.61371  0.97194  1.0000
  H   H844      1.0  0.36211  0.73102  0.04946  1.0000
  S   S103      1.0  0.48687  0.54952  0.93366  1.0000
  H   H845      1.0  0.59201  0.69508  0.06293  1.0000
  C   C470      1.0  0.63050  0.52541  0.45727  1.0000
  C   C471      1.0  0.63273  0.72760  0.18620  1.0000
  C   C472      1.0  0.44838  0.54386  0.30938  1.0000
  H   H846      1.0  0.44941  0.53457  0.15635  1.0000
  C   C473      1.0  0.54167  0.50116  0.33940  1.0000
  S   S104      1.0  0.58190  0.48805  0.55077  1.0000
  C   C474      1.0  0.53780  0.50567  0.91677  1.0000
  C   C475      1.0  0.61361  0.71571  0.16930  1.0000
  S   S105      1.0  0.37214  0.54997  0.21851  1.0000
  H   H847      1.0  0.46924  0.48512  0.82578  1.0000
  H   H848      1.0  0.60475  0.64853  0.01654  1.0000
  H   H849      1.0  0.37208  0.70872  0.81977  1.0000
  C   C476      1.0  0.56066  0.53110  0.38117  1.0000
  H   H850      1.0  0.62725  0.51620  0.52197  1.0000
  C   C477      1.0  0.39175  0.56841  0.30597  1.0000
  H   H851      1.0  0.38414  0.55257  0.31987  1.0000
  H   H852      1.0  0.38071  0.57183  0.28874  1.0000
  H   H853      1.0  0.44793  0.50650  0.32462  1.0000
  C   C478      1.0  0.44575  0.53963  0.27084  1.0000
  H   H854      1.0  0.39350  0.57714  0.33094  1.0000
  C   C479      1.0  0.50166  0.53941  0.39643  1.0000
  S   S106      1.0  0.36345  0.53636  0.13101  1.0000
  Fe  Fe56      1.0  0.37380  0.52048  0.23425  1.0000
  H   H855      1.0  0.44015  0.72199  0.12107  1.0000
  S   S107      1.0  0.57120  0.56004  0.31481  1.0000
  H   H856      1.0  0.45833  0.50268  0.11277  1.0000
  H   H857      1.0  0.56164  0.50705  0.75400  1.0000
  C   C480      1.0  0.59930  0.55988  0.64013  1.0000
  H   H858      1.0  0.59962  0.70730  0.19553  1.0000
  C   C481      1.0  0.56850  0.51777  0.99489  1.0000
  S   S108      1.0  0.55746  0.55760  0.20604  1.0000
  H   H859      1.0  0.58962  0.55700  0.67237  1.0000
  Fe  Fe57      1.0  0.48943  0.50648  0.00545  1.0000
  C   C482      1.0  0.54197  0.51243  0.62630  1.0000
  C   C483      1.0  0.35056  0.69917  0.06706  1.0000
  H   H860      1.0  0.62296  0.50323  0.38633  1.0000
  H   H861      1.0  0.57246  0.72517  0.07671  1.0000
  H   H862      1.0  0.53606  0.50506  0.74205  1.0000
  C   C484      1.0  0.53300  0.48605  0.79785  1.0000
  S   S109      1.0  0.51657  0.50359  0.20880  1.0000
  H   H863      1.0  0.58097  0.53794  0.58868  1.0000
  H   H864      1.0  0.52473  0.50667  0.93909  1.0000
  H   H865      1.0  0.58837  0.52541  0.69178  1.0000
  H   H866      1.0  0.61407  0.51514  0.45605  1.0000
  H   H867      1.0  0.59810  0.66996  0.13402  1.0000
  C   C485      1.0  0.62579  0.55975  0.34730  1.0000
  H   H868      1.0  0.42343  0.48744  0.08118  1.0000
  H   H869      1.0  0.59936  0.48877  0.62111  1.0000
  S   S110      1.0  0.34856  0.64561  0.90981  1.0000
  H   H870      1.0  0.60602  0.51685  0.39058  1.0000
  C   C486      1.0  0.58329  0.52919  0.61470  1.0000
  C   C487      1.0  0.56591  0.51870  0.85363  1.0000
  C   C488      1.0  0.62249  0.53892  0.68745  1.0000
  H   H871      1.0  0.56745  0.54277  0.39755  1.0000
  S   S111      1.0  0.51681  0.53569  0.28674  1.0000
  H   H872      1.0  0.49969  0.51776  0.07760  1.0000
  H   H873      1.0  0.60429  0.51523  0.65984  1.0000
  C   C489      1.0  0.56889  0.52772  0.13770  1.0000
  H   H874      1.0  0.62187  0.55257  0.69735  1.0000
  C   C490      1.0  0.54797  0.51965  0.88096  1.0000
  H   H875      1.0  0.54627  0.73257  0.22601  1.0000
  C   C491      1.0  0.58009  0.69888  0.12530  1.0000
  S   S112      1.0  0.51739  0.53550  0.98551  1.0000
  Fe  Fe58      1.0  0.50984  0.53351  0.92405  1.0000
  H   H876      1.0  0.57427  0.52978  0.82638  1.0000
  H   H877      1.0  0.59870  0.63431  0.95297  1.0000
  C   C492      1.0  0.37214  0.65130  0.03161  1.0000
  H   H878      1.0  0.54806  0.50826  0.43468  1.0000
  H   H879      1.0  0.63694  0.49966  0.60880  1.0000
  Fe  Fe59      1.0  0.52351  0.53441  0.22022  1.0000
  C   C493      1.0  0.36115  0.70325  0.99094  1.0000
  S   S113      1.0  0.53791  0.53798  0.87064  1.0000
  H   H880      1.0  0.34896  0.59706  0.20616  1.0000
  H   H881      1.0  0.64031  0.63355  0.98069  1.0000
  C   C494      1.0  0.60352  0.52936  0.66721  1.0000
  H   H882      1.0  0.54472  0.51794  0.78258  1.0000
  S   S114      1.0  0.42765  0.50750  0.94680  1.0000
  C   C495      1.0  0.59603  0.62425  0.98178  1.0000
  S   S115      1.0  0.33059  0.60912  0.01064  1.0000
  C   C496      1.0  0.40803  0.50189  0.99326  1.0000
  H   H883      1.0  0.35753  0.62053  0.22253  1.0000
  H   H884      1.0  0.57739  0.72226  0.21505  1.0000
  H   H885      1.0  0.61326  0.70318  0.08936  1.0000
  H   H886      1.0  0.42831  0.72067  0.05547  1.0000
  Fe  Fe60      1.0  0.46093  0.51940  0.95918  1.0000
  H   H887      1.0  0.38854  0.65186  0.03407  1.0000
  H   H888      1.0  0.50866  0.52610  0.14322  1.0000
  H   H889      1.0  0.57651  0.66199  0.10764  1.0000
  H   H890      1.0  0.38371  0.68185  0.00691  1.0000
  C   C497      1.0  0.62053  0.52535  0.72618  1.0000
  C   C498      1.0  0.62296  0.54578  0.59638  1.0000
  H   H891      1.0  0.63695  0.65522  0.95855  1.0000
  C   C499      1.0  0.50734  0.51199  0.13529  1.0000
  C   C500      1.0  0.61970  0.51466  0.32852  1.0000
  C   C501      1.0  0.34796  0.71894  0.07068  1.0000
  C   C502      1.0  0.32227  0.60446  0.23810  1.0000
  H   H892      1.0  0.57867  0.53555  0.05854  1.0000
  H   H893      1.0  0.62092  0.52833  0.31016  1.0000
  S   S116      1.0  0.48319  0.50351  0.94344  1.0000
  H   H894      1.0  0.33312  0.71242  0.13620  1.0000
  C   C503      1.0  0.59590  0.69345  0.09317  1.0000
  C   C504      1.0  0.32879  0.69128  0.90281  1.0000
  S   S117      1.0  0.35985  0.48377  0.11824  1.0000
  H   H895      1.0  0.58961  0.53924  0.91616  1.0000
  H   H896      1.0  0.61841  0.70480  0.15380  1.0000
  H   H897      1.0  0.46520  0.72026  0.09612  1.0000
  H   H898      1.0  0.60454  0.66859  0.08040  1.0000
  C   C505      1.0  0.56852  0.72336  0.15621  1.0000
  C   C506      1.0  0.56094  0.52002  0.64677  1.0000
  H   H899      1.0  0.31938  0.70021  0.02008  1.0000
  C   C507      1.0  0.63412  0.64525  0.98751  1.0000
  H   H900      1.0  0.62560  0.53192  0.59255  1.0000
  H   H901      1.0  0.57761  0.69022  0.15564  1.0000
  H   H902      1.0  0.35255  0.72963  0.99118  1.0000
  C   C508      1.0  0.34775  0.72349  0.11383  1.0000
  H   H903      1.0  0.52882  0.70970  0.21452  1.0000
  H   H904      1.0  0.61317  0.54338  0.53841  1.0000
  C   C509      1.0  0.35593  0.72000  0.97007  1.0000
  H   H905      1.0  0.34059  0.68836  0.09555  1.0000
  H   H906      1.0  0.60608  0.52396  0.75044  1.0000
  C   C510      1.0  0.59361  0.67221  0.10459  1.0000
  H   H907      1.0  0.63859  0.54205  0.66631  1.0000
  C   C511      1.0  0.45264  0.72617  0.09176  1.0000
  H   H908      1.0  0.36280  0.72356  0.12267  1.0000
  H   H909      1.0  0.45387  0.71910  0.03042  1.0000
  H   H910      1.0  0.32585  0.64662  0.83679  1.0000
  C   C512      1.0  0.54333  0.71678  0.22674  1.0000
  H   H911      1.0  0.63982  0.51917  0.99841  1.0000
  H   H912      1.0  0.55456  0.53191  0.13863  1.0000
  C   C513      1.0  0.56707  0.51995  0.06669  1.0000
  H   H913      1.0  0.60022  0.72778  0.06113  1.0000
  C   C514      1.0  0.58857  0.73087  0.08491  1.0000
  H   H914      1.0  0.37899  0.72356  0.91203  1.0000
  C   C515      1.0  0.42696  0.49539  0.15767  1.0000
  Fe  Fe61      1.0  0.32152  0.62459  0.96151  1.0000
  H   H915      1.0  0.63517  0.50090  0.48945  1.0000
  C   C516      1.0  0.44284  0.49038  0.32793  1.0000
  H   H916      1.0  0.56813  0.52146  0.16936  1.0000
  H   H917      1.0  0.63769  0.50568  0.95667  1.0000
  H   H918      1.0  0.63841  0.56397  0.31806  1.0000
  C   C517      1.0  0.56848  0.51247  0.11007  1.0000
  C   C518      1.0  0.62911  0.50631  0.98773  1.0000
  N   N29       1.0  0.64051  0.53489  0.37776  1.0000
  S   S118      1.0  0.64784  0.48495  0.74540  1.0000
  H   H919      1.0  0.63279  0.51030  0.31234  1.0000
  H   H920      1.0  0.31792  0.66329  0.94154  1.0000
  H   H921      1.0  0.31765  0.67797  0.00375  1.0000
  H   H922      1.0  0.58338  0.50923  0.10914  1.0000
  C   C519      1.0  0.64655  0.50449  0.63069  1.0000
  C   C520      1.0  0.49942  0.48850  0.08925  1.0000
  H   H923      1.0  0.55397  0.49895  0.12484  1.0000
  H   H924      1.0  0.64661  0.56426  0.39006  1.0000
  H   H925      1.0  0.59525  0.49783  0.05173  1.0000
  H   H926      1.0  0.59779  0.49537  0.97395  1.0000
  H   H927      1.0  0.64463  0.57215  0.49568  1.0000
  C   C521      1.0  0.64562  0.56560  0.52574  1.0000
  C   C522      1.0  0.55547  0.48785  0.04636  1.0000
  C   C523      1.0  0.38899  0.48488  0.00155  1.0000
  H   H928      1.0  0.53871  0.48770  0.04877  1.0000
  H   H929      1.0  0.40808  0.48535  0.34331  1.0000
  H   H930      1.0  0.45935  0.48552  0.44680  1.0000
  H   H931      1.0  0.45397  0.48714  0.30354  1.0000
  H   H932      1.0  0.38868  0.48426  0.22077  1.0000
  H   H933      1.0  0.43183  0.48555  0.39406  1.0000
  H   H934      1.0  0.42024  0.48899  0.28948  1.0000
  C   C524      1.0  0.37495  0.73273  0.93399  1.0000
  H   H935      1.0  0.59612  0.48431  0.34493  1.0000
  H   H936      1.0  0.56995  0.80497  0.07378  1.0000
  H   H937      1.0  0.54691  0.94061  0.33597  1.0000
  S   S119      1.0  0.53472  0.96804  0.16237  1.0000
  H   H938      1.0  0.36947  0.77241  0.05304  1.0000
  S   S120      1.0  0.48499  0.92824  0.25201  1.0000
  H   H939      1.0  0.51131  0.94002  0.04944  1.0000
  H   H940      1.0  0.47096  0.85068  0.87561  1.0000
  S   S121      1.0  0.51457  0.93883  0.86390  1.0000
  C   C525      1.0  0.49121  0.77958  0.08480  1.0000
  Fe  Fe62      1.0  0.42729  0.85807  0.06122  1.0000
  S   S122      1.0  0.40006  0.84603  0.11801  1.0000
  S   S123      1.0  0.45202  0.84537  0.03828  1.0000
  Fe  Fe63      1.0  0.41291  0.89005  0.03289  1.0000
  S   S124      1.0  0.38375  0.88078  0.08628  1.0000
  S   S125      1.0  0.42053  0.91425  0.98046  1.0000
  Fe  Fe64      1.0  0.40713  0.87764  0.12285  1.0000
  S   S126      1.0  0.40321  0.88647  0.18457  1.0000
  Fe  Fe65      1.0  0.37896  0.85008  0.07720  1.0000
  S   S127      1.0  0.34690  0.82515  0.08330  1.0000
  S   S128      1.0  0.43683  0.88943  0.07012  1.0000
  S   S129      1.0  0.40572  0.85961  0.01995  1.0000
  Fe  Fe66      1.0  0.55840  0.85596  0.19044  1.0000
  C   C526      1.0  0.60137  0.93522  0.20080  1.0000
  C   C527      1.0  0.46375  0.74876  0.07700  1.0000
  Fe  Fe67      1.0  0.56114  0.82041  0.15584  1.0000
  S   S130      1.0  0.53926  0.82354  0.21160  1.0000
  S   S131      1.0  0.57147  0.79476  0.15709  1.0000
  Fe  Fe68      1.0  0.55850  0.85411  0.10170  1.0000
  S   S132      1.0  0.53591  0.85980  0.15271  1.0000
  H   H941      1.0  0.51349  0.86344  0.88751  1.0000
  H   H942      1.0  0.49363  0.86782  0.83560  1.0000
  N   N30       1.0  0.51929  0.88029  0.93625  1.0000
  Fe  Fe69      1.0  0.51904  0.82714  0.16869  1.0000
  S   S133      1.0  0.48254  0.81221  0.18315  1.0000
  H   H943      1.0  0.64106  0.96893  0.91012  1.0000
  S   S134      1.0  0.53936  0.82166  0.11450  1.0000
  C   C528      1.0  0.46009  0.83617  0.07907  1.0000
  C   C529      1.0  0.48229  0.84017  0.07551  1.0000
  C   C530      1.0  0.48913  0.83304  0.10782  1.0000
  C   C531      1.0  0.47376  0.82139  0.14335  1.0000
  C   C532      1.0  0.45147  0.81718  0.14691  1.0000
  C   C533      1.0  0.44464  0.82477  0.11488  1.0000
  H   H944      1.0  0.49428  0.84911  0.04815  1.0000
  H   H945      1.0  0.50635  0.83653  0.10493  1.0000
  H   H946      1.0  0.43955  0.80827  0.17451  1.0000
  H   H947      1.0  0.42743  0.82156  0.11760  1.0000
  C   C534      1.0  0.34292  0.81995  0.03542  1.0000
  C   C535      1.0  0.34915  0.83498  0.00181  1.0000
  C   C536      1.0  0.34567  0.83034  0.96376  1.0000
  H   H948      1.0  0.38477  0.79538  0.83348  1.0000
  H   H949      1.0  0.52755  0.73352  0.12017  1.0000
  H   H950      1.0  0.37028  0.74360  0.91735  1.0000
  H   H951      1.0  0.35642  0.85017  0.00524  1.0000
  H   H952      1.0  0.57779  0.96585  0.29696  1.0000
  C   C537      1.0  0.54926  0.91867  0.29997  1.0000
  S   S135      1.0  0.54062  0.96096  0.25682  1.0000
  H   H953      1.0  0.48148  0.92634  0.16785  1.0000
  H   H954      1.0  0.47196  0.81646  0.91699  1.0000
  H   H955      1.0  0.45463  0.79428  0.95359  1.0000
  H   H956      1.0  0.52129  0.84035  0.93460  1.0000
  C   C538      1.0  0.37937  0.78819  0.04047  1.0000
  H   H957      1.0  0.55290  0.93179  0.17995  1.0000
  C   C539      1.0  0.61275  0.95955  0.06467  1.0000
  H   H958      1.0  0.56873  0.85940  0.94286  1.0000
  H   H959      1.0  0.43399  0.81256  0.98875  1.0000
  C   C540      1.0  0.48827  0.93091  0.89623  1.0000
  C   C541      1.0  0.48510  0.92622  0.93856  1.0000
  C   C542      1.0  0.46416  0.92046  0.96449  1.0000
  C   C543      1.0  0.44647  0.91999  0.94819  1.0000
  C   C544      1.0  0.44967  0.92477  0.90585  1.0000
  C   C545      1.0  0.47047  0.92984  0.87981  1.0000
  H   H960      1.0  0.49880  0.92700  0.95135  1.0000
  H   H961      1.0  0.46188  0.91714  0.99714  1.0000
  H   H962      1.0  0.43602  0.92448  0.89320  1.0000
  H   H963      1.0  0.47288  0.93355  0.84710  1.0000
  H   H964      1.0  0.40451  0.74883  0.20292  1.0000
  H   H965      1.0  0.45224  0.75364  0.06372  1.0000
  H   H966      1.0  0.40405  0.88145  0.90480  1.0000
  H   H967      1.0  0.46670  0.73686  0.15495  1.0000
  C   C546      1.0  0.49017  0.87750  0.89446  1.0000
  C   C547      1.0  0.53645  0.85352  0.93145  1.0000
  C   C548      1.0  0.51702  0.89678  0.00041  1.0000
  C   C549      1.0  0.56053  0.90711  0.20102  1.0000
  H   H968      1.0  0.54460  0.89624  0.20214  1.0000
  C   C550      1.0  0.46257  0.92117  0.22980  1.0000
  C   C551      1.0  0.44163  0.91290  0.25600  1.0000
  C   C552      1.0  0.42354  0.90294  0.24118  1.0000
  C   C553      1.0  0.42626  0.90084  0.20014  1.0000
  C   C554      1.0  0.44709  0.90965  0.17331  1.0000
  C   C555      1.0  0.46526  0.92016  0.18806  1.0000
  H   H969      1.0  0.43945  0.91376  0.28818  1.0000
  H   H970      1.0  0.40745  0.89627  0.26192  1.0000
  H   H971      1.0  0.44922  0.90799  0.14160  1.0000
  C   C556      1.0  0.50509  0.88500  0.97069  1.0000
  S   S136      1.0  0.56981  0.87646  0.23377  1.0000
  H   H972      1.0  0.47633  0.87719  0.91893  1.0000
  C   C557      1.0  0.50065  0.89886  0.03591  1.0000
  H   H973      1.0  0.49271  0.85393  0.93329  1.0000
  H   H974      1.0  0.52075  0.86012  0.98575  1.0000
  H   H975      1.0  0.49203  0.87120  0.98912  1.0000
  H   H976      1.0  0.52660  0.88944  0.01366  1.0000
  H   H977      1.0  0.55514  0.83494  0.93351  1.0000
  H   H978      1.0  0.46936  0.87286  0.85191  1.0000
  H   H979      1.0  0.48952  0.88425  0.05423  1.0000
  H   H980      1.0  0.50977  0.90768  0.05596  1.0000
  H   H981      1.0  0.49078  0.90648  0.02459  1.0000
  H   H982      1.0  0.57627  0.97469  0.35840  1.0000
  C   C558      1.0  0.53082  0.86876  0.95507  1.0000
  H   H983      1.0  0.58127  0.90048  0.96673  1.0000
  C   C559      1.0  0.50425  0.86794  0.91284  1.0000
  S   S137      1.0  0.52192  0.74455  0.04017  1.0000
  H   H984      1.0  0.47206  0.81528  0.97042  1.0000
  H   H985      1.0  0.45127  0.83463  0.95254  1.0000
  C   C560      1.0  0.55510  0.92991  0.33523  1.0000
  C   C561      1.0  0.56077  0.91899  0.06383  1.0000
  H   H986      1.0  0.50396  0.75782  0.22021  1.0000
  H   H987      1.0  0.36986  0.79690  0.05230  1.0000
  C   C562      1.0  0.56949  0.89380  0.03235  1.0000
  H   H988      1.0  0.54593  0.75368  0.16687  1.0000
  C   C563      1.0  0.58562  0.94127  0.18897  1.0000
  C   C564      1.0  0.48695  0.79195  0.05016  1.0000
  H   H989      1.0  0.52760  0.90975  0.90413  1.0000
  H   H990      1.0  0.60862  0.91070  0.22362  1.0000
  S   S138      1.0  0.56962  0.87009  0.03636  1.0000
  H   H991      1.0  0.54371  0.85924  0.89846  1.0000
  C   C565      1.0  0.62562  0.97135  0.99086  1.0000
  H   H992      1.0  0.49221  0.74551  0.11929  1.0000
  H   H993      1.0  0.52006  0.80271  0.01111  1.0000
  H   H994      1.0  0.55958  0.89248  0.09713  1.0000
  C   C566      1.0  0.53571  0.89942  0.91014  1.0000
  C   C567      1.0  0.62020  0.94208  0.06030  1.0000
  H   H995      1.0  0.52820  0.91180  0.98436  1.0000
  C   C568      1.0  0.61135  0.92692  0.09971  1.0000
  C   C569      1.0  0.48003  0.75054  0.13702  1.0000
  H   H996      1.0  0.58030  0.75616  0.03002  1.0000
  H   H997      1.0  0.57260  0.91675  0.81376  1.0000
  H   H998      1.0  0.55959  0.88994  0.87357  1.0000
  S   S139      1.0  0.56271  0.95287  0.02234  1.0000
  H   H999      1.0  0.54652  0.84151  0.98205  1.0000
  H   H1000     1.0  0.55555  0.92431  0.09112  1.0000
  H   H1001     1.0  0.56636  0.95596  0.76081  1.0000
  H   H1002     1.0  0.59512  0.95378  0.06497  1.0000
  C   C570      1.0  0.56286  0.90084  0.06730  1.0000
  H   H1003     1.0  0.47517  0.93734  0.09287  1.0000
  H   H1004     1.0  0.48378  0.95098  0.02291  1.0000
  H   H1005     1.0  0.54791  0.90716  0.92702  1.0000
  H   H1006     1.0  0.54611  0.87889  0.96126  1.0000
  N   N31       1.0  0.46982  0.97121  0.04666  1.0000
  H   H1007     1.0  0.57390  0.95861  0.44700  1.0000
  H   H1008     1.0  0.38392  0.77957  0.92150  1.0000
  H   H1009     1.0  0.39449  0.84719  0.89333  1.0000
  C   C571      1.0  0.55922  0.78055  0.12334  1.0000
  H   H1010     1.0  0.53808  0.89068  0.84929  1.0000
  C   C572      1.0  0.53675  0.74906  0.10994  1.0000
  H   H1011     1.0  0.50518  0.77560  0.07113  1.0000
  H   H1012     1.0  0.55465  0.92750  0.83910  1.0000
  H   H1013     1.0  0.49644  0.89371  0.95869  1.0000
  C   C573      1.0  0.56052  0.78940  0.08408  1.0000
  C   C574      1.0  0.48042  0.86645  0.86248  1.0000
  H   H1014     1.0  0.42750  0.87826  0.87521  1.0000
  H   H1015     1.0  0.39137  0.84893  0.94649  1.0000
  C   C575      1.0  0.55266  0.84694  0.94855  1.0000
  C   C576      1.0  0.58851  0.95736  0.29655  1.0000
  C   C577      1.0  0.56518  0.92720  0.18888  1.0000
  H   H1016     1.0  0.52110  0.90143  0.27941  1.0000
  C   C578      1.0  0.49107  0.76231  0.16784  1.0000
  H   H1017     1.0  0.42503  0.87983  0.92886  1.0000
  N   N32       1.0  0.46790  0.85937  0.23778  1.0000
  C   C579      1.0  0.46804  0.84043  0.25836  1.0000
  C   C580      1.0  0.44744  0.85488  0.22216  1.0000
  C   C581      1.0  0.48720  0.86763  0.20085  1.0000
  C   C582      1.0  0.46967  0.87447  0.26547  1.0000
  C   C583      1.0  0.45952  0.86671  0.31199  1.0000
  C   C584      1.0  0.49013  0.84164  0.26756  1.0000
  C   C585      1.0  0.48949  0.88669  0.17385  1.0000
  C   C586      1.0  0.42528  0.84508  0.25438  1.0000
  C   C587      1.0  0.40635  0.83780  0.23369  1.0000
  C   C588      1.0  0.45912  0.88338  0.33512  1.0000
  C   C589      1.0  0.48732  0.82347  0.29696  1.0000
  C   C590      1.0  0.51063  0.89460  0.14007  1.0000
  H   H1018     1.0  0.46345  0.82894  0.23920  1.0000
  H   H1019     1.0  0.45525  0.83423  0.28737  1.0000
  H   H1020     1.0  0.44681  0.86853  0.20677  1.0000
  H   H1021     1.0  0.44766  0.84543  0.19839  1.0000
  H   H1022     1.0  0.48682  0.85642  0.18085  1.0000
  H   H1023     1.0  0.50283  0.87141  0.21054  1.0000
  H   H1024     1.0  0.48711  0.88396  0.26256  1.0000
  H   H1025     1.0  0.46220  0.88472  0.25543  1.0000
  H   H1026     1.0  0.46939  0.85963  0.32504  1.0000
  H   H1027     1.0  0.44254  0.85579  0.31835  1.0000
  H   H1028     1.0  0.50190  0.84240  0.23886  1.0000
  H   H1029     1.0  0.49753  0.85488  0.28083  1.0000
  H   H1030     1.0  0.49000  0.89823  0.19266  1.0000
  H   H1031     1.0  0.47586  0.88413  0.15851  1.0000
  H   H1032     1.0  0.42446  0.83221  0.27505  1.0000
  H   H1033     1.0  0.42247  0.85601  0.27274  1.0000
  H   H1034     1.0  0.40772  0.82603  0.21656  1.0000
  H   H1035     1.0  0.39053  0.83182  0.25712  1.0000
  H   H1036     1.0  0.40632  0.85001  0.21213  1.0000
  H   H1037     1.0  0.47572  0.89510  0.32893  1.0000
  H   H1038     1.0  0.44784  0.88983  0.32578  1.0000
  H   H1039     1.0  0.45325  0.87766  0.36853  1.0000
  H   H1040     1.0  0.48044  0.81002  0.28387  1.0000
  H   H1041     1.0  0.50353  0.82459  0.30176  1.0000
  H   H1042     1.0  0.47635  0.82224  0.32701  1.0000
  H   H1043     1.0  0.52510  0.89747  0.15306  1.0000
  H   H1044     1.0  0.51046  0.88406  0.11869  1.0000
  H   H1045     1.0  0.51231  0.90873  0.12281  1.0000
  C   C591      1.0  0.33352  0.80038  0.03087  1.0000
  H   H1046     1.0  0.40738  0.78965  0.87840  1.0000
  C   C592      1.0  0.37698  0.78529  0.86340  1.0000
  H   H1047     1.0  0.35026  0.84195  0.93781  1.0000
  C   C593      1.0  0.39169  0.79067  0.89318  1.0000
  C   C594      1.0  0.43407  0.75158  0.15906  1.0000
  H   H1048     1.0  0.56174  0.97681  0.77761  1.0000
  Fe  Fe70      1.0  0.51317  0.95692  0.22613  1.0000
  H   H1049     1.0  0.48381  0.96439  0.96323  1.0000
  C   C595      1.0  0.50813  0.80864  0.02623  1.0000
  C   C596      1.0  0.57811  0.97056  0.42069  1.0000
  H   H1050     1.0  0.55590  0.92893  0.27044  1.0000
  H   H1051     1.0  0.61182  0.90087  0.33609  1.0000
  C   C597      1.0  0.63299  0.97962  0.91358  1.0000
  H   H1052     1.0  0.57494  0.93479  0.39756  1.0000
  C   C598      1.0  0.57144  0.96217  0.38357  1.0000
  H   H1053     1.0  0.47188  0.97921  0.10642  1.0000
  H   H1054     1.0  0.61404  0.91336  0.09385  1.0000
  C   C599      1.0  0.44700  0.95547  0.06082  1.0000
  H   H1055     1.0  0.43514  0.96014  0.04821  1.0000
  H   H1056     1.0  0.63826  0.94695  0.05241  1.0000
  H   H1057     1.0  0.58545  0.90993  0.38524  1.0000
  H   H1058     1.0  0.60243  0.77833  0.03186  1.0000
  C   C600      1.0  0.59385  0.89370  0.33994  1.0000
  H   H1059     1.0  0.56464  0.89907  0.35885  1.0000
  S   S140      1.0  0.59168  0.96654  0.17632  1.0000
  H   H1060     1.0  0.51677  0.91973  0.30747  1.0000
  H   H1061     1.0  0.51558  0.81842  0.04680  1.0000
  H   H1062     1.0  0.39460  0.79266  0.05155  1.0000
  C   C601      1.0  0.57449  0.97169  0.76274  1.0000
  H   H1063     1.0  0.63542  0.96204  0.98645  1.0000
  H   H1064     1.0  0.44641  0.94195  0.04812  1.0000
  H   H1065     1.0  0.41805  0.91864  0.10721  1.0000
  C   C602      1.0  0.33620  0.81069  0.95938  1.0000
  H   H1066     1.0  0.62006  0.93287  0.12312  1.0000
  H   H1067     1.0  0.59197  0.92350  0.29277  1.0000
  H   H1068     1.0  0.51714  0.89751  0.33424  1.0000
  H   H1069     1.0  0.52457  0.96227  0.06767  1.0000
  H   H1070     1.0  0.41432  0.76951  0.16167  1.0000
  C   C603      1.0  0.41942  0.76065  0.18291  1.0000
  C   C604      1.0  0.45456  0.76773  0.12987  1.0000
  H   H1071     1.0  0.37410  0.77006  0.85816  1.0000
  C   C605      1.0  0.43704  0.94932  0.10768  1.0000
  C   C606      1.0  0.47009  0.96941  0.97019  1.0000
  H   H1072     1.0  0.49717  0.78978  0.10594  1.0000
  H   H1073     1.0  0.47764  0.75073  0.05063  1.0000
  N   N33       1.0  0.47194  0.76131  0.10785  1.0000
  C   C607      1.0  0.41537  0.93159  0.11740  1.0000
  C   C608      1.0  0.51017  0.94814  0.07515  1.0000
  H   H1074     1.0  0.59851  0.97772  0.70645  1.0000
  H   H1075     1.0  0.60878  0.96197  0.98940  1.0000
  H   H1076     1.0  0.42423  0.74174  0.14122  1.0000
  H   H1077     1.0  0.42824  0.77021  0.20252  1.0000
  H   H1078     1.0  0.60877  0.93426  0.32489  1.0000
  H   H1079     1.0  0.59050  0.88987  0.31023  1.0000
  H   H1080     1.0  0.37915  0.81251  0.91217  1.0000
  H   H1081     1.0  0.50454  0.81754  0.00246  1.0000
  H   H1082     1.0  0.55595  0.90702  0.29774  1.0000
  H   H1083     1.0  0.44810  0.94550  0.12398  1.0000
  H   H1084     1.0  0.58633  0.75879  0.09990  1.0000
  C   C609      1.0  0.39553  0.81172  0.90193  1.0000
  H   H1085     1.0  0.48116  0.76990  0.18343  1.0000
  S   S141      1.0  0.56908  0.95666  0.90045  1.0000
  H   H1086     1.0  0.46170  0.77929  0.14743  1.0000
  H   H1087     1.0  0.58627  0.97287  0.78218  1.0000
  C   C610      1.0  0.59655  0.91526  0.21364  1.0000
  H   H1088     1.0  0.57781  0.93284  0.96054  1.0000
  C   C611      1.0  0.54898  0.89797  0.86859  1.0000
  H   H1089     1.0  0.40350  0.93475  0.10213  1.0000
  C   C612      1.0  0.58243  0.90721  0.35485  1.0000
  H   H1090     1.0  0.40309  0.82139  0.87129  1.0000
  Fe  Fe71      1.0  0.56216  0.97422  0.19413  1.0000
  H   H1091     1.0  0.59986  0.95405  0.37129  1.0000
  H   H1092     1.0  0.47539  0.79868  0.06307  1.0000
  N   N34       1.0  0.40942  0.81921  0.93165  1.0000
  C   C613      1.0  0.41949  0.84141  0.92082  1.0000
  C   C614      1.0  0.42808  0.81216  0.92693  1.0000
  H   H1093     1.0  0.44835  0.77490  0.10754  1.0000
  C   C615      1.0  0.39570  0.81366  0.97510  1.0000
  C   C616      1.0  0.38496  0.79147  0.99369  1.0000
  C   C617      1.0  0.40349  0.85193  0.91712  1.0000
  S   S142      1.0  0.58239  0.85251  0.13835  1.0000
  C   C618      1.0  0.44332  0.81844  0.95641  1.0000
  C   C619      1.0  0.46159  0.81059  0.94868  1.0000
  H   H1094     1.0  0.48933  0.96040  0.10778  1.0000
  C   C620      1.0  0.41586  0.87419  0.90573  1.0000
  H   H1095     1.0  0.49988  0.89297  0.87937  1.0000
  H   H1096     1.0  0.43195  0.84612  0.89106  1.0000
  H   H1097     1.0  0.42824  0.84785  0.94396  1.0000
  H   H1098     1.0  0.42209  0.79594  0.93143  1.0000
  H   H1099     1.0  0.43834  0.81724  0.89490  1.0000
  H   H1100     1.0  0.62352  0.96478  0.29585  1.0000
  H   H1101     1.0  0.36951  0.78476  0.98397  1.0000
  H   H1102     1.0  0.40542  0.82163  0.99567  1.0000
  H   H1103     1.0  0.38197  0.81878  0.97772  1.0000
  H   H1104     1.0  0.39556  0.78339  0.98435  1.0000
  C   C621      1.0  0.56413  0.91826  0.84411  1.0000
  H   H1105     1.0  0.54997  0.78519  0.02828  1.0000
  C   C622      1.0  0.56557  0.93030  0.02533  1.0000
  C   C623      1.0  0.57615  0.90116  0.21379  1.0000
  H   H1106     1.0  0.43840  0.74287  0.18186  1.0000
  C   C624      1.0  0.54938  0.77820  0.05823  1.0000
  H   H1107     1.0  0.48012  0.78297  0.02795  1.0000
  C   C625      1.0  0.59701  0.76210  0.03536  1.0000
  C   C626      1.0  0.57536  0.90557  0.99379  1.0000
  C   C627      1.0  0.54737  0.76039  0.13620  1.0000
  C   C628      1.0  0.57330  0.92382  0.99024  1.0000
  Fe  Fe72      1.0  0.56125  0.96545  0.96125  1.0000
  H   H1108     1.0  0.47810  0.73876  0.22090  1.0000
  H   H1109     1.0  0.55332  0.95477  0.39148  1.0000
  C   C629      1.0  0.53731  0.75805  0.07132  1.0000
  C   C630      1.0  0.58216  0.94741  0.37166  1.0000
  C   C631      1.0  0.49421  0.74881  0.20100  1.0000
  H   H1110     1.0  0.50751  0.77344  0.15178  1.0000
  H   H1111     1.0  0.61719  0.94602  0.20084  1.0000
  H   H1112     1.0  0.54688  0.91946  0.36473  1.0000
  H   H1113     1.0  0.57677  0.92564  0.86032  1.0000
  H   H1114     1.0  0.61295  0.96295  0.09574  1.0000
  C   C632      1.0  0.52452  0.90875  0.30588  1.0000
  H   H1115     1.0  0.61209  0.98104  0.31815  1.0000
  S   S143      1.0  0.52882  0.96547  0.95587  1.0000
  H   H1116     1.0  0.59598  0.97953  0.41305  1.0000
  H   H1117     1.0  0.58863  0.95182  0.26718  1.0000
  H   H1118     1.0  0.61542  0.97222  0.91398  1.0000
  C   C633      1.0  0.59135  0.92688  0.32422  1.0000
  C   C634      1.0  0.61207  0.97222  0.29337  1.0000
  H   H1119     1.0  0.40818  0.92791  0.15096  1.0000
  N   N35       1.0  0.57924  0.94037  0.33202  1.0000
  C   C635      1.0  0.33014  0.79573  0.99302  1.0000
  H   H1120     1.0  0.43360  0.96143  0.12062  1.0000
  H   H1121     1.0  0.62428  0.97848  0.22709  1.0000
  H   H1122     1.0  0.59352  0.92296  0.11175  1.0000
  H   H1123     1.0  0.36089  0.78607  0.87586  1.0000
  H   H1124     1.0  0.38965  0.74072  0.94485  1.0000
  C   C636      1.0  0.48897  0.95182  0.08268  1.0000
  H   H1125     1.0  0.51083  0.93950  0.10307  1.0000
  H   H1126     1.0  0.50303  0.73993  0.18719  1.0000
  Fe  Fe73      1.0  0.53820  0.95975  0.89265  1.0000
  H   H1127     1.0  0.32934  0.78879  0.05649  1.0000
  H   H1128     1.0  0.58757  0.87987  0.36257  1.0000
  S   S144      1.0  0.33057  0.75246  0.94169  1.0000
  S   S145      1.0  0.33202  0.80477  0.91201  1.0000
  H   H1129     1.0  0.61372  0.76019  0.08254  1.0000
  H   H1130     1.0  0.60915  0.74283  0.15129  1.0000
  C   C637      1.0  0.48690  0.96229  0.04285  1.0000
  H   H1131     1.0  0.56929  0.98022  0.42984  1.0000
  H   H1132     1.0  0.61389  0.93448  0.03583  1.0000
  H   H1133     1.0  0.45443  0.95642  0.97910  1.0000
  C   C638      1.0  0.59682  0.75365  0.07846  1.0000
  H   H1134     1.0  0.60841  0.75855  0.01196  1.0000
  H   H1135     1.0  0.50322  0.97387  0.02758  1.0000
  H   H1136     1.0  0.46931  0.97193  0.90631  1.0000
  H   H1137     1.0  0.57382  0.98143  0.70180  1.0000
  H   H1138     1.0  0.57229  0.73918  0.15619  1.0000
  H   H1139     1.0  0.34700  0.73819  0.11490  1.0000
  H   H1140     1.0  0.32278  0.78055  0.99004  1.0000
  H   H1141     1.0  0.58515  0.97833  0.08818  1.0000
  N   N36       1.0  0.62497  0.97772  0.03210  1.0000
  Fe  Fe74      1.0  0.31885  0.73514  0.89420  1.0000
  H   H1142     1.0  0.62834  0.73810  0.20396  1.0000
  H   H1143     1.0  0.64749  0.73584  0.16092  1.0000
  C   C639      1.0  0.47240  0.98196  0.00456  1.0000
  C   C640      1.0  0.47059  0.98126  0.93033  1.0000
  H   H1144     1.0  0.62216  0.73420  0.11107  1.0000
  Fe  Fe75      1.0  0.75622  0.22001  0.51169  1.0000
  H   H1145     1.0  0.75333  0.06713  0.82865  1.0000
  H   H1146     1.0  0.67759  0.13402  0.35911  1.0000
  S   S146      1.0  0.80856  0.18492  0.51489  1.0000
  S   S147      1.0  0.75586  0.19196  0.49124  1.0000
  H   H1147     1.0  0.67734  0.00924  0.10514  1.0000
  C   C641      1.0  0.83201  0.22026  0.60173  1.0000
  H   H1148     1.0  0.72630  0.03659  0.81539  1.0000
  H   H1149     1.0  0.80137  0.17551  0.43538  1.0000
  C   C642      1.0  0.76574  0.10406  0.77809  1.0000
  H   H1150     1.0  0.71199  0.07151  0.81117  1.0000
  C   C643      1.0  0.74188  0.07484  0.83259  1.0000
  H   H1151     1.0  0.79926  0.11804  0.70650  1.0000
  H   H1152     1.0  0.77497  0.12025  0.77211  1.0000
  Fe  Fe76      1.0  0.67219  0.09279  0.41778  1.0000
  S   S148      1.0  0.70890  0.10678  0.40082  1.0000
  H   H1153     1.0  0.73355  0.06893  0.77404  1.0000
  H   H1154     1.0  0.67566  0.02022  0.64408  1.0000
  H   H1155     1.0  0.81216  0.11201  0.86209  1.0000
  Fe  Fe77      1.0  0.69085  0.10176  0.76891  1.0000
  S   S149      1.0  0.71615  0.09411  0.72884  1.0000
  S   S150      1.0  0.67732  0.08695  0.83474  1.0000
  Fe  Fe78      1.0  0.69101  0.13125  0.70143  1.0000
  S   S151      1.0  0.71637  0.12617  0.65565  1.0000
  S   S152      1.0  0.68126  0.15567  0.68113  1.0000
  Fe  Fe79      1.0  0.69723  0.09446  0.68178  1.0000
  S   S153      1.0  0.69371  0.07180  0.64131  1.0000
  Fe  Fe80      1.0  0.73294  0.12644  0.70668  1.0000
  S   S154      1.0  0.76919  0.14060  0.69758  1.0000
  S   S155      1.0  0.67004  0.09931  0.72366  1.0000
  S   S156      1.0  0.70932  0.13425  0.75063  1.0000
  H   H1156     1.0  0.73289  0.07037  0.86550  1.0000
  C   C644      1.0  0.71407  0.04352  0.82003  1.0000
  C   C645      1.0  0.70250  0.20107  0.38932  1.0000
  C   C646      1.0  0.67537  0.17484  0.48324  1.0000
  H   H1157     1.0  0.70164  0.15658  0.34216  1.0000
  H   H1158     1.0  0.65735  0.14665  0.41861  1.0000
  C   C647      1.0  0.74628  0.12881  0.82649  1.0000
  C   C648      1.0  0.72874  0.13591  0.84672  1.0000
  H   H1159     1.0  0.67294  0.06519  0.76909  1.0000
  H   H1160     1.0  0.70490  0.03960  0.85268  1.0000
  C   C649      1.0  0.66889  0.16152  0.40173  1.0000
  C   C650      1.0  0.67075  0.16075  0.35559  1.0000
  H   H1161     1.0  0.76183  0.17058  0.32601  1.0000
  C   C651      1.0  0.67431  0.07150  0.61361  1.0000
  N   N37       1.0  0.66139  0.17705  0.41726  1.0000
  C   C652      1.0  0.68442  0.14901  0.34044  1.0000
  C   C653      1.0  0.71687  0.22294  0.37607  1.0000
  H   H1162     1.0  0.67870  0.04889  0.58161  1.0000
  S   S157      1.0  0.80410  0.21946  0.42789  1.0000
  C   C654      1.0  0.67784  0.19778  0.40019  1.0000
  C   C655      1.0  0.75422  0.20628  0.66215  1.0000
  C   C656      1.0  0.65146  0.16263  0.64530  1.0000
  H   H1163     1.0  0.80575  0.08879  0.89387  1.0000
  Fe  Fe81      1.0  0.76850  0.21010  0.42830  1.0000
  H   H1164     1.0  0.68515  0.20903  0.60592  1.0000
  N   N38       1.0  0.75401  0.09690  0.82267  1.0000
  H   H1165     1.0  0.72877  0.17762  0.68828  1.0000
  H   H1166     1.0  0.68699  0.19033  0.47715  1.0000
  H   H1167     1.0  0.65522  0.03209  0.69697  1.0000
  H   H1168     1.0  0.80283  0.09524  0.70236  1.0000
  C   C657      1.0  0.70710  0.22118  0.54634  1.0000
  H   H1169     1.0  0.67564  0.20777  0.42182  1.0000
  C   C658      1.0  0.79757  0.17323  0.56598  1.0000
  C   C659      1.0  0.80923  0.16435  0.58512  1.0000
  C   C660      1.0  0.80079  0.15489  0.62603  1.0000
  C   C661      1.0  0.78041  0.15388  0.64755  1.0000
  C   C662      1.0  0.76880  0.16289  0.62851  1.0000
  C   C663      1.0  0.77745  0.17272  0.58778  1.0000
  H   H1170     1.0  0.82487  0.16486  0.56829  1.0000
  H   H1171     1.0  0.80981  0.14794  0.64061  1.0000
  H   H1172     1.0  0.75323  0.16246  0.64528  1.0000
  H   H1173     1.0  0.76847  0.17972  0.57320  1.0000
  C   C664      1.0  0.74278  0.17337  0.38225  1.0000
  C   C665      1.0  0.72574  0.16338  0.41707  1.0000
  C   C666      1.0  0.71426  0.14297  0.42195  1.0000
  C   C667      1.0  0.72070  0.13248  0.39308  1.0000
  C   C668      1.0  0.73803  0.14248  0.35883  1.0000
  C   C669      1.0  0.74864  0.16292  0.35288  1.0000
  H   H1174     1.0  0.72142  0.17143  0.44003  1.0000
  H   H1175     1.0  0.70096  0.13524  0.44857  1.0000
  H   H1176     1.0  0.74315  0.13440  0.33666  1.0000
  C   C670      1.0  0.66246  0.08350  0.62033  1.0000
  H   H1177     1.0  0.84418  0.21671  0.61535  1.0000
  H   H1178     1.0  0.68484  0.16306  0.40814  1.0000
  C   C671      1.0  0.81883  0.22822  0.63230  1.0000
  H   H1179     1.0  0.71237  0.22950  0.35004  1.0000
  H   H1180     1.0  0.81064  0.21675  0.66013  1.0000
  H   H1181     1.0  0.73207  0.19485  0.72302  1.0000
  H   H1182     1.0  0.76154  0.10641  0.87883  1.0000
  H   H1183     1.0  0.72461  0.13151  0.88050  1.0000
  H   H1184     1.0  0.79284  0.22097  0.60083  1.0000
  H   H1185     1.0  0.68433  0.14763  0.30809  1.0000
  H   H1186     1.0  0.73489  0.15217  0.83905  1.0000
  N   N39       1.0  0.74879  0.12777  0.51186  1.0000
  C   C672      1.0  0.73267  0.13166  0.54428  1.0000
  C   C673      1.0  0.76595  0.12357  0.52992  1.0000
  C   C674      1.0  0.76045  0.14625  0.48004  1.0000
  C   C675      1.0  0.73753  0.11135  0.49088  1.0000
  C   C676      1.0  0.72320  0.09132  0.51871  1.0000
  C   C677      1.0  0.71360  0.13549  0.53068  1.0000
  C   C678      1.0  0.77788  0.14542  0.44352  1.0000
  C   C679      1.0  0.75895  0.11353  0.57555  1.0000
  C   C680      1.0  0.77679  0.10766  0.58766  1.0000
  C   C681      1.0  0.71070  0.07685  0.49423  1.0000
  C   C682      1.0  0.69785  0.13789  0.56696  1.0000
  C   C683      1.0  0.79134  0.16577  0.41761  1.0000
  H   H1187     1.0  0.74151  0.14446  0.55775  1.0000
  H   H1188     1.0  0.72467  0.11911  0.57008  1.0000
  H   H1189     1.0  0.77291  0.11457  0.51148  1.0000
  H   H1190     1.0  0.78020  0.13746  0.52822  1.0000
  H   H1191     1.0  0.76857  0.15877  0.49483  1.0000
  H   H1192     1.0  0.74874  0.15030  0.46598  1.0000
  H   H1193     1.0  0.72744  0.11577  0.47260  1.0000
  H   H1194     1.0  0.74977  0.10841  0.46806  1.0000
  H   H1195     1.0  0.71096  0.09266  0.54407  1.0000
  H   H1196     1.0  0.73367  0.08493  0.53152  1.0000
  H   H1197     1.0  0.71968  0.14913  0.50778  1.0000
  H   H1198     1.0  0.70393  0.12299  0.51773  1.0000
  H   H1199     1.0  0.76972  0.13593  0.42314  1.0000
  H   H1200     1.0  0.78941  0.13962  0.45393  1.0000
  H   H1201     1.0  0.75615  0.12395  0.59544  1.0000
  H   H1202     1.0  0.74373  0.10018  0.58235  1.0000
  H   H1203     1.0  0.77171  0.10149  0.62088  1.0000
  H   H1204     1.0  0.77942  0.09634  0.57036  1.0000
  H   H1205     1.0  0.79240  0.12065  0.58160  1.0000
  H   H1206     1.0  0.72196  0.07600  0.46641  1.0000
  H   H1207     1.0  0.70239  0.06198  0.51319  1.0000
  H   H1208     1.0  0.69807  0.08150  0.48490  1.0000
  H   H1209     1.0  0.68392  0.13971  0.55682  1.0000
  H   H1210     1.0  0.69110  0.12466  0.59123  1.0000
  H   H1211     1.0  0.70624  0.15101  0.57985  1.0000
  H   H1212     1.0  0.78052  0.17256  0.40736  1.0000
  H   H1213     1.0  0.80252  0.16457  0.39013  1.0000
  C   C684      1.0  0.67554  0.00358  0.07623  1.0000
  H   H1214     1.0  0.67798  0.01262  0.69447  1.0000
  H   H1215     1.0  0.68160  0.17288  0.54377  1.0000
  C   C685      1.0  0.66961  0.05826  0.58660  1.0000
  H   H1216     1.0  0.70220  0.03758  0.80127  1.0000
  C   C686      1.0  0.79878  0.09942  0.88372  1.0000
  H   H1217     1.0  0.72695  0.09988  0.86411  1.0000
  H   H1218     1.0  0.72564  0.10229  0.81215  1.0000
  C   C687      1.0  0.78060  0.08939  0.86287  1.0000
  H   H1219     1.0  0.71360  0.12960  0.83584  1.0000
  H   H1220     1.0  0.77506  0.07889  0.76676  1.0000
  C   C688      1.0  0.66790  0.21296  0.56042  1.0000
  H   H1221     1.0  0.66486  0.17605  0.62947  1.0000
  C   C689      1.0  0.70907  0.22826  0.50549  1.0000
  C   C690      1.0  0.72522  0.06582  0.80701  1.0000
  H   H1222     1.0  0.73431  0.22494  0.36607  1.0000
  C   C691      1.0  0.65522  0.14919  0.67163  1.0000
  H   H1223     1.0  0.76051  0.13487  0.83986  1.0000
  H   H1224     1.0  0.70633  0.19367  0.36354  1.0000
  H   H1225     1.0  0.66610  0.09383  0.64097  1.0000
  H   H1226     1.0  0.78777  0.08390  0.83671  1.0000
  C   C692      1.0  0.66740  0.16855  0.52965  1.0000
  S   S158      1.0  0.73007  0.22106  0.56292  1.0000
  H   H1227     1.0  0.76242  0.20011  0.63864  1.0000
  C   C693      1.0  0.76986  0.10359  0.84956  1.0000
  H   H1228     1.0  0.75379  0.10179  0.75885  1.0000
  H   H1229     1.0  0.77720  0.09704  0.69899  1.0000
  H   H1230     1.0  0.67478  0.20369  0.37149  1.0000
  H   H1231     1.0  0.78329  0.11795  0.83451  1.0000
  H   H1232     1.0  0.65698  0.00103  0.01078  1.0000
  H   H1233     1.0  0.76813  0.07652  0.88525  1.0000
  H   H1234     1.0  0.75148  0.13520  0.79335  1.0000
  Fe  Fe82      1.0  0.79129  0.20321  0.49260  1.0000
  C   C694      1.0  0.78242  0.09515  0.76071  1.0000
  C   C695      1.0  0.73720  0.10602  0.83221  1.0000
  S   S159      1.0  0.75676  0.19892  0.37427  1.0000
  H   H1235     1.0  0.70751  0.19532  0.41534  1.0000
  H   H1236     1.0  0.79225  0.10476  0.91098  1.0000
  H   H1237     1.0  0.75188  0.18355  0.71082  1.0000
  C   C696      1.0  0.79090  0.10179  0.71433  1.0000
  H   H1238     1.0  0.79679  0.10031  0.77410  1.0000
  C   C697      1.0  0.74100  0.18963  0.69848  1.0000
  C   C698      1.0  0.68660  0.21412  0.57410  1.0000
  C   C699      1.0  0.66997  0.21987  0.51937  1.0000
  H   H1239     1.0  0.68413  0.16552  0.47187  1.0000
  C   C700      1.0  0.77093  0.22387  0.67532  1.0000
  H   H1240     1.0  0.68521  0.01583  0.05013  1.0000
  H   H1241     1.0  0.74235  0.21087  0.64961  1.0000
  H   H1242     1.0  0.77985  0.21776  0.69345  1.0000
  C   C701      1.0  0.66206  0.05575  0.79701  1.0000
  S   S160      1.0  0.65589  0.06189  0.45238  1.0000
  H   H1243     1.0  0.68216  0.99183  0.07471  1.0000
  H   H1244     1.0  0.67823  0.17568  0.33675  1.0000
  H   H1245     1.0  0.65990  0.11598  0.80434  1.0000
  S   S161      1.0  0.79045  0.22947  0.51930  1.0000
  C   C702      1.0  0.69061  0.22798  0.49224  1.0000
  H   H1246     1.0  0.65416  0.15338  0.35045  1.0000
  H   H1247     1.0  0.66019  0.99507  0.67044  1.0000
  H   H1248     1.0  0.82104  0.20666  0.59383  1.0000
  C   C703      1.0  0.66159  0.06246  0.83423  1.0000
  C   C704      1.0  0.66647  0.01069  0.67430  1.0000
  H   H1249     1.0  0.84087  0.23128  0.57324  1.0000
  H   H1250     1.0  0.65618  0.17556  0.54278  1.0000
  C   C705      1.0  0.65606  0.17303  0.46344  1.0000
  C   C706      1.0  0.65286  0.05684  0.56668  1.0000
  H   H1251     1.0  0.65311  0.99627  0.94949  1.0000
  H   H1252     1.0  0.71527  0.23089  0.40192  1.0000
  H   H1253     1.0  0.65867  0.15242  0.53760  1.0000
  H   H1254     1.0  0.65196  0.20673  0.58161  1.0000
  S   S162      1.0  0.65420  0.08659  0.36841  1.0000
  C   C707      1.0  0.65135  0.99545  0.07566  1.0000
  H   H1255     1.0  0.76111  0.22968  0.69718  1.0000
  H   H1256     1.0  0.88860  0.36517  0.74837  1.0000
  C   C708      1.0  0.75496  0.28664  0.46229  1.0000
  H   H1257     1.0  0.68193  0.33484  0.62559  1.0000
  H   H1258     1.0  0.69026  0.43151  0.66523  1.0000
  N   N40       1.0  0.78666  0.24039  0.64135  1.0000
  H   H1259     1.0  0.86264  0.34995  0.74031  1.0000
  Fe  Fe83      1.0  0.90535  0.37275  0.60955  1.0000
  S   S163      1.0  0.90311  0.35778  0.55499  1.0000
  H   H1260     1.0  0.69672  0.42143  0.60242  1.0000
  Fe  Fe84      1.0  0.85957  0.37196  0.62107  1.0000
  S   S164      1.0  0.85347  0.35764  0.56679  1.0000
  S   S165      1.0  0.83255  0.37863  0.65804  1.0000
  Fe  Fe85      1.0  0.86913  0.33822  0.59061  1.0000
  S   S166      1.0  0.85604  0.30527  0.59445  1.0000
  Fe  Fe86      1.0  0.88772  0.37840  0.53623  1.0000
  S   S167      1.0  0.89813  0.39467  0.47169  1.0000
  S   S168      1.0  0.87283  0.35111  0.64749  1.0000
  S   S169      1.0  0.89236  0.39483  0.58818  1.0000
  C   C709      1.0  0.66082  0.27194  0.46024  1.0000
  C   C710      1.0  0.68453  0.42933  0.69908  1.0000
  H   H1261     1.0  0.75890  0.24799  0.63617  1.0000
  H   H1262     1.0  0.72072  0.27233  0.46846  1.0000
  C   C711      1.0  0.91321  0.44990  0.37309  1.0000
  H   H1263     1.0  0.66270  0.27528  0.57781  1.0000
  S   S170      1.0  0.82338  0.27653  0.43992  1.0000
  C   C712      1.0  0.87435  0.43363  0.45191  1.0000
  H   H1264     1.0  0.83758  0.27704  0.68419  1.0000
  H   H1265     1.0  0.70896  0.27634  0.57506  1.0000
  H   H1266     1.0  0.74488  0.46964  0.50417  1.0000
  H   H1267     1.0  0.75843  0.27378  0.45361  1.0000
  H   H1268     1.0  0.68818  0.32690  0.67187  1.0000
  H   H1269     1.0  0.76651  0.23523  0.59775  1.0000
  C   C713      1.0  0.84607  0.29698  0.55247  1.0000
  C   C714      1.0  0.83845  0.30819  0.52846  1.0000
  C   C715      1.0  0.83122  0.30163  0.49427  1.0000
  C   C716      1.0  0.83180  0.28400  0.48366  1.0000
  C   C717      1.0  0.83918  0.27263  0.50789  1.0000
  C   C718      1.0  0.84623  0.27909  0.54235  1.0000
  H   H1270     1.0  0.83792  0.32182  0.53636  1.0000
  H   H1271     1.0  0.82482  0.31000  0.47627  1.0000
  H   H1272     1.0  0.83967  0.25897  0.49978  1.0000
  H   H1273     1.0  0.85221  0.27041  0.56073  1.0000
  C   C719      1.0  0.67708  0.41171  0.51827  1.0000
  C   C720      1.0  0.67569  0.27097  0.48856  1.0000
  H   H1274     1.0  0.98147  0.38804  0.37309  1.0000
  C   C721      1.0  0.83179  0.39980  0.63192  1.0000
  C   C722      1.0  0.81195  0.39996  0.62562  1.0000
  C   C723      1.0  0.81143  0.41677  0.60383  1.0000
  C   C724      1.0  0.73757  0.45239  0.43369  1.0000
  H   H1275     1.0  0.75756  0.29680  0.43378  1.0000
  H   H1276     1.0  0.79711  0.38696  0.63683  1.0000
  H   H1277     1.0  0.79618  0.41675  0.59819  1.0000
  H   H1278     1.0  0.97123  0.46512  0.57170  1.0000
  C   C725      1.0  0.65297  0.43402  0.65151  1.0000
  H   H1279     1.0  0.74641  0.44658  0.50562  1.0000
  H   H1280     1.0  0.90919  0.47633  0.38806  1.0000
  H   H1281     1.0  0.81199  0.24525  0.58677  1.0000
  C   C726      1.0  0.68425  0.39515  0.69578  1.0000
  H   H1282     1.0  0.83139  0.40744  0.49122  1.0000
  H   H1283     1.0  0.67436  0.29635  0.51217  1.0000
  C   C727      1.0  0.65124  0.43666  0.69684  1.0000
  H   H1284     1.0  0.81177  0.24192  0.70065  1.0000
  H   H1285     1.0  0.89646  0.44939  0.52536  1.0000
  C   C728      1.0  0.73137  0.27977  0.48774  1.0000
  H   H1286     1.0  0.87622  0.42147  0.51191  1.0000
  H   H1287     1.0  0.73257  0.33522  0.50617  1.0000
  C   C729      1.0  0.94844  0.36587  0.39445  1.0000
  C   C730      1.0  0.77170  0.47063  0.55083  1.0000
  H   H1288     1.0  0.96035  0.39690  0.36712  1.0000
  H   H1289     1.0  0.69105  0.46361  0.65525  1.0000
  C   C731      1.0  0.97088  0.43181  0.44574  1.0000
  H   H1290     1.0  0.74072  0.45318  0.40002  1.0000
  C   C732      1.0  0.78548  0.26641  0.58515  1.0000
  H   H1291     1.0  0.94506  0.39772  0.76255  1.0000
  H   H1292     1.0  0.67982  0.43373  0.46884  1.0000
  H   H1293     1.0  0.96813  0.44161  0.38584  1.0000
  C   C733      1.0  0.67477  0.27180  0.59159  1.0000
  C   C734      1.0  0.77090  0.27030  0.55888  1.0000
  H   H1294     1.0  0.67060  0.28166  0.43054  1.0000
  H   H1295     1.0  0.88510  0.45752  0.38262  1.0000
  H   H1296     1.0  0.92672  0.46616  0.43884  1.0000
  H   H1297     1.0  0.65547  0.40160  0.71071  1.0000
  H   H1298     1.0  0.65091  0.24941  0.64131  1.0000
  C   C735      1.0  0.77331  0.24668  0.61593  1.0000
  H   H1299     1.0  0.81447  0.26754  0.63559  1.0000
  Fe  Fe87      1.0  0.80024  0.24492  0.45464  1.0000
  C   C736      1.0  0.68322  0.43096  0.49824  1.0000
  H   H1300     1.0  0.66745  0.45692  0.76235  1.0000
  H   H1301     1.0  0.67599  0.37952  0.71099  1.0000
  H   H1302     1.0  0.79080  0.27907  0.60116  1.0000
  H   H1303     1.0  0.80010  0.26634  0.56402  1.0000
  H   H1304     1.0  0.67805  0.41890  0.40280  1.0000
  H   H1305     1.0  0.68940  0.48321  0.33451  1.0000
  H   H1306     1.0  0.68260  0.43750  0.35999  1.0000
  H   H1307     1.0  0.69971  0.43353  0.71023  1.0000
  H   H1308     1.0  0.67729  0.39347  0.57146  1.0000
  H   H1309     1.0  0.68201  0.44148  0.76791  1.0000
  H   H1310     1.0  0.65937  0.42166  0.83608  1.0000
  H   H1311     1.0  0.68783  0.30908  0.56369  1.0000
  S   S171      1.0  0.65234  0.35192  0.59138  1.0000
  H   H1312     1.0  0.92629  0.43849  0.52383  1.0000
  H   H1313     1.0  0.76725  0.25932  0.53836  1.0000
  H   H1314     1.0  0.74356  0.43899  0.64430  1.0000
  H   H1315     1.0  0.77963  0.28507  0.53947  1.0000
  H   H1316     1.0  0.98043  0.43570  0.56991  1.0000
  C   C737      1.0  0.67544  0.48045  0.35964  1.0000
  H   H1317     1.0  0.67887  0.28147  0.61448  1.0000
  N   N41       1.0  0.87866  0.41840  0.73341  1.0000
  C   C738      1.0  0.88600  0.43307  0.76105  1.0000
  C   C739      1.0  0.85531  0.41484  0.73154  1.0000
  C   C740      1.0  0.87932  0.39928  0.75187  1.0000
  C   C741      1.0  0.89375  0.42477  0.69115  1.0000
  C   C742      1.0  0.89614  0.44441  0.66690  1.0000
  C   C743      1.0  0.90954  0.43802  0.76670  1.0000
  C   C744      1.0  0.86867  0.38104  0.73262  1.0000
  C   C745      1.0  0.84793  0.43246  0.73388  1.0000
  C   C746      1.0  0.82597  0.42800  0.72274  1.0000
  H   H1318     1.0  0.69760  0.46159  0.50151  1.0000
  N   N42       1.0  0.90746  0.34379  0.42679  1.0000
  H   H1319     1.0  0.87448  0.42767  0.79196  1.0000
  H   H1320     1.0  0.88527  0.44735  0.75003  1.0000
  H   H1321     1.0  0.85202  0.40890  0.70345  1.0000
  H   H1322     1.0  0.84353  0.40330  0.75758  1.0000
  H   H1323     1.0  0.87120  0.39552  0.78520  1.0000
  H   H1324     1.0  0.89654  0.40067  0.74934  1.0000
  H   H1325     1.0  0.91032  0.42548  0.69255  1.0000
  H   H1326     1.0  0.88812  0.41368  0.67162  1.0000
  H   H1327     1.0  0.92588  0.32640  0.44185  1.0000
  H   H1328     1.0  0.72956  0.26898  0.51463  1.0000
  H   H1329     1.0  0.91211  0.42474  0.77827  1.0000
  H   H1330     1.0  0.92178  0.44545  0.73724  1.0000
  H   H1331     1.0  0.87657  0.38337  0.69966  1.0000
  H   H1332     1.0  0.85093  0.37751  0.73593  1.0000
  H   H1333     1.0  0.84591  0.43556  0.76560  1.0000
  H   H1334     1.0  0.85984  0.44610  0.71341  1.0000
  H   H1335     1.0  0.82754  0.42613  0.69028  1.0000
  H   H1336     1.0  0.81323  0.41446  0.74265  1.0000
  H   H1337     1.0  0.82068  0.44046  0.72665  1.0000
  H   H1338     1.0  0.92891  0.45310  0.38215  1.0000
  H   H1339     1.0  0.90369  0.44418  0.82872  1.0000
  H   H1340     1.0  0.83804  0.39892  0.53658  1.0000
  H   H1341     1.0  0.84984  0.39448  0.48781  1.0000
  H   H1342     1.0  0.76675  0.29414  0.48000  1.0000
  C   C747      1.0  0.85027  0.43374  0.59750  1.0000
  C   C748      1.0  0.77970  0.43639  0.49573  1.0000
  H   H1343     1.0  0.73067  0.30849  0.47323  1.0000
  C   C749      1.0  0.94558  0.40351  0.73166  1.0000
  C   C750      1.0  0.71468  0.33101  0.51816  1.0000
  H   H1344     1.0  0.85017  0.36659  0.42134  1.0000
  H   H1345     1.0  0.92884  0.41987  0.39871  1.0000
  H   H1346     1.0  0.74364  0.44210  0.57156  1.0000
  C   C751      1.0  0.75898  0.45063  0.57984  1.0000
  H   H1347     1.0  0.86631  0.41647  0.62200  1.0000
  H   H1348     1.0  0.84850  0.45679  0.45918  1.0000
  C   C752      1.0  0.68765  0.29150  0.49847  1.0000
  C   C753      1.0  0.66385  0.25059  0.61421  1.0000
  H   H1349     1.0  0.65715  0.42108  0.64630  1.0000
  H   H1350     1.0  0.88848  0.35339  0.47295  1.0000
  C   C754      1.0  0.83055  0.43369  0.59008  1.0000
  H   H1351     1.0  0.69614  0.30169  0.46873  1.0000
  C   C755      1.0  0.68654  0.46311  0.68854  1.0000
  H   H1352     1.0  0.97349  0.38499  0.53212  1.0000
  H   H1353     1.0  0.85701  0.36308  0.46954  1.0000
  C   C756      1.0  0.84463  0.40518  0.50342  1.0000
  H   H1354     1.0  0.92927  0.39870  0.52081  1.0000
  C   C757      1.0  0.94042  0.39796  0.66417  1.0000
  H   H1355     1.0  0.92476  0.34357  0.47471  1.0000
  H   H1356     1.0  0.86348  0.35987  0.78682  1.0000
  C   C758      1.0  0.87103  0.36294  0.75345  1.0000
  C   C759      1.0  0.85099  0.41660  0.61732  1.0000
  H   H1357     1.0  0.67228  0.34220  0.67233  1.0000
  H   H1358     1.0  0.85803  0.43462  0.51401  1.0000
  H   H1359     1.0  0.66524  0.26037  0.51674  1.0000
  H   H1360     1.0  0.77171  0.43396  0.46992  1.0000
  C   C760      1.0  0.95422  0.43125  0.67847  1.0000
  H   H1361     1.0  0.77200  0.46046  0.42977  1.0000
  H   H1362     1.0  0.80365  0.42720  0.51740  1.0000
  H   H1363     1.0  0.88099  0.42316  0.43870  1.0000
  H   H1364     1.0  0.72482  0.23418  0.48412  1.0000
  S   S172      1.0  0.82989  0.45441  0.56198  1.0000
  H   H1365     1.0  0.86094  0.43319  0.43690  1.0000
  H   H1366     1.0  0.76688  0.42880  0.52420  1.0000
  C   C761      1.0  0.86406  0.42465  0.49766  1.0000
  C   C762      1.0  0.66811  0.44259  0.75608  1.0000
  C   C763      1.0  0.85527  0.35707  0.44100  1.0000
  H   H1367     1.0  0.88455  0.30616  0.47941  1.0000
  H   H1368     1.0  0.87153  0.29106  0.36350  1.0000
  C   C764      1.0  0.93743  0.41998  0.42251  1.0000
  H   H1369     1.0  0.76949  0.44199  0.57928  1.0000
  C   C765      1.0  0.89686  0.31688  0.49173  1.0000
  H   H1370     1.0  0.87314  0.33117  0.45969  1.0000
  H   H1371     1.0  0.89359  0.29466  0.54184  1.0000
  C   C766      1.0  0.72626  0.29738  0.50134  1.0000
  H   H1372     1.0  0.91876  0.31586  0.53089  1.0000
  H   H1373     1.0  0.78737  0.41049  0.49009  1.0000
  C   C767      1.0  0.90674  0.30566  0.51681  1.0000
  H   H1374     1.0  0.88828  0.32375  0.51303  1.0000
  H   H1375     1.0  0.73834  0.30404  0.51946  1.0000
  C   C768      1.0  0.79600  0.42626  0.49104  1.0000
  H   H1376     1.0  0.86508  0.44679  0.58680  1.0000
  C   C769      1.0  0.92631  0.40824  0.46092  1.0000
  S   S173      1.0  0.93718  0.38202  0.62846  1.0000
  H   H1377     1.0  0.91488  0.29781  0.49729  1.0000
  H   H1378     1.0  0.87361  0.34893  0.39181  1.0000
  C   C770      1.0  0.94730  0.41827  0.65149  1.0000
  H   H1379     1.0  0.68400  0.39589  0.66297  1.0000
  C   C771      1.0  0.92477  0.36432  0.41282  1.0000
  H   H1380     1.0  0.80902  0.43312  0.46230  1.0000
  H   H1381     1.0  0.75530  0.26972  0.57831  1.0000
  C   C772      1.0  0.70449  0.31067  0.54688  1.0000
  Fe  Fe88      1.0  0.85023  0.48160  0.58140  1.0000
  H   H1382     1.0  0.71886  0.46455  0.69654  1.0000
  H   H1383     1.0  0.92082  0.37282  0.38886  1.0000
  C   C773      1.0  0.93765  0.40773  0.49112  1.0000
  H   H1384     1.0  0.73151  0.43675  0.44850  1.0000
  C   C774      1.0  0.88631  0.34569  0.44641  1.0000
  H   H1385     1.0  0.89117  0.30241  0.41583  1.0000
  S   S174      1.0  0.71047  0.46298  0.57774  1.0000
  C   C775      1.0  0.69589  0.27531  0.55858  1.0000
  C   C776      1.0  0.67180  0.42237  0.37621  1.0000
  H   H1386     1.0  0.87848  0.46583  0.49325  1.0000
  H   H1387     1.0  0.71865  0.34784  0.56776  1.0000
  C   C777      1.0  0.91483  0.33306  0.45769  1.0000
  H   H1388     1.0  0.84224  0.34218  0.44880  1.0000
  H   H1389     1.0  0.80234  0.46045  0.51642  1.0000
  H   H1390     1.0  0.95380  0.35691  0.41483  1.0000
  H   H1391     1.0  0.87098  0.31297  0.41299  1.0000
  H   H1392     1.0  0.90015  0.30523  0.34031  1.0000
  H   H1393     1.0  0.69353  0.26183  0.54485  1.0000
  S   S175      1.0  0.66295  0.39197  0.49675  1.0000
  C   C778      1.0  0.96479  0.38711  0.38754  1.0000
  C   C779      1.0  0.80511  0.25356  0.69986  1.0000
  C   C780      1.0  0.75592  0.46228  0.49202  1.0000
  C   C781      1.0  0.88712  0.31318  0.39737  1.0000
  H   H1394     1.0  0.90402  0.45367  0.31540  1.0000
  C   C782      1.0  0.88333  0.46877  0.45929  1.0000
  C   C783      1.0  0.79135  0.45874  0.49530  1.0000
  C   C784      1.0  0.69800  0.44332  0.55449  1.0000
  H   H1395     1.0  0.96518  0.39238  0.41717  1.0000
  H   H1396     1.0  0.79022  0.24866  0.72549  1.0000
  H   H1397     1.0  0.83075  0.24149  0.63957  1.0000
  C   C785      1.0  0.91186  0.45841  0.50249  1.0000
  C   C786      1.0  0.65425  0.47007  0.35569  1.0000
  C   C787      1.0  0.95962  0.43217  0.41522  1.0000
  H   H1398     1.0  0.94794  0.42396  0.62051  1.0000
  C   C788      1.0  0.93935  0.39064  0.70442  1.0000
  C   C789      1.0  0.88465  0.30600  0.35705  1.0000
  H   H1399     1.0  0.87992  0.31589  0.33751  1.0000
  H   H1400     1.0  0.92104  0.33196  0.37710  1.0000
  H   H1401     1.0  0.92529  0.37247  0.43895  1.0000
  H   H1402     1.0  0.71974  0.36154  0.51991  1.0000
  C   C790      1.0  0.89934  0.46022  0.39638  1.0000
  H   H1403     1.0  0.76256  0.48023  0.43180  1.0000
  C   C791      1.0  0.90556  0.33385  0.39000  1.0000
  C   C792      1.0  0.69330  0.44676  0.51677  1.0000
  C   C793      1.0  0.91147  0.45439  0.45837  1.0000
  H   H1404     1.0  0.88062  0.44313  0.65876  1.0000
  C   C794      1.0  0.87687  0.35646  0.41806  1.0000
  H   H1405     1.0  0.70709  0.33083  0.49185  1.0000
  H   H1406     1.0  0.80259  0.46493  0.46428  1.0000
  H   H1407     1.0  0.91394  0.46377  0.60929  1.0000
  C   C795      1.0  0.91424  0.45175  0.79780  1.0000
  H   H1408     1.0  0.90086  0.45636  0.68449  1.0000
  H   H1409     1.0  0.90355  0.34338  0.36491  1.0000
  C   C796      1.0  0.69266  0.42410  0.57374  1.0000
  H   H1410     1.0  0.93163  0.45613  0.79916  1.0000
  N   N43       1.0  0.89188  0.45405  0.44247  1.0000
  H   H1411     1.0  0.90413  0.43378  0.37885  1.0000
  C   C797      1.0  0.68177  0.40828  0.55607  1.0000
  C   C798      1.0  0.67210  0.40712  0.71600  1.0000
  N   N44       1.0  0.70331  0.29325  0.52590  1.0000
  C   C799      1.0  0.95993  0.41934  0.48342  1.0000
  C   C800      1.0  0.82201  0.27203  0.70826  1.0000
  C   C801      1.0  0.71151  0.34709  0.54073  1.0000
  H   H1412     1.0  0.92916  0.44963  0.31109  1.0000
  C   C802      1.0  0.91373  0.45029  0.62696  1.0000
  H   H1413     1.0  0.93011  0.45340  0.63317  1.0000
  H   H1414     1.0  0.91015  0.43846  0.60834  1.0000
  H   H1415     1.0  0.88820  0.37190  0.40614  1.0000
  H   H1416     1.0  0.78945  0.26711  0.66546  1.0000
  H   H1417     1.0  0.93437  0.37501  0.71422  1.0000
  H   H1418     1.0  0.67249  0.41195  0.35493  1.0000
  H   H1419     1.0  0.91381  0.44039  0.45607  1.0000
  C   C803      1.0  0.95371  0.42384  0.71843  1.0000
  C   C804      1.0  0.91905  0.45706  0.32693  1.0000
  S   S176      1.0  0.96320  0.43939  0.75269  1.0000
  C   C805      1.0  0.75857  0.46466  0.44492  1.0000
  H   H1420     1.0  0.94596  0.46093  0.49123  1.0000
  H   H1421     1.0  0.93382  0.46132  0.54294  1.0000
  H   H1422     1.0  0.68724  0.26498  0.47308  1.0000
  N   N45       1.0  0.77699  0.47022  0.50552  1.0000
  H   H1423     1.0  0.74235  0.46223  0.62684  1.0000
  H   H1424     1.0  0.72477  0.45836  0.44303  1.0000
  H   H1425     1.0  0.91133  0.46526  0.78912  1.0000
  C   C806      1.0  0.93062  0.45454  0.51586  1.0000
  C   C807      1.0  0.86332  0.47025  0.44519  1.0000
  H   H1426     1.0  0.96008  0.44693  0.66833  1.0000
  H   H1427     1.0  0.69380  0.34427  0.55071  1.0000
  H   H1428     1.0  0.71405  0.31136  0.57053  1.0000
  H   H1429     1.0  0.81582  0.28408  0.70889  1.0000
  C   C808      1.0  0.70838  0.47317  0.70081  1.0000
  H   H1430     1.0  0.91451  0.47402  0.50353  1.0000
  H   H1431     1.0  0.67728  0.47287  0.69259  1.0000
  H   H1432     1.0  0.96833  0.41904  0.50732  1.0000
  C   C809      1.0  0.79919  0.25785  0.65881  1.0000
  H   H1433     1.0  0.92871  0.47316  0.31944  1.0000
  H   H1434     1.0  0.76229  0.48022  0.55714  1.0000
  H   H1435     1.0  0.65831  0.30060  0.65176  1.0000
  C   C810      1.0  0.75281  0.45350  0.62408  1.0000
  C   C811      1.0  0.67551  0.33002  0.65913  1.0000
  N   N46       1.0  0.67235  0.44240  0.71055  1.0000
  H   H1436     1.0  0.66539  0.44705  0.62994  1.0000
  H   H1437     1.0  0.70147  0.40059  0.69852  1.0000
  H   H1438     1.0  0.94954  0.36093  0.36442  1.0000
  H   H1439     1.0  0.76778  0.46121  0.63457  1.0000
  H   H1440     1.0  0.82549  0.26884  0.73831  1.0000
  H   H1441     1.0  0.67092  0.40423  0.74931  1.0000
  H   H1442     1.0  0.67593  0.24549  0.62458  1.0000
  H   H1443     1.0  0.65595  0.24094  0.59387  1.0000
  C   C812      1.0  0.65442  0.31169  0.66819  1.0000
  H   H1444     1.0  0.92131  0.47810  0.71875  1.0000
  H   H1445     1.0  0.65189  0.46474  0.32759  1.0000
  H   H1446     1.0  0.70530  0.47517  0.73322  1.0000
  H   H1447     1.0  0.78694  0.47724  0.56133  1.0000
  S   S177      1.0  0.76591  0.23734  0.44836  1.0000
  H   H1448     1.0  0.86590  0.47227  0.41155  1.0000
  H   H1449     1.0  0.65214  0.25701  0.45420  1.0000
  H   H1450     1.0  0.65784  0.29834  0.72478  1.0000
  H   H1451     1.0  0.69224  0.23365  0.46071  1.0000
  C   C813      1.0  0.80208  0.23367  0.61373  1.0000
  Fe  Fe89      1.0  0.70925  0.50869  0.46018  1.0000
  S   S178      1.0  0.77935  0.54957  0.49544  1.0000
  S   S179      1.0  0.85106  0.51053  0.55389  1.0000
  Fe  Fe90      1.0  0.88632  0.52187  0.55545  1.0000
  S   S180      1.0  0.88036  0.53009  0.61767  1.0000
  S   S181      1.0  0.91020  0.54303  0.50042  1.0000
  H   H1452     1.0  0.75141  0.52518  0.72143  1.0000
  C   C814      1.0  0.67829  0.52784  0.64687  1.0000
  S   S182      1.0  0.67304  0.53567  0.57033  1.0000
  H   H1453     1.0  0.95229  0.56805  0.60042  1.0000
  C   C815      1.0  0.96616  0.52058  0.54846  1.0000
  H   H1454     1.0  0.95546  0.53879  0.58638  1.0000
  H   H1455     1.0  0.80590  0.50764  0.52661  1.0000
  H   H1456     1.0  0.77600  0.52863  0.73853  1.0000
  C   C816      1.0  0.67231  0.52703  0.33767  1.0000
  H   H1457     1.0  0.65487  0.52479  0.49134  1.0000
  N   N47       1.0  0.97304  0.55744  0.52748  1.0000
  H   H1458     1.0  0.74882  0.57556  0.70750  1.0000
  C   C817      1.0  0.66510  0.52200  0.61959  1.0000
  H   H1459     1.0  0.77559  0.50908  0.62200  1.0000
  C   C818      1.0  0.67859  0.48762  0.39567  1.0000
  C   C819      1.0  0.92920  0.49343  0.70538  1.0000
  C   C820      1.0  0.78931  0.49128  0.48376  1.0000
  C   C821      1.0  0.81032  0.50300  0.49706  1.0000
  H   H1460     1.0  0.92894  0.58664  0.54984  1.0000
  Fe  Fe91      1.0  0.84480  0.51581  0.61805  1.0000
  C   C822      1.0  0.68769  0.53150  0.29530  1.0000
  C   C823      1.0  0.97639  0.55480  0.48333  1.0000
  H   H1461     1.0  0.95076  0.59993  0.57282  1.0000
  C   C824      1.0  0.77821  0.55336  0.69567  1.0000
  H   H1462     1.0  0.95599  0.48995  0.57558  1.0000
  C   C825      1.0  0.65412  0.49893  0.69688  1.0000
  C   C826      1.0  0.74025  0.57156  0.56096  1.0000
  H   H1463     1.0  0.95530  0.50594  0.61215  1.0000
  H   H1464     1.0  0.77850  0.49975  0.48789  1.0000
  S   S183      1.0  0.70518  0.50217  0.39809  1.0000
  H   H1465     1.0  0.65573  0.57751  0.53955  1.0000
  C   C827      1.0  0.94987  0.53335  0.67191  1.0000
  C   C828      1.0  0.92785  0.52309  0.67169  1.0000
  C   C829      1.0  0.82482  0.52157  0.46575  1.0000
  H   H1466     1.0  0.70006  0.54677  0.28906  1.0000
  H   H1467     1.0  0.95779  0.54886  0.65963  1.0000
  H   H1468     1.0  0.91877  0.53070  0.65929  1.0000
  C   C830      1.0  0.91978  0.53123  0.46301  1.0000
  C   C831      1.0  0.92723  0.51650  0.47368  1.0000
  C   C832      1.0  0.93818  0.50948  0.44302  1.0000
  C   C833      1.0  0.94007  0.51594  0.40180  1.0000
  C   C834      1.0  0.93153  0.52986  0.39125  1.0000
  C   C835      1.0  0.92199  0.53793  0.42176  1.0000
  H   H1469     1.0  0.92561  0.51127  0.50543  1.0000
  C   C836      1.0  0.76957  0.53132  0.71170  1.0000
  H   H1470     1.0  0.93300  0.53493  0.35939  1.0000
  H   H1471     1.0  0.91635  0.54938  0.41337  1.0000
  C   C837      1.0  0.79052  0.54152  0.53299  1.0000
  C   C838      1.0  0.81268  0.55134  0.53186  1.0000
  C   C839      1.0  0.82144  0.54596  0.56325  1.0000
  C   C840      1.0  0.80789  0.53121  0.59649  1.0000
  C   C841      1.0  0.78596  0.52088  0.59690  1.0000
  C   C842      1.0  0.77741  0.52582  0.56482  1.0000
  H   H1472     1.0  0.82302  0.56322  0.50688  1.0000
  H   H1473     1.0  0.83854  0.55365  0.56245  1.0000
  N   N48       1.0  0.77894  0.57900  0.63606  1.0000
  C   C843      1.0  0.78148  0.59296  0.66623  1.0000
  C   C844      1.0  0.80053  0.58495  0.60492  1.0000
  C   C845      1.0  0.76253  0.58154  0.61351  1.0000
  H   H1474     1.0  0.82008  0.49403  0.50111  1.0000
  H   H1475     1.0  0.96029  0.54824  0.47605  1.0000
  C   C846      1.0  0.75982  0.59115  0.69567  1.0000
  C   C847      1.0  0.96198  0.57205  0.53255  1.0000
  C   C848      1.0  0.82036  0.58442  0.62098  1.0000
  C   C849      1.0  0.84172  0.59472  0.58794  1.0000
  H   H1476     1.0  0.66271  0.54199  0.41785  1.0000
  C   C850      1.0  0.76416  0.60140  0.73208  1.0000
  H   H1477     1.0  0.78955  0.60845  0.64965  1.0000
  H   H1478     1.0  0.79265  0.59133  0.68511  1.0000
  H   H1479     1.0  0.79907  0.57509  0.58189  1.0000
  H   H1480     1.0  0.80508  0.59998  0.58752  1.0000
  H   H1481     1.0  0.76696  0.59741  0.60176  1.0000
  H   H1482     1.0  0.77502  0.52360  0.68789  1.0000
  S   S184      1.0  0.71969  0.53912  0.47509  1.0000
  S   S185      1.0  0.72089  0.51868  0.56540  1.0000
  H   H1483     1.0  0.77180  0.55997  0.72068  1.0000
  H   H1484     1.0  0.79622  0.55916  0.69032  1.0000
  C   C851      1.0  0.77079  0.55772  0.65636  1.0000
  H   H1485     1.0  0.93067  0.55522  0.57760  1.0000
  H   H1486     1.0  0.83119  0.51774  0.43629  1.0000
  H   H1487     1.0  0.77441  0.57777  0.55079  1.0000
  H   H1488     1.0  0.82233  0.59174  0.64779  1.0000
  H   H1489     1.0  0.81852  0.56896  0.62925  1.0000
  H   H1490     1.0  0.84544  0.61070  0.58085  1.0000
  H   H1491     1.0  0.85540  0.59267  0.59892  1.0000
  H   H1492     1.0  0.84067  0.58849  0.55945  1.0000
  H   H1493     1.0  0.74203  0.58701  0.55254  1.0000
  H   H1494     1.0  0.95236  0.57188  0.50913  1.0000
  H   H1495     1.0  0.97191  0.56465  0.40492  1.0000
  H   H1496     1.0  0.74841  0.60037  0.75176  1.0000
  H   H1497     1.0  0.77208  0.59427  0.75078  1.0000
  H   H1498     1.0  0.77486  0.61717  0.72139  1.0000
  H   H1499     1.0  0.76067  0.51750  0.56499  1.0000
  S   S186      1.0  0.81795  0.52650  0.63860  1.0000
  H   H1500     1.0  0.83896  0.53022  0.47744  1.0000
  C   C852      1.0  0.93702  0.58571  0.57521  1.0000
  S   S187      1.0  0.88986  0.48976  0.69092  1.0000
  H   H1501     1.0  0.94189  0.53304  0.54683  1.0000
  C   C853      1.0  0.95835  0.53774  0.55347  1.0000
  H   H1502     1.0  0.69640  0.52125  0.29399  1.0000
  C   C854      1.0  0.91750  0.50309  0.68873  1.0000
  H   H1503     1.0  0.68236  0.52820  0.36047  1.0000
  H   H1504     1.0  0.97439  0.58733  0.52672  1.0000
  H   H1505     1.0  0.77561  0.54896  0.63416  1.0000
  C   C855      1.0  0.94525  0.56898  0.57381  1.0000
  H   H1506     1.0  0.75254  0.55105  0.66508  1.0000
  H   H1507     1.0  0.72465  0.56340  0.58434  1.0000
  H   H1508     1.0  0.73952  0.56469  0.53322  1.0000
  C   C856      1.0  0.67287  0.51625  0.68541  1.0000
  H   H1509     1.0  0.87325  0.50175  0.44489  1.0000
  H   H1510     1.0  0.75711  0.55503  0.58526  1.0000
  Fe  Fe92      1.0  0.74373  0.53113  0.50324  1.0000
  H   H1511     1.0  0.74596  0.57629  0.63466  1.0000
  C   C857      1.0  0.75971  0.57068  0.57671  1.0000
  H   H1512     1.0  0.68314  0.52074  0.70646  1.0000
  Fe  Fe93      1.0  0.69612  0.52396  0.53573  1.0000
  H   H1513     1.0  0.94476  0.49878  0.45135  1.0000
  S   S188      1.0  0.73585  0.50246  0.48169  1.0000
  H   H1514     1.0  0.75099  0.59823  0.67921  1.0000
  H   H1515     1.0  0.66043  0.51164  0.34304  1.0000
  H   H1516     1.0  0.69286  0.54116  0.63800  1.0000
  H   H1517     1.0  0.72509  0.49211  0.64122  1.0000
  H   H1518     1.0  0.67830  0.52947  0.27138  1.0000
  H   H1519     1.0  0.92480  0.58289  0.60463  1.0000
  H   H1520     1.0  0.96459  0.51585  0.51864  1.0000
  H   H1521     1.0  0.81546  0.53086  0.46037  1.0000
  C   C858      1.0  0.95125  0.50343  0.70433  1.0000
  C   C859      1.0  0.95206  0.50283  0.58206  1.0000
  S   S189      1.0  0.68389  0.49401  0.51917  1.0000
  H   H1522     1.0  0.79444  0.49188  0.45023  1.0000
  H   H1523     1.0  0.67275  0.55576  0.34526  1.0000
  C   C860      1.0  0.96165  0.52339  0.68762  1.0000
  C   C861      1.0  0.72155  0.49340  0.67408  1.0000
  H   H1524     1.0  0.65175  0.51676  0.41424  1.0000
  H   H1525     1.0  0.93440  0.49909  0.58377  1.0000
  H   H1526     1.0  0.65374  0.55507  0.52050  1.0000
  H   H1527     1.0  0.71241  0.50323  0.67857  1.0000
  H   H1528     1.0  0.84471  0.48880  0.44710  1.0000
  C   C862      1.0  0.66042  0.54151  0.34226  1.0000
  H   H1529     1.0  0.66279  0.48973  0.45565  1.0000
  S   S190      1.0  0.88623  0.49229  0.57725  1.0000
  H   H1530     1.0  0.85491  0.48629  0.49195  1.0000
  C   C863      1.0  0.85881  0.48787  0.45817  1.0000
  H   H1531     1.0  0.96009  0.49563  0.71683  1.0000
  Fe  Fe94      1.0  0.87722  0.49941  0.63970  1.0000
  S   S191      1.0  0.95265  0.50647  0.36329  1.0000
  Fe  Fe95      1.0  0.71151  0.49038  0.54195  1.0000
  H   H1532     1.0  0.73740  0.50006  0.68225  1.0000
  H   H1533     1.0  0.65636  0.54463  0.31286  1.0000
  H   H1534     1.0  0.98227  0.51504  0.82755  1.0000
  Fe  Fe96      1.0  0.98292  0.50367  0.37611  1.0000
  S   S192      1.0  0.84104  0.48581  0.64582  1.0000
  C   C864      1.0  0.66048  0.48403  0.42805  1.0000
  H   H1535     1.0  0.89667  0.48361  0.45089  1.0000
  H   H1536     1.0  0.65751  0.97823  0.02966  1.0000
