data_image0
_chemical_formula_structural       FeS2FeS2FeSFeS3H5FeS2FeS2FeCFeS3CSH2C6H6C2H3C5H4C5H4C7H4C6H5CHC2HNH2CHNC11H27C2H5CH2CHCH4CHCHCH5CH4C2H6C4H4CH3C2H2CH3NCH7C6H4C3H6CHCHC4HCH3SH3CH2CH3CHC2HSH2CH4C2HCHCH3C2H2CNSHC2H2CNH5CH2CHCH7CFeH2SH2CSHFeSFeS2H2FeS2HFeS2FeS2H3FeHCHSCHCSCFeCHCH2C6H4C6H5FeNC12H28CSHC3H2C2H3CHCHCH6CH3SCH4CFeH2CHCH3CH2C2H2CH3FeH2SHSHCH2CH2NH4CH3C3NHSC2H2CH4CH3C2HNH2CH3CHCH2C2HCNHC2H2CNH5CH3CHCHCH5C2H2CH2CH3C2H2CHCH4CH2FeH3SH2CH7CH2CSHSH2CH2C3H2FeHCHCH6C2HC2H5CH3SCHFeCHC2H2NH4CH2SH6SCHCHCSH4C2H2CHC2HCHC2H2CH2CNH5CH2CH4CH3SH3CH3CHC2H2C2HSH3C4H2SHCHFeHCHCH5C3H3SHFeS2FeSFeHSHSHSFeS2H2FeSHSFeS2FeS2FeSFeS3C2H3C6H4C6H6C6H3C6H4C6H4C4H4CH3NC12H29C2H2C3H6CSH3C2SCHFeH2SNCFeCH2FeH7CSH2CH2CH3CH4C2H3CHCH2CHC3FeHNC2H2CHNCFeH3C3H5CHC2HCH4C2H9SH4FeSH4FeHC2H5C4H2C3HFeCH2SH3CH2C2SCH2CH4CHS2H2CH7C2H2CHCH2NCHSNFeSH8C2HC2SCH2FeHCHCH3FeH3CSH3CFeHCSH3C2H4CHCHCH2CH2SHCH5CHC2H3CSHCHS2CHC4HCH2C2H3C2H3CH4SHC2H3CH2CH3CH2CSHSCHCH2C2H4FeCHCH4NCSCSH2CH2CSHCHCHC2HCHCNC10H18CH4CH4CH2FeH2FeHCHCH5CH3CH3SH4CH3FeS2FeS2FeSFeS3H3FeS2H2FeSCSFeS2H3FeSHCSHFeSHFeS2FeSFeS3HCH4CH2C6H4CHCH2SC6H4C6H4C6H4C6H4C7H3NCHC4HC3H2CH8CHCH5CHC2H4NC12H26CH6C3HCH4C2HCHCH4CHC2HNH7CH6CH3C2H5SHC2H2CH2NC2H3C2HNH2C2H2CH7FeNHCH2CHCHCHNC3H2CH3CHSC2H7CFeS2FeS2FeSFeS3FeS2FeS2FeSFeHS2CH2CH6SH2C6H5C4H5C3H4C4H6CHCHC2HFeC6H4NHCH5C2H2CHCH2CHSH2C2H2CNC5HCH10CH5NC12H21CH6FeCHC2H2CH4CH4CH3CH2CHC2HCH3CHCH2CH2C2HCH4C3HCNHC2H5CNH3CHCHCHSCHCH2CH3C3SC2H3FeCHCH2SHSHCHCHSH6CHCH4FeS2FeSHSFeH2FeS2FeSH2SHFeSH2FeSHSH3C2H2NH5CHCHC6H4C6H7CHCH2C2HC2SH3C2H7NC12H28C8H9CSCSHCH2C4HCH2C3H9FeHCH2FeCNH2CNH2CHNH8C2H6CHCHCH2C4SCHS2NHCHSH2CHC4H4CH3C2H3C3H13CH2CH5C2H2SCHC2H3NHCHC2H3C2H4CSCHCH
_chemical_formula_sum              "Fe80 S160 H1280 C720 N40"
_cell_length_a       43.9758
_cell_length_b       44.7294
_cell_length_c       47.9951
_cell_angle_alpha    90.5446
_cell_angle_beta     91.3669
_cell_angle_gamma    90.9894

_space_group_name_H-M_alt    "P 1"
_space_group_IT_number       1

loop_
  _space_group_symop_operation_xyz
  'x, y, z'

loop_
  _atom_site_type_symbol
  _atom_site_label
  _atom_site_symmetry_multiplicity
  _atom_site_fract_x
  _atom_site_fract_y
  _atom_site_fract_z
  _atom_site_occupancy
  Fe  Fe1       1.0  0.39692  0.30641  0.16491  1.0000
  S   S1        1.0  0.42882  0.26832  0.17013  1.0000
  S   S2        1.0  0.40316  0.34762  0.13862  1.0000
  Fe  Fe2       1.0  0.34712  0.27480  0.19720  1.0000
  S   S3        1.0  0.37420  0.23364  0.20486  1.0000
  S   S4        1.0  0.29820  0.27683  0.20868  1.0000
  Fe  Fe3       1.0  0.41233  0.26641  0.21404  1.0000
  S   S5        1.0  0.44555  0.26063  0.24963  1.0000
  Fe  Fe4       1.0  0.38810  0.23887  0.16056  1.0000
  S   S6        1.0  0.38929  0.20257  0.12821  1.0000
  S   S7        1.0  0.38410  0.30756  0.20988  1.0000
  S   S8        1.0  0.35735  0.27692  0.15199  1.0000
  H   H1        1.0  0.41583  0.11350  0.24672  1.0000
  H   H2        1.0  0.39632  0.07961  0.23864  1.0000
  H   H3        1.0  0.33044  0.08406  0.12759  1.0000
  H   H4        1.0  0.33579  0.05741  0.15510  1.0000
  H   H5        1.0  0.43647  0.15322  0.22900  1.0000
  Fe  Fe5       1.0  0.20691  0.10053  0.19619  1.0000
  S   S9        1.0  0.21874  0.05225  0.20079  1.0000
  S   S10       1.0  0.17322  0.12016  0.22545  1.0000
  Fe  Fe6       1.0  0.24546  0.10810  0.14559  1.0000
  S   S11       1.0  0.26051  0.06043  0.14536  1.0000
  S   S12       1.0  0.26015  0.13979  0.11223  1.0000
  Fe  Fe7       1.0  0.21181  0.04904  0.15434  1.0000
  C   C1        1.0  0.07416  0.06459  0.04517  1.0000
  Fe  Fe8       1.0  0.26609  0.06747  0.19147  1.0000
  S   S13       1.0  0.30812  0.05221  0.21415  1.0000
  S   S14       1.0  0.19596  0.09626  0.15037  1.0000
  S   S15       1.0  0.25501  0.11618  0.19118  1.0000
  C   C2        1.0  0.16699  0.29039  0.19773  1.0000
  S   S16       1.0  0.16467  0.25302  0.26932  1.0000
  H   H6        1.0  0.13243  0.17198  0.29274  1.0000
  H   H7        1.0  0.17252  0.30971  0.21178  1.0000
  C   C3        1.0  0.17459  0.15842  0.23416  1.0000
  C   C4        1.0  0.14898  0.17540  0.22802  1.0000
  C   C5        1.0  0.14679  0.20452  0.23854  1.0000
  C   C6        1.0  0.16968  0.21668  0.25614  1.0000
  C   C7        1.0  0.19576  0.20004  0.26205  1.0000
  C   C8        1.0  0.19835  0.17092  0.25076  1.0000
  H   H8        1.0  0.13033  0.16570  0.21569  1.0000
  H   H9        1.0  0.12669  0.21734  0.23382  1.0000
  H   H10       1.0  0.21373  0.20953  0.27533  1.0000
  H   H11       1.0  0.21800  0.15767  0.25592  1.0000
  H   H12       1.0  0.16151  0.05764  0.29699  1.0000
  H   H13       1.0  0.01929  0.99416  0.12727  1.0000
  C   C9        1.0  0.15696  0.02619  0.06075  1.0000
  C   C10       1.0  0.17167  0.02862  0.08703  1.0000
  H   H14       1.0  0.15638  0.04534  0.04716  1.0000
  H   H15       1.0  0.18226  0.04958  0.09371  1.0000
  H   H16       1.0  0.45208  0.30379  0.04422  1.0000
  C   C11       1.0  0.33184  0.06816  0.29459  1.0000
  C   C12       1.0  0.33267  0.05992  0.26640  1.0000
  C   C13       1.0  0.30631  0.06108  0.24962  1.0000
  C   C14       1.0  0.27890  0.06973  0.26120  1.0000
  C   C15       1.0  0.27781  0.07673  0.28967  1.0000
  H   H17       1.0  0.32757  0.44488  0.12180  1.0000
  H   H18       1.0  0.35379  0.05298  0.25751  1.0000
  H   H19       1.0  0.25845  0.07066  0.24834  1.0000
  H   H20       1.0  0.39349  0.26992  0.30006  1.0000
  C   C16       1.0  0.44378  0.22549  0.26562  1.0000
  C   C17       1.0  0.41616  0.21336  0.27461  1.0000
  C   C18       1.0  0.41576  0.18623  0.28921  1.0000
  C   C19       1.0  0.44259  0.17017  0.29303  1.0000
  C   C20       1.0  0.40932  0.09830  0.22907  1.0000
  H   H21       1.0  0.14787  0.27749  0.20685  1.0000
  H   H22       1.0  0.39528  0.22520  0.27079  1.0000
  H   H23       1.0  0.39458  0.17734  0.29681  1.0000
  H   H24       1.0  0.36743  0.11493  0.26557  1.0000
  C   C21       1.0  0.45887  0.07351  0.24252  1.0000
  C   C22       1.0  0.29147  0.29442  0.24063  1.0000
  C   C23       1.0  0.31429  0.31070  0.25527  1.0000
  C   C24       1.0  0.30766  0.32530  0.28044  1.0000
  C   C25       1.0  0.27859  0.32234  0.29150  1.0000
  C   C26       1.0  0.25585  0.30656  0.27648  1.0000
  C   C27       1.0  0.26224  0.29279  0.25114  1.0000
  H   H25       1.0  0.33694  0.31201  0.24733  1.0000
  H   H26       1.0  0.29384  0.98237  0.27117  1.0000
  H   H27       1.0  0.23318  0.30468  0.28439  1.0000
  H   H28       1.0  0.24452  0.28034  0.24002  1.0000
  C   C28       1.0  0.35344  0.18512  0.12415  1.0000
  C   C29       1.0  0.33714  0.17624  0.14743  1.0000
  C   C30       1.0  0.30930  0.16070  0.14386  1.0000
  C   C31       1.0  0.29661  0.15599  0.11712  1.0000
  C   C32       1.0  0.31256  0.16571  0.09391  1.0000
  C   C33       1.0  0.34129  0.17955  0.09738  1.0000
  H   H29       1.0  0.34632  0.18067  0.16817  1.0000
  H   H30       1.0  0.29754  0.15272  0.16179  1.0000
  H   H31       1.0  0.30286  0.16215  0.07319  1.0000
  H   H32       1.0  0.35379  0.18644  0.07932  1.0000
  H   H33       1.0  0.23726  0.13814  0.30554  1.0000
  C   C34       1.0  0.25012  0.39709  0.25757  1.0000
  H   H34       1.0  0.41721  0.34990  0.29298  1.0000
  C   C35       1.0  0.43956  0.35529  0.12551  1.0000
  C   C36       1.0  0.44112  0.18444  0.19596  1.0000
  H   H35       1.0  0.10075  0.99605  0.09949  1.0000
  N   N1        1.0  0.31044  0.38270  0.20026  1.0000
  H   H36       1.0  0.42280  0.38612  0.09472  1.0000
  H   H37       1.0  0.05961  0.06047  0.02623  1.0000
  C   C37       1.0  0.36069  0.12495  0.22112  1.0000
  H   H38       1.0  0.29863  0.39689  0.25987  1.0000
  N   N2        1.0  0.21497  0.22480  0.16817  1.0000
  C   C38       1.0  0.20288  0.19566  0.15569  1.0000
  C   C39       1.0  0.23397  0.21818  0.19390  1.0000
  C   C40       1.0  0.18783  0.24245  0.17727  1.0000
  C   C41       1.0  0.23310  0.24331  0.14794  1.0000
  C   C42       1.0  0.25133  0.22590  0.12579  1.0000
  C   C43       1.0  0.17831  0.19878  0.13219  1.0000
  C   C44       1.0  0.19490  0.27076  0.19532  1.0000
  C   C45       1.0  0.26310  0.20025  0.18936  1.0000
  C   C46       1.0  0.27853  0.19204  0.21695  1.0000
  C   C47       1.0  0.27521  0.24587  0.11229  1.0000
  C   C48       1.0  0.17312  0.16945  0.11608  1.0000
  H   H39       1.0  0.19263  0.18154  0.17221  1.0000
  H   H40       1.0  0.22135  0.18183  0.14743  1.0000
  H   H41       1.0  0.24205  0.23912  0.20448  1.0000
  H   H42       1.0  0.21986  0.20607  0.20918  1.0000
  H   H43       1.0  0.17220  0.22801  0.18949  1.0000
  H   H44       1.0  0.17429  0.24984  0.15879  1.0000
  H   H45       1.0  0.21806  0.25851  0.13588  1.0000
  H   H46       1.0  0.24929  0.25855  0.15966  1.0000
  H   H47       1.0  0.23579  0.21702  0.10901  1.0000
  H   H48       1.0  0.26335  0.20662  0.13462  1.0000
  H   H49       1.0  0.15624  0.20486  0.14133  1.0000
  H   H50       1.0  0.18471  0.21644  0.11725  1.0000
  H   H51       1.0  0.21373  0.28434  0.18663  1.0000
  H   H52       1.0  0.20131  0.26400  0.21682  1.0000
  H   H53       1.0  0.25784  0.17925  0.17791  1.0000
  H   H54       1.0  0.27984  0.21388  0.17778  1.0000
  H   H55       1.0  0.28531  0.21257  0.22886  1.0000
  H   H56       1.0  0.26318  0.17799  0.22961  1.0000
  H   H57       1.0  0.29926  0.17919  0.21256  1.0000
  H   H58       1.0  0.28676  0.23300  0.09581  1.0000
  H   H59       1.0  0.26450  0.26569  0.10268  1.0000
  H   H60       1.0  0.29273  0.25322  0.12806  1.0000
  H   H61       1.0  0.19445  0.16229  0.10620  1.0000
  H   H62       1.0  0.16512  0.15166  0.13027  1.0000
  H   H63       1.0  0.15553  0.17246  0.09942  1.0000
  H   H64       1.0  0.45521  0.18364  0.04121  1.0000
  H   H65       1.0  0.36819  0.30341  0.09845  1.0000
  C   C49       1.0  0.36937  0.38951  0.20314  1.0000
  C   C50       1.0  0.40147  0.29034  0.06819  1.0000
  H   H66       1.0  0.45315  0.10269  0.20777  1.0000
  H   H67       1.0  0.10691  0.04809  0.08990  1.0000
  H   H68       1.0  0.09790  0.05892  0.04005  1.0000
  H   H69       1.0  0.39511  0.40814  0.23891  1.0000
  H   H70       1.0  0.28584  0.22770  0.27835  1.0000
  C   C51       1.0  0.28214  0.34626  0.16599  1.0000
  H   H71       1.0  0.31376  0.26947  0.30174  1.0000
  H   H72       1.0  0.41793  0.39201  0.21208  1.0000
  C   C52       1.0  0.17206  0.00405  0.10482  1.0000
  H   H73       1.0  0.37283  0.37155  0.18759  1.0000
  C   C53       1.0  0.44271  0.37548  0.10349  1.0000
  H   H74       1.0  0.26637  0.33511  0.18058  1.0000
  H   H75       1.0  0.03904  0.05157  0.07269  1.0000
  H   H76       1.0  0.08110  0.08087  0.15473  1.0000
  H   H77       1.0  0.98670  0.02997  0.15264  1.0000
  C   C54       1.0  0.28950  0.98800  0.29331  1.0000
  H   H78       1.0  0.31431  0.43081  0.19649  1.0000
  C   C55       1.0  0.40679  0.32744  0.28894  1.0000
  H   H79       1.0  0.15982  0.29896  0.17700  1.0000
  C   C56       1.0  0.46539  0.34161  0.13671  1.0000
  H   H80       1.0  0.26565  0.31871  0.13121  1.0000
  H   H81       1.0  0.36286  0.26552  0.08495  1.0000
  H   H82       1.0  0.12616  0.09792  0.18372  1.0000
  H   H83       1.0  0.42480  0.31236  0.28162  1.0000
  H   H84       1.0  0.29698  0.30325  0.15064  1.0000
  C   C57       1.0  0.35664  0.10132  0.16321  1.0000
  H   H85       1.0  0.45101  0.20224  0.20985  1.0000
  H   H86       1.0  0.31923  0.33570  0.19427  1.0000
  H   H87       1.0  0.98423  0.05281  0.12168  1.0000
  H   H88       1.0  0.35290  0.29717  0.06380  1.0000
  C   C58       1.0  0.14223  0.99939  0.05239  1.0000
  C   C59       1.0  0.33393  0.14879  0.26196  1.0000
  H   H89       1.0  0.33556  0.15248  0.28483  1.0000
  H   H90       1.0  0.33084  0.17073  0.25181  1.0000
  H   H91       1.0  0.31390  0.13393  0.25723  1.0000
  H   H92       1.0  0.46007  0.17230  0.18631  1.0000
  H   H93       1.0  0.34257  0.10725  0.22052  1.0000
  H   H94       1.0  0.34331  0.40558  0.15423  1.0000
  C   C60       1.0  0.31940  0.41282  0.15455  1.0000
  C   C61       1.0  0.36315  0.13460  0.25218  1.0000
  C   C62       1.0  0.21541  0.03208  0.00057  1.0000
  C   C63       1.0  0.36941  0.28887  0.07966  1.0000
  H   H95       1.0  0.35236  0.06766  0.30729  1.0000
  H   H96       1.0  0.27054  0.36605  0.15730  1.0000
  H   H97       1.0  0.38194  0.15081  0.25570  1.0000
  H   H98       1.0  0.38896  0.32939  0.27233  1.0000
  C   C64       1.0  0.10355  0.07057  0.15162  1.0000
  H   H99       1.0  0.35104  0.14386  0.20905  1.0000
  H   H100      1.0  0.30630  0.39811  0.13970  1.0000
  H   H101      1.0  0.44837  0.25430  0.03335  1.0000
  C   C65       1.0  0.28081  0.40070  0.24354  1.0000
  C   C66       1.0  0.37717  0.28476  0.31045  1.0000
  H   H102      1.0  0.41468  0.17704  0.04131  1.0000
  H   H103      1.0  0.18620  0.15862  0.30301  1.0000
  C   C67       1.0  0.30435  0.07631  0.30629  1.0000
  H   H104      1.0  0.36995  0.41154  0.19276  1.0000
  H   H105      1.0  0.36989  0.07058  0.19586  1.0000
  H   H106      1.0  0.44632  0.05575  0.25376  1.0000
  N   N3        1.0  0.38935  0.11375  0.20777  1.0000
  C   C68       1.0  0.43941  0.08536  0.21834  1.0000
  H   H107      1.0  0.43478  0.06644  0.20366  1.0000
  H   H108      1.0  0.33566  0.10983  0.17264  1.0000
  H   H109      1.0  0.11580  0.08337  0.13547  1.0000
  H   H110      1.0  0.40385  0.17645  0.22293  1.0000
  H   H111      1.0  0.42732  0.19525  0.17937  1.0000
  H   H112      1.0  0.26197  0.37815  0.20710  1.0000
  H   H113      1.0  0.16674  0.11255  0.28856  1.0000
  C   C69       1.0  0.37989  0.09076  0.18579  1.0000
  C   C70       1.0  0.30940  0.22474  0.28662  1.0000
  C   C71       1.0  0.18716  0.09975  0.29481  1.0000
  C   C72       1.0  0.98751  0.02976  0.12951  1.0000
  C   C73       1.0  0.40608  0.13888  0.19358  1.0000
  C   C74       1.0  0.34699  0.07573  0.14345  1.0000
  H   H114      1.0  0.39991  0.08289  0.17427  1.0000
  H   H115      1.0  0.39039  0.15111  0.17941  1.0000
  H   H116      1.0  0.36677  0.11922  0.15035  1.0000
  H   H117      1.0  0.23114  0.40193  0.24270  1.0000
  C   C75       1.0  0.10009  0.03729  0.14254  1.0000
  C   C76       1.0  0.31225  0.35534  0.18172  1.0000
  C   C77       1.0  0.12207  0.07384  0.17886  1.0000
  H   H118      1.0  0.14442  0.06284  0.17712  1.0000
  H   H119      1.0  0.32550  0.22884  0.26950  1.0000
  H   H120      1.0  0.36695  0.06684  0.13254  1.0000
  H   H121      1.0  0.34096  0.36495  0.23168  1.0000
  H   H122      1.0  0.20176  0.05357  0.29061  1.0000
  H   H123      1.0  0.12288  0.02998  0.13566  1.0000
  C   C78       1.0  0.45347  0.24510  0.05442  1.0000
  H   H124      1.0  0.33797  0.40459  0.23284  1.0000
  C   C79       1.0  0.42144  0.16300  0.21278  1.0000
  H   H125      1.0  0.42359  0.12983  0.17958  1.0000
  C   C80       1.0  0.42911  0.22002  0.05874  1.0000
  C   C81       1.0  0.31833  0.44458  0.14315  1.0000
  C   C82       1.0  0.39649  0.38939  0.22368  1.0000
  C   C83       1.0  0.08265  0.05031  0.09574  1.0000
  H   H126      1.0  0.07320  0.08869  0.05082  1.0000
  C   C84       1.0  0.01778  0.01753  0.11986  1.0000
  H   H127      1.0  0.19913  0.99632  0.02559  1.0000
  H   H128      1.0  0.06343  0.02166  0.06154  1.0000
  H   H129      1.0  0.09542  0.02438  0.16174  1.0000
  S   S17       1.0  0.18720  0.00695  0.13900  1.0000
  H   H130      1.0  0.28298  0.42400  0.23601  1.0000
  H   H131      1.0  0.46521  0.09190  0.25743  1.0000
  H   H132      1.0  0.46568  0.31754  0.07706  1.0000
  C   C85       1.0  0.21210  0.99862  0.00615  1.0000
  H   H133      1.0  0.41504  0.25673  0.09834  1.0000
  H   H134      1.0  0.40583  0.22873  0.05554  1.0000
  C   C86       1.0  0.28755  0.32423  0.14222  1.0000
  H   H135      1.0  0.01704  0.01679  0.09683  1.0000
  H   H136      1.0  0.24717  0.37400  0.26556  1.0000
  H   H137      1.0  0.04511  0.03294  0.15474  1.0000
  C   C87       1.0  0.42532  0.27679  0.08866  1.0000
  H   H138      1.0  0.31172  0.20151  0.29396  1.0000
  C   C88       1.0  0.18136  0.06717  0.28604  1.0000
  C   C89       1.0  0.43274  0.19425  0.03804  1.0000
  H   H139      1.0  0.03956  0.06057  0.12915  1.0000
  S   S18       1.0  0.44250  0.13458  0.30834  1.0000
  H   H140      1.0  0.48009  0.06394  0.23441  1.0000
  H   H141      1.0  0.30354  0.33391  0.12701  1.0000
  C   C90       1.0  0.28384  0.37788  0.21926  1.0000
  H   H142      1.0  0.28469  0.35533  0.22873  1.0000
  H   H143      1.0  0.39736  0.36797  0.23511  1.0000
  H   H144      1.0  0.28084  0.41540  0.18083  1.0000
  H   H145      1.0  0.33043  0.35774  0.16623  1.0000
  C   C91       1.0  0.30557  0.41117  0.18407  1.0000
  C   C92       1.0  0.33900  0.38513  0.21834  1.0000
  H   H146      1.0  0.20659  0.10820  0.28273  1.0000
  C   C93       1.0  0.04509  0.03653  0.13179  1.0000
  H   H147      1.0  0.07985  0.07423  0.10148  1.0000
  C   C94       1.0  0.46700  0.29816  0.06242  1.0000
  H   H148      1.0  0.42846  0.29305  0.10628  1.0000
  H   H149      1.0  0.33535  0.00350  0.30010  1.0000
  H   H150      1.0  0.46324  0.32623  0.15383  1.0000
  C   C95       1.0  0.06284  0.04517  0.06896  1.0000
  C   C96       1.0  0.46995  0.18194  0.28323  1.0000
  H   H151      1.0  0.22702  0.04334  0.01872  1.0000
  H   H152      1.0  0.29453  0.45253  0.14206  1.0000
  C   C97       1.0  0.07963  0.99819  0.11128  1.0000
  N   N4        1.0  0.07608  0.03035  0.12020  1.0000
  S   S19       1.0  0.12217  0.99760  0.02028  1.0000
  H   H153      1.0  0.44854  0.23258  0.12354  1.0000
  C   C98       1.0  0.47067  0.20988  0.27028  1.0000
  C   C99       1.0  0.31569  0.24689  0.31050  1.0000
  H   H154      1.0  0.25646  0.08267  0.29867  1.0000
  H   H155      1.0  0.10962  0.06369  0.19638  1.0000
  C   C100      1.0  0.47150  0.38182  0.09258  1.0000
  N   N5        1.0  0.45563  0.26991  0.07610  1.0000
  H   H156      1.0  0.32528  0.33772  0.29187  1.0000
  H   H157      1.0  0.06143  0.99078  0.09628  1.0000
  H   H158      1.0  0.27933  0.01055  0.29400  1.0000
  H   H159      1.0  0.35925  0.28827  0.29421  1.0000
  H   H160      1.0  0.40711  0.31433  0.06470  1.0000
  C   C101      1.0  0.39301  0.31550  0.31565  1.0000
  H   H161      1.0  0.47597  0.23430  0.05249  1.0000
  H   H162      1.0  0.19265  0.04217  0.99755  1.0000
  C   C102      1.0  0.47183  0.23340  0.11545  1.0000
  H   H163      1.0  0.43059  0.20233  0.01627  1.0000
  C   C103      1.0  0.47806  0.26249  0.09924  1.0000
  H   H164      1.0  0.17644  0.06591  0.26324  1.0000
  H   H165      1.0  0.43025  0.21061  0.07992  1.0000
  H   H166      1.0  0.24902  0.41288  0.27551  1.0000
  H   H167      1.0  0.47512  0.21366  0.10173  1.0000
  H   H168      1.0  0.29361  0.15946  0.31873  1.0000
  H   H169      1.0  0.40119  0.27871  0.04767  1.0000
  H   H170      1.0  0.47990  0.28147  0.11448  1.0000
  C   C104      1.0  0.31939  0.98771  0.31024  1.0000
  Fe  Fe9       1.0  0.18301  0.26801  0.31157  1.0000
  H   H171      1.0  0.23502  0.98969  0.01019  1.0000
  H   H172      1.0  0.36149  0.22893  0.31115  1.0000
  S   S20       1.0  0.48166  0.47258  0.99078  1.0000
  H   H173      1.0  0.33239  0.46010  0.15653  1.0000
  H   H174      1.0  0.47373  0.39726  0.07548  1.0000
  C   C105      1.0  0.13125  0.17730  0.31535  1.0000
  S   S21       1.0  0.18364  0.31764  0.31920  1.0000
  H   H175      1.0  0.14014  0.20044  0.31908  1.0000
  Fe  Fe10      1.0  0.40127  0.09462  0.39768  1.0000
  S   S22       1.0  0.35466  0.11337  0.40285  1.0000
  Fe  Fe11      1.0  0.37486  0.15676  0.38916  1.0000
  S   S23       1.0  0.36259  0.20136  0.40726  1.0000
  S   S24       1.0  0.42251  0.13940  0.38786  1.0000
  H   H176      1.0  0.11414  0.40613  0.59681  1.0000
  H   H177      1.0  0.46333  0.05682  0.39179  1.0000
  Fe  Fe12      1.0  0.20851  0.25565  0.36990  1.0000
  S   S25       1.0  0.16104  0.25817  0.35218  1.0000
  S   S26       1.0  0.22025  0.21885  0.39962  1.0000
  H   H178      1.0  0.42854  0.15917  0.47013  1.0000
  Fe  Fe13      1.0  0.16592  0.30738  0.36157  1.0000
  S   S27       1.0  0.12412  0.32819  0.37994  1.0000
  S   S28       1.0  0.21241  0.30419  0.38175  1.0000
  Fe  Fe14      1.0  0.08954  0.44234  0.49928  1.0000
  S   S29       1.0  0.04322  0.44974  0.47997  1.0000
  S   S30       1.0  0.13072  0.42550  0.47679  1.0000
  H   H179      1.0  0.42956  0.02276  0.33528  1.0000
  H   H180      1.0  0.46184  0.15331  0.44968  1.0000
  H   H181      1.0  0.30842  0.32035  0.38918  1.0000
  Fe  Fe15      1.0  0.02593  0.43541  0.52169  1.0000
  H   H182      1.0  0.24309  0.17603  0.35872  1.0000
  C   C106      1.0  0.25040  0.16903  0.33793  1.0000
  H   H183      1.0  0.37074  0.02236  0.33573  1.0000
  S   S31       1.0  0.07201  0.42409  0.53967  1.0000
  C   C107      1.0  0.03875  0.47537  0.34279  1.0000
  H   H184      1.0  0.37626  0.33214  0.32250  1.0000
  C   C108      1.0  0.35364  0.31042  0.37408  1.0000
  S   S32       1.0  0.41393  0.06144  0.43121  1.0000
  C   C109      1.0  0.34139  0.29019  0.34964  1.0000
  Fe  Fe16      1.0  0.07403  0.47201  0.55442  1.0000
  C   C110      1.0  0.38847  0.26066  0.35607  1.0000
  H   H185      1.0  0.30865  0.00102  0.41383  1.0000
  C   C111      1.0  0.43501  0.22993  0.36818  1.0000
  H   H186      1.0  0.33826  0.34568  0.40152  1.0000
  H   H187      1.0  0.02644  0.37572  0.55387  1.0000
  C   C112      1.0  0.12645  0.35542  0.40665  1.0000
  C   C113      1.0  0.15372  0.37053  0.41346  1.0000
  C   C114      1.0  0.15462  0.39216  0.43492  1.0000
  C   C115      1.0  0.12826  0.39894  0.44951  1.0000
  C   C116      1.0  0.10094  0.38398  0.44256  1.0000
  C   C117      1.0  0.10010  0.36221  0.42122  1.0000
  H   H188      1.0  0.17407  0.36561  0.40217  1.0000
  H   H189      1.0  0.17583  0.40371  0.44026  1.0000
  H   H190      1.0  0.08056  0.38895  0.45381  1.0000
  H   H191      1.0  0.07900  0.35043  0.41603  1.0000
  C   C118      1.0  0.32303  0.20649  0.40709  1.0000
  C   C119      1.0  0.30304  0.18239  0.41117  1.0000
  C   C120      1.0  0.27153  0.18676  0.41028  1.0000
  C   C121      1.0  0.25981  0.21480  0.40369  1.0000
  C   C122      1.0  0.27978  0.23899  0.39976  1.0000
  C   C123      1.0  0.31133  0.23497  0.40243  1.0000
  H   H192      1.0  0.31183  0.16048  0.41545  1.0000
  H   H193      1.0  0.25623  0.16820  0.41387  1.0000
  H   H194      1.0  0.27091  0.26085  0.39513  1.0000
  H   H195      1.0  0.32675  0.25377  0.40059  1.0000
  H   H196      1.0  0.45031  0.21239  0.36031  1.0000
  Fe  Fe17      1.0  0.34793  0.10366  0.35741  1.0000
  N   N6        1.0  0.16041  0.29627  0.47230  1.0000
  C   C124      1.0  0.18664  0.30555  0.45436  1.0000
  C   C125      1.0  0.13447  0.28360  0.45427  1.0000
  C   C126      1.0  0.14923  0.32411  0.48672  1.0000
  C   C127      1.0  0.16990  0.27444  0.49453  1.0000
  C   C128      1.0  0.18513  0.24537  0.48461  1.0000
  C   C129      1.0  0.21446  0.32041  0.46983  1.0000
  C   C130      1.0  0.11922  0.32061  0.50300  1.0000
  C   C131      1.0  0.14277  0.26468  0.42831  1.0000
  C   C132      1.0  0.11453  0.24912  0.41537  1.0000
  C   C133      1.0  0.19862  0.22827  0.50928  1.0000
  C   C134      1.0  0.24027  0.32672  0.44983  1.0000
  C   C135      1.0  0.11080  0.35003  0.51711  1.0000
  H   H197      1.0  0.17854  0.32142  0.43820  1.0000
  H   H198      1.0  0.19537  0.28634  0.44237  1.0000
  H   H199      1.0  0.11872  0.27002  0.46711  1.0000
  H   H200      1.0  0.12052  0.30209  0.44555  1.0000
  H   H201      1.0  0.14566  0.34219  0.47124  1.0000
  H   H202      1.0  0.16661  0.33301  0.50200  1.0000
  H   H203      1.0  0.18532  0.28567  0.51026  1.0000
  H   H204      1.0  0.14988  0.26695  0.50649  1.0000
  H   H205      1.0  0.20388  0.24974  0.47011  1.0000
  H   H206      1.0  0.16785  0.23033  0.47438  1.0000
  H   H207      1.0  0.20831  0.34218  0.47923  1.0000
  H   H208      1.0  0.22350  0.30569  0.48642  1.0000
  H   H209      1.0  0.12145  0.30368  0.51960  1.0000
  H   H210      1.0  0.09989  0.31390  0.48888  1.0000
  H   H211      1.0  0.15252  0.27947  0.41225  1.0000
  H   H212      1.0  0.15975  0.24743  0.43299  1.0000
  H   H213      1.0  0.09786  0.26597  0.40820  1.0000
  H   H214      1.0  0.12104  0.23546  0.39711  1.0000
  H   H215      1.0  0.10371  0.23405  0.43064  1.0000
  H   H216      1.0  0.21690  0.24178  0.52001  1.0000
  H   H217      1.0  0.18071  0.22255  0.52439  1.0000
  H   H218      1.0  0.20866  0.20717  0.50166  1.0000
  H   H219      1.0  0.24805  0.30561  0.44012  1.0000
  H   H220      1.0  0.23269  0.34228  0.43324  1.0000
  H   H221      1.0  0.25985  0.33731  0.46142  1.0000
  H   H222      1.0  0.12917  0.35784  0.53186  1.0000
  H   H223      1.0  0.10677  0.36759  0.50134  1.0000
  H   H224      1.0  0.08958  0.34685  0.52892  1.0000
  C   C136      1.0  0.01935  0.42856  0.62038  1.0000
  S   S33       1.0  0.39289  0.08152  0.35297  1.0000
  H   H225      1.0  0.06767  0.36362  0.62364  1.0000
  C   C137      1.0  0.18383  0.15739  0.32586  1.0000
  C   C138      1.0  0.06912  0.41113  0.63666  1.0000
  C   C139      1.0  0.45809  0.12448  0.48602  1.0000
  H   H226      1.0  0.01725  0.41161  0.60340  1.0000
  H   H227      1.0  0.11995  0.41408  0.37595  1.0000
  C   C140      1.0  0.21786  0.11202  0.41563  1.0000
  C   C141      1.0  0.07386  0.38577  0.61500  1.0000
  H   H228      1.0  0.32402  0.34814  0.36611  1.0000
  H   H229      1.0  0.03216  0.44752  0.61105  1.0000
  H   H230      1.0  0.30689  0.02104  0.33942  1.0000
  C   C142      1.0  0.44361  0.01918  0.53460  1.0000
  H   H231      1.0  0.35779  0.01969  0.39846  1.0000
  C   C143      1.0  0.22532  0.11452  0.38479  1.0000
  H   H232      1.0  0.44965  0.99967  0.35988  1.0000
  C   C144      1.0  0.01745  0.39577  0.40016  1.0000
  H   H233      1.0  0.24826  0.12511  0.38342  1.0000
  H   H234      1.0  0.32237  0.27694  0.35852  1.0000
  H   H235      1.0  0.07541  0.41432  0.39643  1.0000
  H   H236      1.0  0.23646  0.10026  0.42684  1.0000
  H   H237      1.0  0.39870  0.21529  0.34089  1.0000
  H   H238      1.0  0.28857  0.01891  0.38558  1.0000
  C   C145      1.0  0.34703  0.24190  0.32547  1.0000
  H   H239      1.0  0.35968  0.29658  0.39242  1.0000
  H   H240      1.0  0.10703  0.17632  0.32136  1.0000
  H   H241      1.0  0.47420  0.01567  0.50089  1.0000
  S   S34       1.0  0.36427  0.14871  0.34383  1.0000
  C   C146      1.0  0.30913  0.02027  0.39941  1.0000
  H   H242      1.0  0.37781  0.25156  0.37507  1.0000
  H   H243      1.0  0.21553  0.13454  0.42523  1.0000
  H   H244      1.0  0.40250  0.28017  0.36332  1.0000
  H   H245      1.0  0.28661  0.04700  0.43051  1.0000
  C   C147      1.0  0.00448  0.37009  0.56217  1.0000
  Fe  Fe18      1.0  0.22977  0.30965  0.33831  1.0000
  H   H246      1.0  0.19631  0.09910  0.41815  1.0000
  H   H247      1.0  0.05998  0.38930  0.59582  1.0000
  C   C148      1.0  0.32955  0.33246  0.38323  1.0000
  H   H248      1.0  0.42421  0.22150  0.38734  1.0000
  C   C149      1.0  0.02913  0.42812  0.39910  1.0000
  H   H249      1.0  0.33014  0.30481  0.33404  1.0000
  H   H250      1.0  0.09629  0.45199  0.42412  1.0000
  H   H251      1.0  0.40217  0.01836  0.37948  1.0000
  C   C150      1.0  0.44666  0.01293  0.44702  1.0000
  H   H252      1.0  0.99468  0.39493  0.40956  1.0000
  H   H253      1.0  0.03302  0.38209  0.41316  1.0000
  C   C151      1.0  0.47105  0.03093  0.51885  1.0000
  C   C152      1.0  0.46538  0.03908  0.40686  1.0000
  H   H254      1.0  0.22645  0.09153  0.37610  1.0000
  H   H255      1.0  0.01547  0.38588  0.37886  1.0000
  C   C153      1.0  0.30682  0.04866  0.41713  1.0000
  H   H256      1.0  0.47080  0.08930  0.45719  1.0000
  H   H257      1.0  0.46937  0.14091  0.50052  1.0000
  H   H258      1.0  0.42304  0.24434  0.32716  1.0000
  Fe  Fe19      1.0  0.41004  0.12778  0.34329  1.0000
  H   H259      1.0  0.34119  0.04247  0.37231  1.0000
  H   H260      1.0  0.10985  0.36642  0.59088  1.0000
  S   S35       1.0  0.27097  0.33585  0.32497  1.0000
  H   H261      1.0  0.05764  0.41967  0.36361  1.0000
  S   S36       1.0  0.30287  0.08522  0.34180  1.0000
  H   H262      1.0  0.02705  0.45323  0.34263  1.0000
  C   C154      1.0  0.33894  0.02035  0.38261  1.0000
  H   H263      1.0  0.44748  0.06093  0.49220  1.0000
  H   H264      1.0  0.42277  0.01948  0.52104  1.0000
  C   C155      1.0  0.47143  0.99354  0.44631  1.0000
  H   H265      1.0  0.03101  0.43673  0.42077  1.0000
  H   H266      1.0  0.17243  0.09470  0.33716  1.0000
  N   N7        1.0  0.03671  0.41612  0.64507  1.0000
  H   H267      1.0  0.42989  0.01030  0.46299  1.0000
  H   H268      1.0  0.12215  0.38030  0.62481  1.0000
  H   H269      1.0  0.20275  0.15655  0.37742  1.0000
  H   H270      1.0  0.17849  0.12499  0.37499  1.0000
  C   C156      1.0  0.20135  0.13333  0.36885  1.0000
  H   H271      1.0  0.19169  0.17972  0.33397  1.0000
  H   H272      1.0  0.01178  0.44128  0.38769  1.0000
  H   H273      1.0  0.02253  0.33919  0.59227  1.0000
  C   C157      1.0  0.41087  0.23669  0.34580  1.0000
  C   C158      1.0  0.02144  0.38728  0.65361  1.0000
  C   C159      1.0  0.44380  0.03602  0.42763  1.0000
  N   N8        1.0  0.20352  0.13309  0.33750  1.0000
  H   H274      1.0  0.14609  0.15972  0.35482  1.0000
  S   S37       1.0  0.23011  0.26048  0.32837  1.0000
  C   C160      1.0  0.10709  0.38466  0.60644  1.0000
  C   C161      1.0  0.31463  0.99752  0.34097  1.0000
  H   H275      1.0  0.32743  0.05190  0.43076  1.0000
  H   H276      1.0  0.43035  0.12661  0.44804  1.0000
  C   C162      1.0  0.06035  0.42982  0.38483  1.0000
  H   H277      1.0  0.44005  0.03290  0.55362  1.0000
  H   H278      1.0  0.25054  0.12027  0.33570  1.0000
  H   H279      1.0  0.37417  0.32344  0.36845  1.0000
  H   H280      1.0  0.30408  0.06841  0.40353  1.0000
  C   C163      1.0  0.00221  0.34939  0.58387  1.0000
  H   H281      1.0  0.44761  0.99572  0.54100  1.0000
  H   H282      1.0  0.44890  0.25028  0.37338  1.0000
  H   H283      1.0  0.45643  0.07638  0.52568  1.0000
  C   C164      1.0  0.42880  0.00115  0.34651  1.0000
  C   C165      1.0  0.44399  0.14196  0.46193  1.0000
  H   H284      1.0  0.43909  0.11343  0.49695  1.0000
  N   N9        1.0  0.36383  0.26989  0.33559  1.0000
  H   H285      1.0  0.41163  0.31402  0.33152  1.0000
  H   H286      1.0  0.29499  0.18991  0.34398  1.0000
  C   C166      1.0  0.46616  0.06321  0.50831  1.0000
  H   H287      1.0  0.29729  0.24439  0.32584  1.0000
  H   H288      1.0  0.34262  0.22665  0.34327  1.0000
  H   H289      1.0  0.98565  0.45499  0.64331  1.0000
  C   C167      1.0  0.14956  0.15484  0.33238  1.0000
  H   H290      1.0  0.07880  0.43184  0.62753  1.0000
  C   C168      1.0  0.23575  0.13870  0.32860  1.0000
  H   H291      1.0  0.01845  0.37183  0.63547  1.0000
  H   H292      1.0  0.29257  0.15190  0.35557  1.0000
  C   C169      1.0  0.28504  0.16747  0.33899  1.0000
  C   C170      1.0  0.12811  0.43768  0.37561  1.0000
  H   H293      1.0  0.14848  0.43172  0.33497  1.0000
  C   C171      1.0  0.37105  0.00035  0.34638  1.0000
  N   N10       1.0  0.34152  0.99547  0.36127  1.0000
  H   H294      1.0  0.17311  0.42356  0.36434  1.0000
  C   C172      1.0  0.40068  0.99926  0.36459  1.0000
  C   C173      1.0  0.48150  0.10163  0.47533  1.0000
  H   H295      1.0  0.14007  0.13224  0.32751  1.0000
  H   H296      1.0  0.09530  0.44976  0.34407  1.0000
  C   C174      1.0  0.15534  0.43893  0.35646  1.0000
  N   N11       1.0  0.07520  0.46041  0.38354  1.0000
  H   H297      1.0  0.03486  0.48040  0.64679  1.0000
  H   H298      1.0  0.13643  0.44401  0.39688  1.0000
  H   H299      1.0  0.29465  0.98476  0.34877  1.0000
  H   H300      1.0  0.05620  0.47526  0.32646  1.0000
  H   H301      1.0  0.24365  0.18675  0.32301  1.0000
  C   C175      1.0  0.19339  0.10256  0.32672  1.0000
  H   H302      1.0  0.21083  0.08570  0.33216  1.0000
  H   H303      1.0  0.42882  0.98240  0.33117  1.0000
  H   H304      1.0  0.37362  0.98367  0.32942  1.0000
  C   C176      1.0  0.08452  0.47023  0.41275  1.0000
  H   H305      1.0  0.16524  0.46193  0.35602  1.0000
  C   C177      1.0  0.10238  0.45844  0.36508  1.0000
  H   H306      1.0  0.06407  0.47478  0.42515  1.0000
  C   C178      1.0  0.98642  0.43868  0.62584  1.0000
  H   H307      1.0  0.98594  0.47414  0.59492  1.0000
  H   H308      1.0  0.02538  0.32504  0.66364  1.0000
  H   H309      1.0  0.20529  0.98935  0.96180  1.0000
  H   H310      1.0  0.08404  0.40678  0.65518  1.0000
  H   H311      1.0  0.46595  0.39480  0.93328  1.0000
  C   C179      1.0  0.03741  0.37026  0.67774  1.0000
  C   C180      1.0  0.03710  0.43756  0.66953  1.0000
  H   H312      1.0  0.05215  0.42915  0.68658  1.0000
  H   H313      1.0  0.22914  0.03603  0.98178  1.0000
  C   C181      1.0  0.02227  0.33972  0.68213  1.0000
  H   H314      1.0  0.03591  0.38308  0.69756  1.0000
  H   H315      1.0  0.03277  0.32877  0.70057  1.0000
  C   C182      1.0  0.98499  0.99992  0.87208  1.0000
  H   H316      1.0  0.01800  0.04796  0.93077  1.0000
  H   H317      1.0  0.99790  0.39141  0.66051  1.0000
  H   H318      1.0  0.02437  0.01565  0.84912  1.0000
  C   C183      1.0  0.04861  0.46981  0.66353  1.0000
  C   C184      1.0  0.99886  0.01395  0.95695  1.0000
  H   H319      1.0  0.02069  0.00483  0.96257  1.0000
  H   H320      1.0  0.07270  0.46967  0.65721  1.0000
  C   C185      1.0  0.01500  0.01750  0.87034  1.0000
  H   H321      1.0  0.06171  0.36640  0.67359  1.0000
  C   C186      1.0  0.99730  0.03853  0.93902  1.0000
  H   H322      1.0  0.17178  0.99203  0.98155  1.0000
  H   H323      1.0  0.03182  0.00847  0.88556  1.0000
  H   H324      1.0  0.99752  0.34201  0.68566  1.0000
  H   H325      1.0  0.01417  0.43873  0.67878  1.0000
  C   C187      1.0  0.19492  0.98219  0.98167  1.0000
  H   H326      1.0  0.01170  0.04148  0.87546  1.0000
  H   H327      1.0  0.06128  0.48067  0.70673  1.0000
  Fe  Fe20      1.0  0.05135  0.90904  0.03911  1.0000
  H   H328      1.0  0.20813  0.94633  0.02606  1.0000
  H   H329      1.0  0.06816  0.74772  0.03943  1.0000
  H   H330      1.0  0.16634  0.89445  0.00579  1.0000
  S   S38       1.0  0.09650  0.91177  0.01813  1.0000
  H   H331      1.0  0.06133  0.82718  0.01815  1.0000
  H   H332      1.0  0.01307  0.85014  0.03431  1.0000
  C   C188      1.0  0.10662  0.80987  0.02670  1.0000
  H   H333      1.0  0.24998  0.93308  0.00619  1.0000
  H   H334      1.0  0.36038  0.59400  0.02219  1.0000
  H   H335      1.0  0.36625  0.65728  0.99104  1.0000
  H   H336      1.0  0.15880  0.95781  0.10963  1.0000
  H   H337      1.0  0.13230  0.95379  0.06346  1.0000
  H   H338      1.0  0.09680  0.93862  0.10861  1.0000
  H   H339      1.0  0.09544  0.84668  0.05468  1.0000
  C   C189      1.0  0.18320  0.89683  0.04777  1.0000
  H   H340      1.0  0.12390  0.85559  0.02913  1.0000
  H   H341      1.0  0.02901  0.74047  0.07486  1.0000
  C   C190      1.0  0.18895  0.93827  0.01243  1.0000
  S   S39       1.0  0.04451  0.88346  0.07882  1.0000
  H   H342      1.0  0.32882  0.96502  0.30868  1.0000
  S   S40       1.0  0.04419  0.95862  0.03899  1.0000
  H   H343      1.0  0.13361  0.83320  0.05875  1.0000
  H   H344      1.0  0.09988  0.75645  0.00639  1.0000
  C   C191      1.0  0.11525  0.83816  0.04327  1.0000
  H   H345      1.0  0.00514  0.49301  0.31363  1.0000
  H   H346      1.0  0.05614  0.93935  0.11295  1.0000
  C   C192      1.0  0.38234  0.60644  0.02055  1.0000
  C   C193      1.0  0.38796  0.61479  0.99028  1.0000
  C   C194      1.0  0.00372  0.84346  0.05390  1.0000
  H   H347      1.0  0.41071  0.62587  0.98969  1.0000
  H   H348      1.0  0.38201  0.62681  0.03397  1.0000
  Fe  Fe21      1.0  0.08692  0.96066  0.01439  1.0000
  H   H349      1.0  0.05490  0.78289  0.05334  1.0000
  C   C195      1.0  0.01544  0.85583  0.07884  1.0000
  H   H350      1.0  0.00224  0.76163  0.05459  1.0000
  C   C196      1.0  0.07888  0.81479  0.00657  1.0000
  H   H351      1.0  0.12688  0.80351  0.01480  1.0000
  H   H352      1.0  0.10232  0.79195  0.04184  1.0000
  H   H353      1.0  0.40085  0.59186  0.02829  1.0000
  H   H354      1.0  0.01266  0.85570  0.12362  1.0000
  H   H355      1.0  0.08057  0.92690  0.14095  1.0000
  H   H356      1.0  0.00306  0.94234  0.10313  1.0000
  C   C197      1.0  0.02232  0.74698  0.05332  1.0000
  C   C198      1.0  0.00352  0.84640  0.10422  1.0000
  H   H357      1.0  0.20711  0.89270  0.00952  1.0000
  C   C199      1.0  0.18652  0.90406  0.01691  1.0000
  C   C200      1.0  0.04889  0.76333  0.03975  1.0000
  H   H358      1.0  0.18201  0.87221  0.05045  1.0000
  H   H359      1.0  0.27305  0.97134  0.30148  1.0000
  H   H360      1.0  0.02211  0.79102  0.01407  1.0000
  H   H361      1.0  0.20300  0.90582  0.06021  1.0000
  H   H362      1.0  0.02811  0.75522  0.99876  1.0000
  C   C201      1.0  0.07853  0.94308  0.12363  1.0000
  H   H363      1.0  0.16834  0.94851  0.02127  1.0000
  H   H364      1.0  0.01579  0.72641  0.04133  1.0000
  H   H365      1.0  0.16200  0.90651  0.05584  1.0000
  S   S41       1.0  0.02420  0.90064  0.99976  1.0000
  C   C202      1.0  0.14356  0.97453  0.06977  1.0000
  H   H366      1.0  0.98654  0.91448  0.06119  1.0000
  Fe  Fe22      1.0  0.02034  0.95051  0.99767  1.0000
  C   C203      1.0  0.03978  0.77414  0.01022  1.0000
  H   H367      1.0  0.98699  0.96733  0.07769  1.0000
  C   C204      1.0  0.15852  0.97687  0.09590  1.0000
  C   C205      1.0  0.08135  0.97502  0.13508  1.0000
  H   H368      1.0  0.10375  0.97698  0.14626  1.0000
  H   H369      1.0  0.08685  0.83092  0.99070  1.0000
  N   N12       1.0  0.06480  0.78715  0.99272  1.0000
  H   H370      1.0  0.06318  0.97858  0.15034  1.0000
  H   H371      1.0  0.15163  0.75470  0.98778  1.0000
  H   H372      1.0  0.10115  0.69992  0.57970  1.0000
  H   H373      1.0  0.12820  0.56769  0.58778  1.0000
  C   C206      1.0  0.11529  0.58858  0.58419  1.0000
  H   H374      1.0  0.13614  0.67075  0.62830  1.0000
  H   H375      1.0  0.07636  0.57277  0.53825  1.0000
  S   S42       1.0  0.02666  0.48182  0.53957  1.0000
  H   H376      1.0  0.47892  0.90966  0.34670  1.0000
  H   H377      1.0  0.08740  0.64280  0.60589  1.0000
  H   H378      1.0  0.09023  0.51205  0.45630  1.0000
  H   H379      1.0  0.39226  0.62215  0.65277  1.0000
  H   H380      1.0  0.36745  0.91243  0.39290  1.0000
  H   H381      1.0  0.44060  0.86949  0.63059  1.0000
  S   S43       1.0  0.21394  0.55073  0.62119  1.0000
  C   C207      1.0  0.12906  0.51555  0.63166  1.0000
  H   H382      1.0  0.03513  0.48766  0.38653  1.0000
  C   C208      1.0  0.34835  0.91014  0.37738  1.0000
  H   H383      1.0  0.35221  0.89001  0.36429  1.0000
  C   C209      1.0  0.00921  0.53928  0.45066  1.0000
  S   S44       1.0  0.08581  0.48669  0.59867  1.0000
  H   H384      1.0  0.42462  0.80379  0.56990  1.0000
  H   H385      1.0  0.12376  0.48899  0.45637  1.0000
  H   H386      1.0  0.44871  0.76001  0.59571  1.0000
  H   H387      1.0  0.46819  0.66340  0.62650  1.0000
  C   C210      1.0  0.12196  0.50327  0.60521  1.0000
  C   C211      1.0  0.00350  0.51311  0.43519  1.0000
  H   H388      1.0  0.02564  0.52129  0.33383  1.0000
  H   H389      1.0  0.08713  0.53996  0.55768  1.0000
  C   C212      1.0  0.46088  0.87328  0.61868  1.0000
  H   H390      1.0  0.43389  0.68507  0.62659  1.0000
  C   C213      1.0  0.45959  0.89059  0.59439  1.0000
  C   C214      1.0  0.05359  0.48312  0.37168  1.0000
  H   H391      1.0  0.11253  0.51428  0.64795  1.0000
  C   C215      1.0  0.11170  0.50731  0.44551  1.0000
  H   H392      1.0  0.46783  0.72919  0.63130  1.0000
  C   C216      1.0  0.17427  0.61755  0.57714  1.0000
  C   C217      1.0  0.08100  0.57974  0.58335  1.0000
  H   H393      1.0  0.43973  0.65824  0.59907  1.0000
  H   H394      1.0  0.47361  0.97602  0.46159  1.0000
  C   C218      1.0  0.07289  0.56022  0.55782  1.0000
  H   H395      1.0  0.12094  0.59582  0.56277  1.0000
  H   H396      1.0  0.10736  0.64298  0.57443  1.0000
  C   C219      1.0  0.12836  0.67078  0.60623  1.0000
  N   N13       1.0  0.12509  0.61229  0.60542  1.0000
  H   H397      1.0  0.17341  0.59579  0.56572  1.0000
  H   H398      1.0  0.16216  0.63426  0.56426  1.0000
  H   H399      1.0  0.06655  0.59982  0.58269  1.0000
  H   H400      1.0  0.21007  0.64913  0.59099  1.0000
  H   H401      1.0  0.16833  0.63215  0.61987  1.0000
  C   C220      1.0  0.11427  0.60197  0.63345  1.0000
  H   H402      1.0  0.21758  0.62931  0.55906  1.0000
  H   H403      1.0  0.04866  0.55290  0.55842  1.0000
  C   C221      1.0  0.17184  0.51900  0.58975  1.0000
  H   H404      1.0  0.32670  0.90678  0.38851  1.0000
  H   H405      1.0  0.06543  0.50504  0.36916  1.0000
  H   H406      1.0  0.36863  0.93947  0.34796  1.0000
  H   H407      1.0  0.16874  0.59335  0.61540  1.0000
  C   C222      1.0  0.15943  0.61393  0.60597  1.0000
  H   H408      1.0  0.43818  0.89996  0.58757  1.0000
  H   H409      1.0  0.01473  0.49276  0.44097  1.0000
  H   H410      1.0  0.08900  0.60143  0.63390  1.0000
  S   S45       1.0  0.23404  0.62884  0.65288  1.0000
  H   H411      1.0  0.22759  0.74033  0.65182  1.0000
  H   H412      1.0  0.12222  0.71878  0.60759  1.0000
  H   H413      1.0  0.12639  0.52775  0.44669  1.0000
  C   C223      1.0  0.10875  0.69829  0.60187  1.0000
  H   H414      1.0  0.07531  0.56642  0.60201  1.0000
  H   H415      1.0  0.32791  0.93386  0.34356  1.0000
  H   H416      1.0  0.13845  0.49521  0.56400  1.0000
  C   C224      1.0  0.20770  0.62719  0.58004  1.0000
  H   H417      1.0  0.35714  0.96683  0.39461  1.0000
  C   C225      1.0  0.34679  0.93778  0.35894  1.0000
  C   C226      1.0  0.47212  0.79927  0.58311  1.0000
  H   H418      1.0  0.14887  0.67368  0.59341  1.0000
  H   H419      1.0  0.41212  0.58842  0.64371  1.0000
  C   C227      1.0  0.10499  0.49883  0.41509  1.0000
  C   C228      1.0  0.11073  0.64160  0.59747  1.0000
  H   H420      1.0  0.22079  0.61019  0.59178  1.0000
  S   S46       1.0  0.03402  0.53945  0.48007  1.0000
  H   H421      1.0  0.99334  0.56094  0.53697  1.0000
  H   H422      1.0  0.99910  0.58611  0.45462  1.0000
  H   H423      1.0  0.18836  0.52031  0.57343  1.0000
  C   C229      1.0  0.01509  0.49857  0.33457  1.0000
  C   C230      1.0  0.15743  0.52978  0.63706  1.0000
  C   C231      1.0  0.14352  0.50486  0.58433  1.0000
  C   C232      1.0  0.17880  0.53171  0.61601  1.0000
  H   H424      1.0  0.12152  0.57860  0.63706  1.0000
  H   H425      1.0  0.40201  0.97818  0.37648  1.0000
  S   S47       1.0  0.09500  0.48949  0.51570  1.0000
  H   H426      1.0  0.09377  0.51820  0.40524  1.0000
  C   C233      1.0  0.45127  0.67502  0.61307  1.0000
  H   H427      1.0  0.08854  0.69724  0.61532  1.0000
  Fe  Fe23      1.0  0.04735  0.49549  0.49936  1.0000
  H   H428      1.0  0.99632  0.49881  0.34969  1.0000
  C   C234      1.0  0.44762  0.81049  0.56285  1.0000
  H   H429      1.0  0.31815  0.96238  0.38585  1.0000
  C   C235      1.0  0.99451  0.56567  0.44293  1.0000
  H   H430      1.0  0.44888  0.83528  0.56199  1.0000
  H   H431      1.0  0.12718  0.49546  0.40512  1.0000
  H   H432      1.0  0.46776  0.80931  0.60382  1.0000
  H   H433      1.0  0.46799  0.75505  0.56409  1.0000
  H   H434      1.0  0.45108  0.80148  0.54154  1.0000
  C   C236      1.0  0.46685  0.69915  0.59576  1.0000
  C   C237      1.0  0.34079  0.96614  0.37651  1.0000
  C   C238      1.0  0.47080  0.76470  0.58550  1.0000
  H   H435      1.0  0.44900  0.70963  0.58260  1.0000
  H   H436      1.0  0.11226  0.48108  0.36131  1.0000
  H   H437      1.0  0.33934  0.54367  0.91414  1.0000
  S   S48       1.0  0.44447  0.55478  0.82885  1.0000
  H   H438      1.0  0.47563  0.74560  0.84517  1.0000
  Fe  Fe24      1.0  0.42628  0.63441  0.85335  1.0000
  S   S49       1.0  0.40385  0.61461  0.81489  1.0000
  S   S50       1.0  0.41502  0.68065  0.86750  1.0000
  Fe  Fe25      1.0  0.39959  0.57358  0.84087  1.0000
  S   S51       1.0  0.35755  0.54439  0.84184  1.0000
  Fe  Fe26      1.0  0.45024  0.59785  0.80588  1.0000
  H   H439      1.0  0.19741  0.76647  0.65835  1.0000
  S   S52       1.0  0.41855  0.59463  0.88043  1.0000
  H   H440      1.0  0.13735  0.91302  0.91726  1.0000
  S   S53       1.0  0.26804  0.57256  0.68305  1.0000
  H   H441      1.0  0.39763  0.55103  0.77793  1.0000
  S   S54       1.0  0.40144  0.75648  0.71473  1.0000
  Fe  Fe27      1.0  0.24210  0.58408  0.72106  1.0000
  S   S55       1.0  0.25312  0.63314  0.72023  1.0000
  S   S56       1.0  0.24380  0.55563  0.75934  1.0000
  H   H442      1.0  0.34173  0.55200  0.74849  1.0000
  H   H443      1.0  0.32845  0.57138  0.71898  1.0000
  Fe  Fe28      1.0  0.21070  0.63571  0.69346  1.0000
  S   S57       1.0  0.17466  0.67060  0.69619  1.0000
  H   H444      1.0  0.37819  0.52002  0.76076  1.0000
  S   S58       1.0  0.19741  0.58726  0.69753  1.0000
  Fe  Fe29      1.0  0.25354  0.73703  0.86810  1.0000
  S   S59       1.0  0.26770  0.78312  0.88295  1.0000
  S   S60       1.0  0.27359  0.69228  0.87741  1.0000
  Fe  Fe30      1.0  0.19877  0.75825  0.83572  1.0000
  S   S61       1.0  0.20695  0.80636  0.84809  1.0000
  S   S62       1.0  0.15870  0.74263  0.80902  1.0000
  Fe  Fe31      1.0  0.25584  0.79692  0.83909  1.0000
  S   S63       1.0  0.27968  0.82989  0.81146  1.0000
  Fe  Fe32      1.0  0.21775  0.78912  0.89087  1.0000
  S   S64       1.0  0.20426  0.81033  0.93188  1.0000
  S   S65       1.0  0.24662  0.75023  0.82355  1.0000
  S   S66       1.0  0.20476  0.74177  0.87940  1.0000
  C   C239      1.0  0.31577  0.67674  0.94987  1.0000
  C   C240      1.0  0.30785  0.72530  0.65813  1.0000
  H   H445      1.0  0.47740  0.93633  0.69919  1.0000
  H   H446      1.0  0.28253  0.71180  0.95364  1.0000
  H   H447      1.0  0.38237  0.55970  0.68033  1.0000
  C   C241      1.0  0.16919  0.82863  0.93415  1.0000
  C   C242      1.0  0.14792  0.82808  0.91201  1.0000
  C   C243      1.0  0.12005  0.84272  0.91463  1.0000
  C   C244      1.0  0.11340  0.85813  0.93928  1.0000
  C   C245      1.0  0.13448  0.85839  0.96147  1.0000
  C   C246      1.0  0.16231  0.84372  0.95895  1.0000
  H   H448      1.0  0.15296  0.81638  0.89287  1.0000
  H   H449      1.0  0.10376  0.84234  0.89737  1.0000
  H   H450      1.0  0.30098  0.66543  0.93373  1.0000
  H   H451      1.0  0.98994  0.97640  0.86647  1.0000
  C   C247      1.0  0.16467  0.72253  0.77791  1.0000
  C   C248      1.0  0.19328  0.71178  0.77080  1.0000
  C   C249      1.0  0.19667  0.69535  0.74591  1.0000
  C   C250      1.0  0.17155  0.69015  0.72791  1.0000
  C   C251      1.0  0.14323  0.70140  0.73481  1.0000
  C   C252      1.0  0.13974  0.71721  0.75982  1.0000
  H   H452      1.0  0.21264  0.71564  0.78460  1.0000
  H   H453      1.0  0.21874  0.68721  0.74039  1.0000
  H   H454      1.0  0.12379  0.69767  0.72088  1.0000
  H   H455      1.0  0.11763  0.72557  0.76507  1.0000
  H   H456      1.0  0.36067  0.51112  0.71224  1.0000
  H   H457      1.0  0.34354  0.74048  0.77404  1.0000
  C   C253      1.0  0.37783  0.81297  0.78693  1.0000
  C   C254      1.0  0.36472  0.79603  0.80818  1.0000
  C   C255      1.0  0.33445  0.80073  0.81577  1.0000
  C   C256      1.0  0.31765  0.82323  0.80288  1.0000
  C   C257      1.0  0.33108  0.84069  0.78228  1.0000
  C   C258      1.0  0.36081  0.83513  0.77385  1.0000
  H   H458      1.0  0.37779  0.77914  0.81874  1.0000
  H   H459      1.0  0.32429  0.78727  0.83181  1.0000
  H   H460      1.0  0.31832  0.85847  0.77272  1.0000
  C   C259      1.0  0.32690  0.54904  0.81803  1.0000
  C   C260      1.0  0.30432  0.52669  0.81671  1.0000
  C   C261      1.0  0.27932  0.52908  0.79838  1.0000
  C   C262      1.0  0.27670  0.55368  0.78081  1.0000
  C   C263      1.0  0.29915  0.57637  0.78202  1.0000
  C   C264      1.0  0.32411  0.57420  0.80096  1.0000
  H   H461      1.0  0.47466  0.77572  0.77516  1.0000
  H   H462      1.0  0.26192  0.51166  0.79776  1.0000
  H   H463      1.0  0.29696  0.59572  0.76884  1.0000
  H   H464      1.0  0.34082  0.59210  0.80272  1.0000
  C   C265      1.0  0.37551  0.68481  0.86620  1.0000
  C   C266      1.0  0.36284  0.71305  0.86990  1.0000
  C   C267      1.0  0.33118  0.71583  0.87167  1.0000
  C   C268      1.0  0.31240  0.69026  0.87051  1.0000
  C   C269      1.0  0.32505  0.66223  0.86586  1.0000
  C   C270      1.0  0.35652  0.65955  0.86335  1.0000
  H   H465      1.0  0.37749  0.73268  0.87186  1.0000
  H   H466      1.0  0.32146  0.73757  0.87512  1.0000
  H   H467      1.0  0.31062  0.64244  0.86481  1.0000
  H   H468      1.0  0.36610  0.63768  0.86052  1.0000
  C   C271      1.0  0.41222  0.60815  0.65793  1.0000
  C   C272      1.0  0.45117  0.65204  0.74864  1.0000
  C   C273      1.0  0.45064  0.67685  0.73072  1.0000
  C   C274      1.0  0.46306  0.50698  0.94679  1.0000
  H   H469      1.0  0.43765  0.65182  0.76714  1.0000
  H   H470      1.0  0.43630  0.69560  0.73507  1.0000
  H   H471      1.0  0.12910  0.86973  0.98056  1.0000
  H   H472      1.0  0.31848  0.78410  0.75411  1.0000
  C   C275      1.0  0.30538  0.76279  0.75456  1.0000
  H   H473      1.0  0.32240  0.80245  0.70931  1.0000
  H   H474      1.0  0.44843  0.53374  0.91180  1.0000
  H   H475      1.0  0.30613  0.50736  0.83001  1.0000
  N   N14       1.0  0.21256  0.62987  0.81836  1.0000
  C   C276      1.0  0.23605  0.64034  0.79805  1.0000
  C   C277      1.0  0.19388  0.60498  0.80463  1.0000
  C   C278      1.0  0.19292  0.65592  0.82592  1.0000
  C   C279      1.0  0.22729  0.61819  0.84470  1.0000
  C   C280      1.0  0.25135  0.59364  0.84070  1.0000
  C   C281      1.0  0.26044  0.66282  0.80975  1.0000
  C   C282      1.0  0.16552  0.64855  0.84462  1.0000
  C   C283      1.0  0.17372  0.61398  0.77915  1.0000
  C   C284      1.0  0.15662  0.58678  0.76670  1.0000
  C   C285      1.0  0.26474  0.58366  0.86868  1.0000
  C   C286      1.0  0.28276  0.67197  0.78740  1.0000
  C   C287      1.0  0.14537  0.67573  0.84814  1.0000
  H   H476      1.0  0.22486  0.65150  0.78008  1.0000
  H   H477      1.0  0.24796  0.62097  0.78882  1.0000
  H   H478      1.0  0.20900  0.58719  0.79708  1.0000
  H   H479      1.0  0.17924  0.59353  0.81997  1.0000
  H   H480      1.0  0.18416  0.66703  0.80685  1.0000
  H   H481      1.0  0.20662  0.67350  0.83730  1.0000
  H   H482      1.0  0.23804  0.63686  0.85717  1.0000
  H   H483      1.0  0.20975  0.60836  0.85837  1.0000
  H   H484      1.0  0.27049  0.60186  0.82815  1.0000
  H   H485      1.0  0.24112  0.57358  0.83019  1.0000
  H   H486      1.0  0.24982  0.68344  0.81753  1.0000
  H   H487      1.0  0.27388  0.65295  0.82697  1.0000
  H   H488      1.0  0.17362  0.64187  0.86569  1.0000
  H   H489      1.0  0.15091  0.63031  0.83561  1.0000
  H   H490      1.0  0.15652  0.63059  0.78508  1.0000
  H   H491      1.0  0.18769  0.62363  0.76240  1.0000
  H   H492      1.0  0.17292  0.56976  0.75957  1.0000
  H   H493      1.0  0.14141  0.57665  0.78230  1.0000
  H   H494      1.0  0.14258  0.59374  0.74844  1.0000
  H   H495      1.0  0.24674  0.57367  0.88169  1.0000
  H   H496      1.0  0.28223  0.56651  0.86504  1.0000
  H   H497      1.0  0.27571  0.60288  0.88006  1.0000
  H   H498      1.0  0.27077  0.68383  0.77025  1.0000
  H   H499      1.0  0.30044  0.68724  0.79683  1.0000
  H   H500      1.0  0.29414  0.65205  0.77882  1.0000
  H   H501      1.0  0.15872  0.69494  0.85715  1.0000
  H   H502      1.0  0.13530  0.68233  0.82770  1.0000
  H   H503      1.0  0.12656  0.67029  0.86236  1.0000
  H   H504      1.0  0.31881  0.61988  0.94033  1.0000
  C   C288      1.0  0.40019  0.71158  0.79846  1.0000
  C   C289      1.0  0.24470  0.77836  0.69676  1.0000
  H   H505      1.0  0.45042  0.72935  0.77028  1.0000
  H   H506      1.0  0.31670  0.71560  0.75615  1.0000
  C   C290      1.0  0.37901  0.59798  0.74308  1.0000
  C   C291      1.0  0.35869  0.62462  0.73458  1.0000
  C   C292      1.0  0.36025  0.64959  0.75650  1.0000
  H   H507      1.0  0.37234  0.59136  0.76429  1.0000
  H   H508      1.0  0.33450  0.61764  0.73191  1.0000
  H   H509      1.0  0.34256  0.73828  0.73648  1.0000
  H   H510      1.0  0.35205  0.64144  0.77682  1.0000
  H   H511      1.0  0.38390  0.65833  0.75911  1.0000
  H   H512      1.0  0.34565  0.66823  0.74956  1.0000
  C   C293      1.0  0.31290  0.51011  0.71919  1.0000
  S   S67       1.0  0.41600  0.80771  0.77796  1.0000
  H   H513      1.0  0.37094  0.84862  0.75783  1.0000
  H   H514      1.0  0.04241  0.77514  0.95331  1.0000
  H   H515      1.0  0.13300  0.72779  0.96422  1.0000
  C   C294      1.0  0.31588  0.84904  0.70202  1.0000
  C   C295      1.0  0.32843  0.73767  0.75532  1.0000
  S   S68       1.0  0.32248  0.63700  0.66962  1.0000
  C   C296      1.0  0.12482  0.62069  0.65925  1.0000
  H   H516      1.0  0.32496  0.85630  0.72279  1.0000
  Fe  Fe33      1.0  0.38961  0.78509  0.67804  1.0000
  H   H517      1.0  0.42187  0.75397  0.80677  1.0000
  H   H518      1.0  0.19856  0.79799  0.78796  1.0000
  S   S69       1.0  0.34408  0.77600  0.65731  1.0000
  N   N15       1.0  0.37757  0.57107  0.72385  1.0000
  C   C297      1.0  0.34669  0.55623  0.72628  1.0000
  Fe  Fe34      1.0  0.42201  0.79894  0.73221  1.0000
  C   C298      1.0  0.35160  0.58638  0.93363  1.0000
  H   H519      1.0  0.08977  0.60339  0.68659  1.0000
  H   H520      1.0  0.18024  0.94848  0.92407  1.0000
  Fe  Fe35      1.0  0.46403  0.57982  0.86592  1.0000
  H   H521      1.0  0.15602  0.75790  0.95075  1.0000
  H   H522      1.0  0.29267  0.76193  0.77422  1.0000
  H   H523      1.0  0.99575  0.84319  0.93690  1.0000
  H   H524      1.0  0.33476  0.85009  0.68706  1.0000
  H   H525      1.0  0.39185  0.64301  0.91248  1.0000
  H   H526      1.0  0.11434  0.64303  0.65879  1.0000
  H   H527      1.0  0.29778  0.75640  0.71011  1.0000
  C   C299      1.0  0.30333  0.81703  0.70304  1.0000
  S   S70       1.0  0.46792  0.79004  0.71485  1.0000
  H   H528      1.0  0.47367  0.90413  0.67619  1.0000
  H   H529      1.0  0.31226  0.72013  0.92971  1.0000
  C   C300      1.0  0.28358  0.75926  0.72884  1.0000
  H   H530      1.0  0.19229  0.72738  0.66608  1.0000
  H   H531      1.0  0.22193  0.94262  0.94759  1.0000
  C   C301      1.0  0.41591  0.66735  0.94519  1.0000
  H   H532      1.0  0.27147  0.73745  0.73129  1.0000
  H   H533      1.0  0.36633  0.63450  0.71480  1.0000
  H   H534      1.0  0.05564  0.51253  0.68461  1.0000
  C   C302      1.0  0.39385  0.64163  0.93558  1.0000
  H   H535      1.0  0.40532  0.62017  0.93949  1.0000
  H   H536      1.0  0.28547  0.82093  0.74475  1.0000
  H   H537      1.0  0.25153  0.78848  0.76821  1.0000
  H   H538      1.0  0.40278  0.60662  0.74576  1.0000
  C   C303      1.0  0.04700  0.48972  0.68947  1.0000
  C   C304      1.0  0.46883  0.67723  0.70714  1.0000
  H   H539      1.0  0.34042  0.62587  0.91005  1.0000
  H   H540      1.0  0.35231  0.67913  0.92077  1.0000
  H   H541      1.0  0.37554  0.58315  0.92787  1.0000
  C   C305      1.0  0.13296  0.93708  0.92106  1.0000
  H   H542      1.0  0.22859  0.76144  0.75055  1.0000
  C   C306      1.0  0.45623  0.72299  0.79205  1.0000
  H   H543      1.0  0.26022  0.83169  0.71777  1.0000
  H   H544      1.0  0.23241  0.79856  0.68972  1.0000
  C   C307      1.0  0.39898  0.53441  0.76072  1.0000
  H   H545      1.0  0.44751  0.52768  0.76813  1.0000
  C   C308      1.0  0.01321  0.82562  0.93601  1.0000
  C   C309      1.0  0.38193  0.57991  0.69399  1.0000
  C   C310      1.0  0.34150  0.52663  0.70962  1.0000
  Fe  Fe36      1.0  0.45204  0.81603  0.67762  1.0000
  H   H546      1.0  0.27991  0.68532  0.66154  1.0000
  N   N16       1.0  0.36262  0.64202  0.94794  1.0000
  C   C311      1.0  0.34233  0.61958  0.93238  1.0000
  C   C312      1.0  0.34976  0.67273  0.94294  1.0000
  H   H547      1.0  0.33853  0.53151  0.68707  1.0000
  H   H548      1.0  0.20325  0.80892  0.72522  1.0000
  C   C313      1.0  0.11493  0.60580  0.68619  1.0000
  H   H549      1.0  0.06802  0.80634  0.95151  1.0000
  N   N17       1.0  0.26110  0.78397  0.72438  1.0000
  C   C314      1.0  0.23921  0.78398  0.74806  1.0000
  Fe  Fe37      1.0  0.44571  0.75035  0.69379  1.0000
  H   H550      1.0  0.17855  0.84392  0.97624  1.0000
  H   H551      1.0  0.40990  0.68824  0.93410  1.0000
  H   H552      1.0  0.10207  0.76899  0.94376  1.0000
  C   C315      1.0  0.27682  0.81419  0.72361  1.0000
  C   C316      1.0  0.40267  0.55019  0.73231  1.0000
  C   C317      1.0  0.44884  0.66028  0.93840  1.0000
  H   H553      1.0  0.41458  0.67172  0.96790  1.0000
  H   H554      1.0  0.39564  0.71552  0.77594  1.0000
  H   H555      1.0  0.30760  0.56802  0.91917  1.0000
  H   H556      1.0  0.03235  0.83430  0.92357  1.0000
  H   H557      1.0  0.21464  0.90950  0.96595  1.0000
  C   C318      1.0  0.42597  0.51430  0.76704  1.0000
  H   H558      1.0  0.27613  0.92238  0.94812  1.0000
  C   C319      1.0  0.36306  0.63604  0.97891  1.0000
  C   C320      1.0  0.05067  0.79558  0.96487  1.0000
  H   H559      1.0  0.23273  0.73055  0.70242  1.0000
  C   C321      1.0  0.11201  0.77161  0.96518  1.0000
  H   H560      1.0  0.42769  0.49666  0.75073  1.0000
  H   H561      1.0  0.44056  0.49786  0.95038  1.0000
  H   H562      1.0  0.16292  0.91402  0.96403  1.0000
  H   H563      1.0  0.12530  0.58342  0.68830  1.0000
  C   C322      1.0  0.30728  0.70975  0.95008  1.0000
  C   C323      1.0  0.15991  0.95188  0.93681  1.0000
  H   H564      1.0  0.36208  0.59262  0.68616  1.0000
  H   H565      1.0  0.45100  0.65570  0.91574  1.0000
  H   H566      1.0  0.17313  0.82057  0.76746  1.0000
  H   H567      1.0  0.42480  0.56253  0.73357  1.0000
  H   H568      1.0  0.17564  0.78122  0.75997  1.0000
  H   H569      1.0  0.43112  0.72580  0.83135  1.0000
  H   H570      1.0  0.29664  0.92182  0.98109  1.0000
  H   H571      1.0  0.31054  0.66730  0.97054  1.0000
  H   H572      1.0  0.29792  0.86461  0.69500  1.0000
  S   S71       1.0  0.40749  0.82853  0.69689  1.0000
  H   H573      1.0  0.40596  0.53277  0.71602  1.0000
  H   H574      1.0  0.37978  0.71798  0.81016  1.0000
  H   H575      1.0  0.03104  0.83861  0.97670  1.0000
  H   H576      1.0  0.26140  0.77431  0.68018  1.0000
  Fe  Fe38      1.0  0.22447  0.57990  0.65915  1.0000
  S   S72       1.0  0.07843  0.87653  0.94188  1.0000
  H   H577      1.0  0.46386  0.67968  0.94415  1.0000
  H   H578      1.0  0.11179  0.93919  0.93301  1.0000
  H   H579      1.0  0.36293  0.68997  0.95524  1.0000
  H   H580      1.0  0.20222  0.75570  0.70929  1.0000
  Fe  Fe39      1.0  0.27537  0.62200  0.67989  1.0000
  H   H581      1.0  0.29559  0.81082  0.68160  1.0000
  C   C324      1.0  0.33191  0.56727  0.91347  1.0000
  C   C325      1.0  0.41144  0.59825  0.68829  1.0000
  H   H582      1.0  0.22405  0.83027  0.75154  1.0000
  H   H583      1.0  0.45877  0.69829  0.79152  1.0000
  H   H584      1.0  0.40418  0.68743  0.80188  1.0000
  H   H585      1.0  0.42284  0.50330  0.78745  1.0000
  H   H586      1.0  0.47053  0.68873  0.83617  1.0000
  C   C326      1.0  0.21406  0.80787  0.74624  1.0000
  C   C327      1.0  0.18887  0.80146  0.76672  1.0000
  C   C328      1.0  0.42767  0.73021  0.80893  1.0000
  C   C329      1.0  0.22180  0.75151  0.69568  1.0000
  H   H587      1.0  0.33430  0.57530  0.89178  1.0000
  H   H588      1.0  0.41335  0.61873  0.70142  1.0000
  C   C330      1.0  0.02395  0.81771  0.96556  1.0000
  C   C331      1.0  0.16393  0.93873  0.96655  1.0000
  C   C332      1.0  0.30284  0.69448  0.66183  1.0000
  H   H589      1.0  0.12950  0.94798  0.90057  1.0000
  Fe  Fe40      1.0  0.06874  0.90685  0.97846  1.0000
  C   C333      1.0  0.46906  0.62736  0.74230  1.0000
  H   H590      1.0  0.12269  0.61988  0.70428  1.0000
  H   H591      1.0  0.45663  0.64047  0.95021  1.0000
  S   S73       1.0  0.06256  0.95618  0.97278  1.0000
  H   H592      1.0  0.30855  0.48992  0.70597  1.0000
  H   H593      1.0  0.43188  0.58465  0.69248  1.0000
  H   H594      1.0  0.34806  0.57756  0.95486  1.0000
  C   C334      1.0  0.21911  0.93394  0.96899  1.0000
  H   H595      1.0  0.29272  0.52462  0.71760  1.0000
  H   H596      1.0  0.38517  0.72697  0.66224  1.0000
  C   C335      1.0  0.33754  0.73722  0.65896  1.0000
  C   C336      1.0  0.46746  0.52731  0.92501  1.0000
  S   S74       1.0  0.47337  0.62166  0.84185  1.0000
  C   C337      1.0  0.27405  0.91782  0.97073  1.0000
  H   H597      1.0  0.46450  0.78058  0.81022  1.0000
  H   H598      1.0  0.32002  0.72213  0.96691  1.0000
  C   C338      1.0  0.13979  0.75165  0.96723  1.0000
  H   H599      1.0  0.00311  0.80561  0.92521  1.0000
  H   H600      1.0  0.47330  0.48872  0.83359  1.0000
  H   H601      1.0  0.47887  0.70903  0.88416  1.0000
  H   H602      1.0  0.14990  0.62309  0.66053  1.0000
  C   C339      1.0  0.20906  0.74624  0.66611  1.0000
  H   H603      1.0  0.31580  0.50300  0.74121  1.0000
  S   S75       1.0  0.47023  0.59554  0.76339  1.0000
  S   S76       1.0  0.47184  0.70854  0.68551  1.0000
  H   H604      1.0  0.16273  0.53934  0.65742  1.0000
  H   H605      1.0  0.00391  0.80779  0.97584  1.0000
  C   C340      1.0  0.32763  0.67557  0.66546  1.0000
  H   H606      1.0  0.11986  0.79515  0.96772  1.0000
  H   H607      1.0  0.47766  0.49981  0.86963  1.0000
  H   H608      1.0  0.07601  0.74240  0.97929  1.0000
  H   H609      1.0  0.26747  0.89394  0.97347  1.0000
  H   H610      1.0  0.37648  0.67288  0.66820  1.0000
  H   H611      1.0  0.02313  0.49142  0.69631  1.0000
  H   H612      1.0  0.38914  0.59381  0.97802  1.0000
  C   C341      1.0  0.35726  0.68741  0.66546  1.0000
  C   C342      1.0  0.36218  0.71815  0.66229  1.0000
  H   H613      1.0  0.15554  0.97623  0.93794  1.0000
  H   H614      1.0  0.14326  0.94483  0.97826  1.0000
  C   C343      1.0  0.08778  0.76326  0.98702  1.0000
  H   H615      1.0  0.34050  0.62701  0.98520  1.0000
  C   C344      1.0  0.48256  0.77140  0.79692  1.0000
  H   H616      1.0  0.25886  0.96158  0.98096  1.0000
  H   H617      1.0  0.43323  0.62166  0.65462  1.0000
  N   N18       1.0  0.19246  0.94839  0.98272  1.0000
  C   C345      1.0  0.25058  0.93825  0.98369  1.0000
  H   H618      1.0  0.28881  0.73984  0.65492  1.0000
  S   S77       1.0  0.43224  0.77563  0.65554  1.0000
  N   N19       1.0  0.57641  0.44699  0.16035  1.0000
  Fe  Fe41      1.0  0.54073  0.40311  0.05223  1.0000
  S   S78       1.0  0.58744  0.39889  0.03506  1.0000
  H   H619      1.0  0.73737  0.30786  0.00313  1.0000
  H   H620      1.0  0.54440  0.42504  0.13117  1.0000
  H   H621      1.0  0.59722  0.38441  0.15474  1.0000
  H   H622      1.0  0.60686  0.47188  0.13370  1.0000
  H   H623      1.0  0.68462  0.38082  0.03317  1.0000
  H   H624      1.0  0.50122  0.25962  0.09101  1.0000
  H   H625      1.0  0.77151  0.26470  0.00638  1.0000
  H   H626      1.0  0.58797  0.40791  0.11605  1.0000
  C   C346      1.0  0.60437  0.47995  0.19839  1.0000
  C   C347      1.0  0.75102  0.25048  0.00177  1.0000
  H   H627      1.0  0.52762  0.44041  0.16092  1.0000
  C   C348      1.0  0.60035  0.42932  0.11362  1.0000
  C   C349      1.0  0.57956  0.42099  0.18005  1.0000
  S   S79       1.0  0.53385  0.37552  0.09106  1.0000
  C   C350      1.0  0.49732  0.36826  0.10392  1.0000
  H   H628      1.0  0.96850  0.01536  0.12119  1.0000
  H   H629      1.0  0.55533  0.36824  0.20284  1.0000
  Fe  Fe42      1.0  0.52249  0.44784  0.00730  1.0000
  H   H630      1.0  0.55576  0.47676  0.19017  1.0000
  C   C351      1.0  0.60278  0.44851  0.14077  1.0000
  H   H631      1.0  0.56229  0.42271  0.19662  1.0000
  C   C352      1.0  0.50522  0.46601  0.11350  1.0000
  H   H632      1.0  0.51654  0.30038  0.06941  1.0000
  H   H633      1.0  0.55606  0.38575  0.15410  1.0000
  H   H634      1.0  0.73901  0.24591  0.02142  1.0000
  Fe  Fe43      1.0  0.56479  0.39764  0.99289  1.0000
  H   H635      1.0  0.62969  0.41051  0.08238  1.0000
  H   H636      1.0  0.60219  0.42174  0.19090  1.0000
  H   H637      1.0  0.64667  0.36814  0.04059  1.0000
  C   C353      1.0  0.63188  0.42212  0.10286  1.0000
  S   S80       1.0  0.51785  0.39791  0.01022  1.0000
  H   H638      1.0  0.57464  0.34280  0.18030  1.0000
  H   H639      1.0  0.50546  0.44510  0.10084  1.0000
  H   H640      1.0  0.64696  0.33282  0.00060  1.0000
  C   C354      1.0  0.50592  0.32361  0.03191  1.0000
  Fe  Fe44      1.0  0.58666  0.44879  0.03117  1.0000
  H   H641      1.0  0.51413  0.33773  0.13492  1.0000
  C   C355      1.0  0.57691  0.38907  0.16725  1.0000
  S   S81       1.0  0.54133  0.45325  0.05104  1.0000
  H   H642      1.0  0.58794  0.44186  0.09720  1.0000
  H   H643      1.0  0.64405  0.40726  0.11762  1.0000
  H   H644      1.0  0.64561  0.44290  0.10017  1.0000
  C   C356      1.0  0.66328  0.37117  0.02375  1.0000
  C   C357      1.0  0.57582  0.36544  0.19003  1.0000
  H   H645      1.0  0.62620  0.47817  0.18740  1.0000
  H   H646      1.0  0.67616  0.32539  0.02644  1.0000
  H   H647      1.0  0.70273  0.28917  0.00953  1.0000
  H   H648      1.0  0.53026  0.32428  0.02621  1.0000
  C   C358      1.0  0.71811  0.29561  0.99249  1.0000
  H   H649      1.0  0.55320  0.47697  0.11218  1.0000
  C   C359      1.0  0.54577  0.44456  0.14552  1.0000
  H   H650      1.0  0.51783  0.22943  0.13301  1.0000
  C   C360      1.0  0.66901  0.34098  0.00982  1.0000
  H   H651      1.0  0.71408  0.35418  0.99819  1.0000
  H   H652      1.0  0.62418  0.44269  0.15220  1.0000
  C   C361      1.0  0.50000  0.29770  0.05164  1.0000
  H   H653      1.0  0.59654  0.36700  0.20371  1.0000
  H   H654      1.0  0.50056  0.34512  0.04226  1.0000
  S   S82       1.0  0.62883  0.47485  0.04543  1.0000
  H   H655      1.0  0.50461  0.27654  0.04038  1.0000
  C   C362      1.0  0.49420  0.34823  0.12605  1.0000
  H   H656      1.0  0.75860  0.22886  0.99294  1.0000
  H   H657      1.0  0.65377  0.38711  0.00833  1.0000
  H   H658      1.0  0.49207  0.21917  0.26340  1.0000
  H   H659      1.0  0.60377  0.46323  0.21531  1.0000
  H   H660      1.0  0.49216  0.24979  0.15484  1.0000
  C   C363      1.0  0.49406  0.23052  0.14024  1.0000
  H   H661      1.0  0.48704  0.46387  0.12907  1.0000
  C   C364      1.0  0.57684  0.47540  0.17779  1.0000
  C   C365      1.0  0.53609  0.47192  0.12809  1.0000
  H   H662      1.0  0.49075  0.16966  0.28609  1.0000
  H   H663      1.0  0.48874  0.20972  0.15174  1.0000
  H   H664      1.0  0.49179  0.32107  0.01251  1.0000
  C   C366      1.0  0.69371  0.34408  0.98734  1.0000
  S   S83       1.0  0.56802  0.44727  0.98706  1.0000
  H   H665      1.0  0.91694  0.43786  0.46535  1.0000
  C   C367      1.0  0.91241  0.48038  0.51958  1.0000
  H   H666      1.0  0.79914  0.09171  0.58392  1.0000
  S   S84       1.0  0.59294  0.01879  0.54071  1.0000
  S   S85       1.0  0.84049  0.24376  0.58939  1.0000
  C   C368      1.0  0.65648  0.01928  0.61757  1.0000
  H   H667      1.0  0.53754  0.08832  0.45267  1.0000
  C   C369      1.0  0.49003  0.01941  0.40595  1.0000
  C   C370      1.0  0.61609  0.01777  0.57109  1.0000
  C   C371      1.0  0.62016  0.04395  0.58708  1.0000
  C   C372      1.0  0.64023  0.04472  0.61028  1.0000
  H   H668      1.0  0.64701  0.14247  0.61232  1.0000
  C   C373      1.0  0.51056  0.09710  0.51912  1.0000
  H   H669      1.0  0.60815  0.06389  0.58123  1.0000
  H   H670      1.0  0.64338  0.06509  0.62235  1.0000
  C   C374      1.0  0.76375  0.19367  0.57841  1.0000
  C   C375      1.0  0.78892  0.21251  0.57398  1.0000
  H   H671      1.0  0.74827  0.18819  0.56123  1.0000
  H   H672      1.0  0.79284  0.22128  0.55341  1.0000
  H   H673      1.0  0.87012  0.45261  0.55426  1.0000
  C   C376      1.0  0.94983  0.37518  0.56161  1.0000
  C   C377      1.0  0.94757  0.35469  0.58359  1.0000
  H   H674      1.0  0.92947  0.38502  0.55296  1.0000
  H   H675      1.0  0.92560  0.34899  0.59192  1.0000
  H   H676      1.0  0.55768  0.08234  0.48537  1.0000
  C   C378      1.0  0.85150  0.10491  0.63881  1.0000
  H   H677      1.0  0.58788  0.00178  0.63282  1.0000
  H   H678      1.0  0.90764  0.43774  0.56115  1.0000
  H   H679      1.0  0.65455  0.06994  0.47188  1.0000
  H   H680      1.0  0.62826  0.05328  0.49602  1.0000
  S   S86       1.0  0.97274  0.31833  0.62415  1.0000
  H   H681      1.0  0.83309  0.07085  0.59143  1.0000
  C   C379      1.0  0.63701  0.07472  0.48752  1.0000
  C   C380      1.0  0.77850  0.18966  0.62706  1.0000
  H   H682      1.0  0.82920  0.16186  0.65017  1.0000
  H   H683      1.0  0.91554  0.43247  0.51050  1.0000
  H   H684      1.0  0.75649  0.16169  0.51465  1.0000
  C   C381      1.0  0.51523  0.00007  0.58221  1.0000
  H   H685      1.0  0.52749  0.00932  0.62483  1.0000
  H   H686      1.0  0.72450  0.16292  0.49022  1.0000
  C   C382      1.0  0.73773  0.03341  0.58487  1.0000
  H   H687      1.0  0.81469  0.30815  0.64282  1.0000
  H   H688      1.0  0.77448  0.18086  0.64757  1.0000
  H   H689      1.0  0.92150  0.18623  0.60606  1.0000
  C   C383      1.0  0.89826  0.44849  0.51754  1.0000
  H   H690      1.0  0.71488  0.22167  0.64450  1.0000
  H   H691      1.0  0.54800  0.03624  0.43793  1.0000
  C   C384      1.0  0.97834  0.38338  0.55126  1.0000
  S   S87       1.0  0.98086  0.41082  0.52523  1.0000
  H   H692      1.0  0.55716  0.08438  0.57772  1.0000
  S   S88       1.0  0.88073  0.31062  0.62986  1.0000
  C   C385      1.0  0.80348  0.20911  0.62264  1.0000
  H   H693      1.0  0.89038  0.20126  0.58586  1.0000
  C   C386      1.0  0.97385  0.34201  0.59500  1.0000
  H   H694      1.0  0.86929  0.09076  0.62961  1.0000
  H   H695      1.0  0.74560  0.02241  0.56557  1.0000
  C   C387      1.0  0.80893  0.22028  0.59605  1.0000
  C   C388      1.0  0.65162  0.99274  0.60214  1.0000
  H   H696      1.0  0.50904  0.06867  0.55586  1.0000
  H   H697      1.0  0.58226  0.05721  0.44606  1.0000
  H   H698      1.0  0.95228  0.41729  0.43193  1.0000
  H   H699      1.0  0.81887  0.21525  0.63956  1.0000
  Fe  Fe45      1.0  0.87031  0.26145  0.62514  1.0000
  C   C389      1.0  0.79385  0.29402  0.64003  1.0000
  H   H700      1.0  0.56841  0.03014  0.47053  1.0000
  C   C390      1.0  0.96080  0.43418  0.44744  1.0000
  H   H701      1.0  0.75876  0.14407  0.48089  1.0000
  H   H702      1.0  0.85384  0.16918  0.61074  1.0000
  H   H703      1.0  0.84331  0.12427  0.59753  1.0000
  H   H704      1.0  0.62275  0.16296  0.58897  1.0000
  N   N20       1.0  0.49337  0.07968  0.49657  1.0000
  C   C391      1.0  0.87637  0.17380  0.62056  1.0000
  S   S89       1.0  0.68346  0.02023  0.64533  1.0000
  C   C392      1.0  0.75869  0.18185  0.60481  1.0000
  S   S90       1.0  0.72707  0.15780  0.60893  1.0000
  H   H705      1.0  0.49498  0.11217  0.53027  1.0000
  H   H706      1.0  0.77768  0.30606  0.62622  1.0000
  C   C393      1.0  0.93435  0.45312  0.45684  1.0000
  H   H707      1.0  0.97121  0.42226  0.46536  1.0000
  H   H708      1.0  0.52774  0.11233  0.50981  1.0000
  C   C394      1.0  0.88803  0.43790  0.54610  1.0000
  S   S91       1.0  0.91922  0.24898  0.63051  1.0000
  H   H709      1.0  0.61787  0.08621  0.47691  1.0000
  C   C395      1.0  0.54770  0.09801  0.56045  1.0000
  H   H710      1.0  0.53722  0.00820  0.57396  1.0000
  C   C396      1.0  0.49342  0.99696  0.42600  1.0000
  H   H711      1.0  0.92431  0.46342  0.43789  1.0000
  C   C397      1.0  0.89833  0.18129  0.59729  1.0000
  C   C398      1.0  0.83016  0.11321  0.61404  1.0000
  H   H712      1.0  0.89937  0.16237  0.58223  1.0000
  C   C399      1.0  0.63144  0.99194  0.57892  1.0000
  H   H713      1.0  0.96064  0.46720  0.49387  1.0000
  C   C400      1.0  0.56147  0.04726  0.45509  1.0000
  N   N21       1.0  0.69472  0.09850  0.54745  1.0000
  C   C401      1.0  0.70910  0.12566  0.53429  1.0000
  C   C402      1.0  0.67500  0.10790  0.57132  1.0000
  C   C403      1.0  0.72027  0.07974  0.55911  1.0000
  C   C404      1.0  0.67673  0.07949  0.52652  1.0000
  C   C405      1.0  0.65016  0.09479  0.51094  1.0000
  C   C406      1.0  0.73090  0.11961  0.51002  1.0000
  C   C407      1.0  0.71084  0.05360  0.57835  1.0000
  C   C408      1.0  0.65770  0.13779  0.56845  1.0000
  C   C409      1.0  0.63495  0.14162  0.59173  1.0000
  C   C410      1.0  0.74333  0.14892  0.49829  1.0000
  H   H714      1.0  0.56694  0.10679  0.54815  1.0000
  H   H715      1.0  0.72215  0.13885  0.55053  1.0000
  H   H716      1.0  0.69170  0.14112  0.52610  1.0000
  H   H717      1.0  0.65819  0.08997  0.57571  1.0000
  H   H718      1.0  0.68888  0.11056  0.59091  1.0000
  H   H719      1.0  0.73681  0.09410  0.57146  1.0000
  H   H720      1.0  0.73329  0.06961  0.54194  1.0000
  H   H721      1.0  0.69205  0.06965  0.51089  1.0000
  H   H722      1.0  0.66613  0.05989  0.53682  1.0000
  H   H723      1.0  0.65741  0.11615  0.50144  1.0000
  H   H724      1.0  0.63143  0.09880  0.52554  1.0000
  H   H725      1.0  0.75081  0.10658  0.51714  1.0000
  H   H726      1.0  0.71892  0.10731  0.49272  1.0000
  H   H727      1.0  0.69260  0.03925  0.56882  1.0000
  H   H728      1.0  0.70268  0.06244  0.59845  1.0000
  H   H729      1.0  0.67404  0.15701  0.56993  1.0000
  H   H730      1.0  0.64513  0.13948  0.54835  1.0000
  H   H731      1.0  0.61797  0.12293  0.59140  1.0000
  C   C411      1.0  0.52641  0.07847  0.54208  1.0000
  H   H732      1.0  0.50692  0.02209  0.39009  1.0000
  H   H733      1.0  0.75684  0.04645  0.59472  1.0000
  H   H734      1.0  0.49134  0.02929  0.53265  1.0000
  H   H735      1.0  0.50034  0.11527  0.46671  1.0000
  C   C412      1.0  0.94515  0.47766  0.47817  1.0000
  H   H736      1.0  0.54020  0.06034  0.53331  1.0000
  H   H737      1.0  0.73061  0.01573  0.59959  1.0000
  H   H738      1.0  0.90080  0.13211  0.62482  1.0000
  H   H739      1.0  0.93292  0.47779  0.53328  1.0000
  C   C413      1.0  0.81549  0.08517  0.60068  1.0000
  H   H740      1.0  0.88273  0.47675  0.46774  1.0000
  H   H741      1.0  0.87855  0.41476  0.54424  1.0000
  Fe  Fe46      1.0  0.72394  0.12830  0.64658  1.0000
  H   H742      1.0  0.52126  0.03997  0.49521  1.0000
  H   H743      1.0  0.81148  0.12782  0.62067  1.0000
  Fe  Fe47      1.0  0.92880  0.29755  0.63954  1.0000
  H   H744      1.0  0.97210  0.43818  0.58202  1.0000
  C   C414      1.0  0.54293  0.07165  0.46892  1.0000
  H   H745      1.0  0.80301  0.07206  0.61640  1.0000
  C   C415      1.0  0.97258  0.45374  0.60016  1.0000
  H   H746      1.0  0.49640  0.98278  0.61932  1.0000
  H   H747      1.0  0.80015  0.27279  0.62983  1.0000
  H   H748      1.0  0.68103  0.17869  0.65188  1.0000
  H   H749      1.0  0.87812  0.44735  0.50324  1.0000
  H   H750      1.0  0.49883  0.01864  0.58148  1.0000
  C   C416      1.0  0.51358  0.05821  0.48147  1.0000
  H   H751      1.0  0.73662  0.27796  0.64792  1.0000
  H   H752      1.0  0.53525  0.11697  0.56965  1.0000
  H   H753      1.0  0.62990  0.98254  0.37827  1.0000
  C   C417      1.0  0.51925  0.98976  0.61225  1.0000
  H   H754      1.0  0.83825  0.09009  0.65285  1.0000
  H   H755      1.0  0.63106  0.98734  0.41563  1.0000
  H   H756      1.0  0.94885  0.46023  0.60436  1.0000
  S   S92       1.0  0.74641  0.08383  0.64691  1.0000
  H   H757      1.0  0.50036  0.04691  0.46426  1.0000
  H   H758      1.0  0.87410  0.19411  0.63376  1.0000
  H   H759      1.0  0.90670  0.15813  0.65228  1.0000
  H   H760      1.0  0.97165  0.41911  0.63069  1.0000
  C   C418      1.0  0.88851  0.14773  0.63860  1.0000
  H   H761      1.0  0.97837  0.44842  0.43764  1.0000
  H   H762      1.0  0.65949  0.21255  0.65315  1.0000
  H   H763      1.0  0.50610  0.98145  0.56880  1.0000
  Fe  Fe48      1.0  0.70120  0.32226  0.86006  1.0000
  S   S93       1.0  0.67417  0.27949  0.85591  1.0000
  S   S94       1.0  0.68828  0.36415  0.88376  1.0000
  Fe  Fe49      1.0  0.75485  0.29635  0.82933  1.0000
  S   S95       1.0  0.73263  0.25112  0.82282  1.0000
  S   S96       1.0  0.80393  0.30368  0.81913  1.0000
  Fe  Fe50      1.0  0.69117  0.27765  0.81227  1.0000
  S   S97       1.0  0.65702  0.26510  0.77850  1.0000
  Fe  Fe51      1.0  0.71773  0.25661  0.86682  1.0000
  S   S98       1.0  0.71668  0.22124  0.89962  1.0000
  S   S99       1.0  0.71463  0.32275  0.81509  1.0000
  S   S100      1.0  0.74363  0.29934  0.87454  1.0000
  H   H764      1.0  0.92106  0.09891  0.65675  1.0000
  H   H765      1.0  0.81686  0.25882  0.88835  1.0000
  H   H766      1.0  0.86165  0.16242  0.70798  1.0000
  Fe  Fe52      1.0  0.87300  0.30266  0.67536  1.0000
  S   S101      1.0  0.92210  0.29321  0.68582  1.0000
  S   S102      1.0  0.84076  0.33418  0.69599  1.0000
  H   H767      1.0  0.58255  0.34825  0.86076  1.0000
  H   H768      1.0  0.85814  0.20861  0.80803  1.0000
  Fe  Fe53      1.0  0.90915  0.24531  0.67594  1.0000
  S   S103      1.0  0.92529  0.20254  0.69580  1.0000
  C   C419      1.0  0.82348  0.18950  0.70083  1.0000
  S   S104      1.0  0.85940  0.25440  0.66987  1.0000
  Fe  Fe54      1.0  0.75655  0.09428  0.69197  1.0000
  S   S105      1.0  0.71410  0.07179  0.70692  1.0000
  S   S106      1.0  0.80496  0.08868  0.70658  1.0000
  H   H769      1.0  0.86640  0.10760  0.69528  1.0000
  H   H770      1.0  0.69405  0.26577  0.93561  1.0000
  H   H771      1.0  0.92873  0.99641  0.89821  1.0000
  Fe  Fe55      1.0  0.69372  0.11715  0.70147  1.0000
  S   S107      1.0  0.65793  0.13325  0.73021  1.0000
  H   H772      1.0  0.61823  0.03094  0.66781  1.0000
  C   C420      1.0  0.77112  0.34786  0.93086  1.0000
  S   S108      1.0  0.73732  0.14054  0.69061  1.0000
  H   H773      1.0  0.59890  0.01264  0.69566  1.0000
  Fe  Fe56      1.0  0.92514  0.09927  0.88871  1.0000
  S   S109      1.0  0.91874  0.10010  0.84199  1.0000
  H   H774      1.0  0.79138  0.36183  0.93691  1.0000
  Fe  Fe57      1.0  0.86732  0.13477  0.89807  1.0000
  S   S110      1.0  0.85623  0.13787  0.85256  1.0000
  S   S111      1.0  0.83855  0.15535  0.93108  1.0000
  Fe  Fe58      1.0  0.86974  0.08988  0.85112  1.0000
  S   S112      1.0  0.83916  0.05521  0.83037  1.0000
  Fe  Fe59      1.0  0.90594  0.14806  0.84811  1.0000
  S   S113      1.0  0.92079  0.19019  0.82662  1.0000
  S   S114      1.0  0.87702  0.08563  0.89728  1.0000
  S   S115      1.0  0.91626  0.14816  0.89411  1.0000
  H   H775      1.0  0.68181  0.05677  0.78778  1.0000
  C   C421      1.0  0.67278  0.30105  0.96096  1.0000
  H   H776      1.0  0.63645  0.32322  0.88676  1.0000
  H   H777      1.0  0.68872  0.26218  0.66773  1.0000
  H   H778      1.0  0.64791  0.24942  0.90956  1.0000
  H   H779      1.0  0.90482  0.01928  0.75796  1.0000
  C   C422      1.0  0.94255  0.03854  0.94236  1.0000
  H   H780      1.0  0.87002  0.32543  0.82720  1.0000
  H   H781      1.0  0.92089  0.04827  0.93703  1.0000
  C   C423      1.0  0.81234  0.08113  0.74180  1.0000
  C   C424      1.0  0.79356  0.06170  0.75657  1.0000
  C   C425      1.0  0.80172  0.05388  0.78398  1.0000
  C   C426      1.0  0.82799  0.06636  0.79685  1.0000
  C   C427      1.0  0.84577  0.08704  0.78257  1.0000
  C   C428      1.0  0.83842  0.09378  0.75483  1.0000
  H   H782      1.0  0.77353  0.05175  0.74648  1.0000
  H   H783      1.0  0.78788  0.03796  0.79511  1.0000
  H   H784      1.0  0.86587  0.09701  0.79253  1.0000
  H   H785      1.0  0.85282  0.10913  0.74363  1.0000
  C   C429      1.0  0.72205  0.32466  0.94835  1.0000
  H   H786      1.0  0.77565  0.31024  0.67772  1.0000
  C   C430      1.0  0.90546  0.09191  0.67342  1.0000
  H   H787      1.0  0.65102  0.07818  0.77334  1.0000
  H   H788      1.0  0.75767  0.36000  0.91478  1.0000
  S   S116      1.0  0.57281  0.36198  0.96040  1.0000
  C   C431      1.0  0.92097  0.19898  0.73196  1.0000
  C   C432      1.0  0.92332  0.17067  0.74412  1.0000
  C   C433      1.0  0.92167  0.16744  0.77313  1.0000
  C   C434      1.0  0.91868  0.19272  0.79011  1.0000
  C   C435      1.0  0.91578  0.22096  0.77793  1.0000
  C   C436      1.0  0.91643  0.22404  0.74885  1.0000
  H   H789      1.0  0.92711  0.15129  0.73118  1.0000
  H   H790      1.0  0.92412  0.14566  0.78244  1.0000
  H   H791      1.0  0.91344  0.24057  0.79102  1.0000
  H   H792      1.0  0.91461  0.24593  0.73962  1.0000
  C   C437      1.0  0.65864  0.22852  0.76509  1.0000
  C   C438      1.0  0.63144  0.21393  0.75713  1.0000
  C   C439      1.0  0.63170  0.18477  0.74639  1.0000
  C   C440      1.0  0.65924  0.17045  0.74222  1.0000
  C   C441      1.0  0.68674  0.18534  0.74921  1.0000
  C   C442      1.0  0.68636  0.21413  0.76141  1.0000
  H   H793      1.0  0.61000  0.22497  0.75988  1.0000
  H   H794      1.0  0.61042  0.17332  0.74113  1.0000
  H   H795      1.0  0.70808  0.17429  0.74612  1.0000
  H   H796      1.0  0.70736  0.22538  0.76767  1.0000
  C   C443      1.0  0.75105  0.20353  0.90732  1.0000
  C   C444      1.0  0.75601  0.19278  0.93426  1.0000
  C   C445      1.0  0.78300  0.17819  0.94119  1.0000
  C   C446      1.0  0.80477  0.17322  0.92099  1.0000
  C   C447      1.0  0.79954  0.18338  0.89376  1.0000
  C   C448      1.0  0.77297  0.19917  0.88706  1.0000
  H   H797      1.0  0.73900  0.19592  0.94989  1.0000
  H   H798      1.0  0.66890  0.40450  0.92639  1.0000
  H   H799      1.0  0.81622  0.17965  0.87809  1.0000
  H   H800      1.0  0.76914  0.20735  0.86615  1.0000
  C   C449      1.0  0.81313  0.31131  0.78445  1.0000
  C   C450      1.0  0.84012  0.30009  0.77376  1.0000
  C   C451      1.0  0.84827  0.30626  0.74630  1.0000
  C   C452      1.0  0.83006  0.32467  0.72980  1.0000
  C   C453      1.0  0.80313  0.33603  0.74049  1.0000
  C   C454      1.0  0.79439  0.32894  0.76765  1.0000
  H   H801      1.0  0.85476  0.28644  0.78660  1.0000
  H   H802      1.0  0.86906  0.29744  0.73814  1.0000
  H   H803      1.0  0.78905  0.35033  0.72775  1.0000
  H   H804      1.0  0.77370  0.33786  0.77588  1.0000
  C   C455      1.0  0.65589  0.36365  0.90471  1.0000
  C   C456      1.0  0.65209  0.38659  0.92446  1.0000
  C   C457      1.0  0.62681  0.38633  0.94191  1.0000
  C   C458      1.0  0.60506  0.36323  0.93941  1.0000
  C   C459      1.0  0.60867  0.34055  0.91945  1.0000
  C   C460      1.0  0.63401  0.34072  0.90219  1.0000
  C   C461      1.0  0.94407  0.01380  0.96025  1.0000
  H   H805      1.0  0.62411  0.40398  0.95717  1.0000
  H   H806      1.0  0.87113  0.30412  0.89059  1.0000
  H   H807      1.0  0.82282  0.13530  0.67579  1.0000
  N   N22       1.0  0.73189  0.26436  0.69065  1.0000
  C   C462      1.0  0.72321  0.29480  0.70137  1.0000
  H   H808      1.0  0.55775  0.38007  0.89528  1.0000
  C   C463      1.0  0.70293  0.24788  0.68159  1.0000
  C   C464      1.0  0.74828  0.24573  0.71232  1.0000
  C   C465      1.0  0.76786  0.26249  0.73503  1.0000
  C   C466      1.0  0.69873  0.29485  0.72404  1.0000
  H   H809      1.0  0.59335  0.39632  0.88431  1.0000
  C   C467      1.0  0.70723  0.21767  0.66608  1.0000
  C   C468      1.0  0.78141  0.24066  0.75601  1.0000
  C   C469      1.0  0.83557  0.27461  0.92728  1.0000
  H   H810      1.0  0.71446  0.30873  0.68389  1.0000
  H   H811      1.0  0.74337  0.30735  0.70994  1.0000
  C   C470      1.0  0.96914  0.05054  0.93121  1.0000
  H   H812      1.0  0.77912  0.32658  0.92177  1.0000
  H   H813      1.0  0.68874  0.24293  0.69999  1.0000
  H   H814      1.0  0.73175  0.23172  0.72383  1.0000
  H   H815      1.0  0.76330  0.22933  0.70209  1.0000
  H   H816      1.0  0.75421  0.27826  0.74728  1.0000
  H   H817      1.0  0.78673  0.27523  0.72571  1.0000
  H   H818      1.0  0.67586  0.29001  0.71453  1.0000
  H   H819      1.0  0.70342  0.27755  0.73984  1.0000
  C   C471      1.0  0.64584  0.26266  0.92911  1.0000
  H   H820      1.0  0.83427  0.29834  0.92088  1.0000
  C   C472      1.0  0.92471  0.08404  0.69919  1.0000
  H   H821      1.0  0.54253  0.99320  0.66672  1.0000
  H   H822      1.0  0.76326  0.22732  0.76601  1.0000
  H   H823      1.0  0.79731  0.22547  0.74572  1.0000
  H   H824      1.0  0.79419  0.25321  0.77263  1.0000
  H   H825      1.0  0.81862  0.21658  0.80222  1.0000
  C   C473      1.0  0.88275  0.11696  0.68016  1.0000
  H   H826      1.0  0.54728  0.41492  0.92705  1.0000
  C   C474      1.0  0.57045  0.36854  0.85377  1.0000
  C   C475      1.0  0.56945  0.39113  0.87782  1.0000
  H   H827      1.0  0.89629  0.13456  0.69165  1.0000
  H   H828      1.0  0.90020  0.27065  0.91556  1.0000
  H   H829      1.0  0.62584  0.27731  0.92687  1.0000
  H   H830      1.0  0.78686  0.17035  0.96222  1.0000
  N   N23       1.0  0.73182  0.13122  0.82016  1.0000
  C   C476      1.0  0.75208  0.13275  0.79526  1.0000
  C   C477      1.0  0.71119  0.10405  0.81671  1.0000
  C   C478      1.0  0.71378  0.15961  0.82153  1.0000
  C   C479      1.0  0.75018  0.12852  0.84691  1.0000
  C   C480      1.0  0.77179  0.10150  0.84871  1.0000
  C   C481      1.0  0.77851  0.15618  0.79693  1.0000
  C   C482      1.0  0.68852  0.16056  0.84356  1.0000
  C   C483      1.0  0.68742  0.10514  0.79234  1.0000
  C   C484      1.0  0.66761  0.07674  0.79109  1.0000
  C   C485      1.0  0.78728  0.09996  0.87751  1.0000
  C   C486      1.0  0.79206  0.16080  0.76822  1.0000
  C   C487      1.0  0.66932  0.18852  0.84011  1.0000
  H   H831      1.0  0.73828  0.13775  0.77618  1.0000
  H   H832      1.0  0.76235  0.11061  0.79099  1.0000
  H   H833      1.0  0.72479  0.08379  0.81267  1.0000
  H   H834      1.0  0.69912  0.09929  0.83635  1.0000
  H   H835      1.0  0.70328  0.16454  0.80084  1.0000
  H   H836      1.0  0.72895  0.17917  0.82643  1.0000
  H   H837      1.0  0.76407  0.14918  0.85098  1.0000
  H   H838      1.0  0.73479  0.12669  0.86490  1.0000
  H   H839      1.0  0.78976  0.10320  0.83299  1.0000
  H   H840      1.0  0.75934  0.07999  0.84535  1.0000
  H   H841      1.0  0.77105  0.17827  0.80447  1.0000
  H   H842      1.0  0.79686  0.14842  0.81124  1.0000
  H   H843      1.0  0.69875  0.16117  0.86493  1.0000
  H   H844      1.0  0.67276  0.14102  0.84176  1.0000
  H   H845      1.0  0.67200  0.12435  0.79447  1.0000
  H   H846      1.0  0.69894  0.10689  0.77211  1.0000
  H   H847      1.0  0.65479  0.07417  0.81060  1.0000
  H   H848      1.0  0.80069  0.12068  0.88215  1.0000
  H   H849      1.0  0.77016  0.09686  0.89393  1.0000
  H   H850      1.0  0.80298  0.08080  0.87821  1.0000
  H   H851      1.0  0.81303  0.17490  0.77000  1.0000
  H   H852      1.0  0.79808  0.13913  0.75872  1.0000
  H   H853      1.0  0.77540  0.17187  0.75416  1.0000
  H   H854      1.0  0.65757  0.18851  0.81935  1.0000
  H   H855      1.0  0.65189  0.18916  0.85646  1.0000
  H   H856      1.0  0.68377  0.20902  0.84236  1.0000
  C   C488      1.0  0.67490  0.28127  0.93439  1.0000
  H   H857      1.0  0.92530  0.98707  0.79485  1.0000
  H   H858      1.0  0.70907  0.33908  0.93374  1.0000
  H   H859      1.0  0.72847  0.30512  0.93558  1.0000
  H   H860      1.0  0.65587  0.31835  0.95520  1.0000
  H   H861      1.0  0.67842  0.29569  0.91600  1.0000
  H   H862      1.0  0.62265  0.46794  0.94421  1.0000
  C   C489      1.0  0.80699  0.26737  0.94365  1.0000
  C   C490      1.0  0.75084  0.26833  0.66506  1.0000
  C   C491      1.0  0.89681  0.02222  0.77957  1.0000
  H   H863      1.0  0.80782  0.24419  0.95177  1.0000
  C   C492      1.0  0.94767  0.23466  0.91246  1.0000
  H   H864      1.0  0.53103  0.45020  0.93197  1.0000
  H   H865      1.0  0.72442  0.20388  0.67694  1.0000
  H   H866      1.0  0.64221  0.24685  0.94646  1.0000
  H   H867      1.0  0.59619  0.45650  0.88199  1.0000
  C   C493      1.0  0.69749  0.32524  0.73875  1.0000
  C   C494      1.0  0.55263  0.41979  0.86880  1.0000
  H   H868      1.0  0.93914  0.10351  0.70604  1.0000
  C   C495      1.0  0.77999  0.28806  0.66838  1.0000
  H   H869      1.0  0.67925  0.32478  0.75437  1.0000
  C   C496      1.0  0.59651  0.01993  0.67367  1.0000
  H   H870      1.0  0.85552  0.27209  0.94158  1.0000
  H   H871      1.0  0.71946  0.33049  0.74978  1.0000
  H   H872      1.0  0.69245  0.34313  0.72352  1.0000
  H   H873      1.0  0.75860  0.24635  0.65710  1.0000
  C   C497      1.0  0.90957  0.01345  0.83075  1.0000
  H   H874      1.0  0.91853  0.03135  0.88487  1.0000
  C   C498      1.0  0.67746  0.19957  0.66396  1.0000
  C   C499      1.0  0.58147  0.45317  0.90036  1.0000
  H   H875      1.0  0.54708  0.36173  0.84674  1.0000
  N   N24       1.0  0.54961  0.44366  0.89099  1.0000
  H   H876      1.0  0.90710  0.03766  0.83550  1.0000
  H   H877      1.0  0.56479  0.42929  0.85068  1.0000
  H   H878      1.0  0.74713  0.36389  0.96589  1.0000
  H   H879      1.0  0.88464  0.23188  0.85004  1.0000
  H   H880      1.0  0.79721  0.27649  0.68135  1.0000
  H   H881      1.0  0.59170  0.32283  0.91723  1.0000
  H   H882      1.0  0.94111  0.22161  0.93103  1.0000
  C   C500      1.0  0.84092  0.14958  0.66692  1.0000
  H   H883      1.0  0.59231  0.43520  0.91287  1.0000
  H   H884      1.0  0.86651  0.18941  0.68071  1.0000
  H   H885      1.0  0.91078  0.32871  0.82590  1.0000
  H   H886      1.0  0.51862  0.45787  0.83663  1.0000
  H   H887      1.0  0.97766  0.00097  0.89394  1.0000
  H   H888      1.0  0.95979  0.03714  0.85492  1.0000
  C   C501      1.0  0.88155  0.99896  0.88392  1.0000
  H   H889      1.0  0.83198  0.20593  0.71676  1.0000
  H   H890      1.0  0.90988  0.07723  0.71656  1.0000
  H   H891      1.0  0.57817  0.03662  0.67189  1.0000
  C   C502      1.0  0.85065  0.17290  0.68958  1.0000
  C   C503      1.0  0.75201  0.34180  0.95645  1.0000
  H   H892      1.0  0.89321  0.04640  0.78331  1.0000
  H   H893      1.0  0.58287  0.37817  0.83597  1.0000
  H   H894      1.0  0.78631  0.26945  0.93007  1.0000
  H   H895      1.0  0.48911  0.41951  0.95501  1.0000
  H   H896      1.0  0.80737  0.17359  0.71057  1.0000
  S   S117      1.0  0.96834  0.07925  0.90628  1.0000
  H   H897      1.0  0.82948  0.19090  0.82908  1.0000
  C   C504      1.0  0.83615  0.21174  0.81841  1.0000
  C   C505      1.0  0.53342  0.43209  0.91622  1.0000
  H   H898      1.0  0.81540  0.24024  0.84784  1.0000
  H   H899      1.0  0.84402  0.25790  0.82707  1.0000
  C   C506      1.0  0.83828  0.23775  0.83912  1.0000
  H   H900      1.0  0.89551  0.27713  0.83625  1.0000
  H   H901      1.0  0.68555  0.36110  0.97215  1.0000
  N   N25       1.0  0.70195  0.31571  0.97209  1.0000
  C   C507      1.0  0.89144  0.32453  0.83990  1.0000
  C   C508      1.0  0.89466  0.29387  0.85336  1.0000
  H   H902      1.0  0.86035  0.21029  0.87084  1.0000
  H   H903      1.0  0.84651  0.29342  0.86262  1.0000
  H   H904      1.0  0.91663  0.29419  0.86519  1.0000
  C   C509      1.0  0.86340  0.23295  0.86175  1.0000
  C   C510      1.0  0.86824  0.28750  0.87334  1.0000
  H   H905      1.0  0.89140  0.34249  0.85604  1.0000
  N   N26       1.0  0.86599  0.25626  0.88470  1.0000
  H   H906      1.0  0.83430  0.23044  0.90868  1.0000
  H   H907      1.0  0.91573  0.21230  0.88489  1.0000
  C   C511      1.0  0.83733  0.25381  0.90135  1.0000
  C   C512      1.0  0.92118  0.23568  0.89134  1.0000
  H   H908      1.0  0.92904  0.24774  0.87276  1.0000
  H   H909      1.0  0.88576  0.23381  0.92065  1.0000
  C   C513      1.0  0.89269  0.24989  0.90421  1.0000
  H   H910      1.0  0.49982  0.40245  0.89401  1.0000
  H   H911      1.0  0.93983  0.06520  0.69418  1.0000
  H   H912      1.0  0.87627  0.01984  0.92468  1.0000
  H   H913      1.0  0.74280  0.26877  0.96144  1.0000
  H   H914      1.0  0.81137  0.20178  0.68418  1.0000
  H   H915      1.0  0.80537  0.28311  0.96154  1.0000
  H   H916      1.0  0.50427  0.38448  0.94280  1.0000
  Fe  Fe60      1.0  0.70192  0.06504  0.66146  1.0000
  N   N27       1.0  0.92902  0.99886  0.85303  1.0000
  H   H917      1.0  0.95491  0.25763  0.91902  1.0000
  C   C514      1.0  0.87257  0.99768  0.91446  1.0000
  H   H918      1.0  0.66970  0.19334  0.68502  1.0000
  H   H919      1.0  0.96726  0.22355  0.90276  1.0000
  C   C515      1.0  0.72990  0.26570  0.98073  1.0000
  H   H920      1.0  0.92342  0.00436  0.96856  1.0000
  C   C516      1.0  0.96067  0.01241  0.85169  1.0000
  H   H921      1.0  0.76613  0.32882  0.97129  1.0000
  C   C517      1.0  0.97225  0.00124  0.96735  1.0000
  H   H922      1.0  0.53014  0.41226  0.86025  1.0000
  N   N28       1.0  0.86584  0.13042  0.65562  1.0000
  C   C518      1.0  0.50091  0.41914  0.91120  1.0000
  C   C519      1.0  0.58967  0.99314  0.65433  1.0000
  C   C520      1.0  0.91586  0.00683  0.88084  1.0000
  H   H923      1.0  0.48502  0.43757  0.90661  1.0000
  H   H924      1.0  0.86757  0.01638  0.87371  1.0000
  C   C521      1.0  0.92061  0.01066  0.80034  1.0000
  H   H925      1.0  0.97032  0.00888  0.83080  1.0000
  H   H926      1.0  0.94150  0.02444  0.79741  1.0000
  H   H927      1.0  0.89299  0.07119  0.66664  1.0000
  C   C522      1.0  0.50825  0.46481  0.85653  1.0000
  H   H928      1.0  0.88602  0.00389  0.83058  1.0000
  S   S118      1.0  0.67835  0.10870  0.65717  1.0000
  C   C523      1.0  0.53370  0.47063  0.87906  1.0000
  C   C524      1.0  0.48947  0.40352  0.93720  1.0000
  H   H929      1.0  0.87478  0.00995  0.78148  1.0000
  H   H930      1.0  0.71045  0.25006  0.97636  1.0000
  H   H931      1.0  0.66195  0.28751  0.97750  1.0000
  H   H932      1.0  0.49197  0.44702  0.86244  1.0000
  H   H933      1.0  0.84805  0.99162  0.91570  1.0000
  H   H934      1.0  0.87658  0.89588  0.08557  1.0000
  H   H935      1.0  0.92265  0.84842  0.22561  1.0000
  C   C525      1.0  0.90961  0.82003  0.25994  1.0000
  Fe  Fe61      1.0  0.65245  0.58403  0.17103  1.0000
  S   S119      1.0  0.70101  0.58753  0.15789  1.0000
  S   S120      1.0  0.61226  0.56420  0.14672  1.0000
  Fe  Fe62      1.0  0.66528  0.61868  0.22542  1.0000
  S   S121      1.0  0.71477  0.62561  0.21710  1.0000
  S   S122      1.0  0.64191  0.63481  0.26362  1.0000
  Fe  Fe63      1.0  0.69881  0.63494  0.17327  1.0000
  S   S123      1.0  0.71454  0.67507  0.14962  1.0000
  Fe  Fe64      1.0  0.71248  0.57772  0.20284  1.0000
  S   S124      1.0  0.74627  0.54331  0.21612  1.0000
  S   S125      1.0  0.64937  0.63243  0.18302  1.0000
  S   S126      1.0  0.66396  0.56991  0.21455  1.0000
  Fe  Fe65      1.0  0.86241  0.78326  0.15834  1.0000
  S   S127      1.0  0.91181  0.79697  0.15949  1.0000
  S   S128      1.0  0.82678  0.81681  0.16904  1.0000
  Fe  Fe66      1.0  0.87540  0.72012  0.13862  1.0000
  S   S129      1.0  0.92586  0.72828  0.13837  1.0000
  S   S130      1.0  0.85521  0.67502  0.12661  1.0000
  Fe  Fe67      1.0  0.91863  0.75198  0.17911  1.0000
  S   S131      1.0  0.94617  0.74458  0.21856  1.0000
  Fe  Fe68      1.0  0.91448  0.77229  0.11867  1.0000
  H   H936      1.0  0.89090  0.51414  0.23713  1.0000
  S   S132      1.0  0.86896  0.74035  0.18100  1.0000
  S   S133      1.0  0.86420  0.76219  0.11582  1.0000
  C   C526      1.0  0.63951  0.64822  0.02762  1.0000
  H   H937      1.0  0.60552  0.52869  0.19688  1.0000
  H   H938      1.0  0.78329  0.58869  0.17469  1.0000
  C   C527      1.0  0.67611  0.71900  0.27276  1.0000
  H   H939      1.0  0.90817  0.95957  0.01662  1.0000
  H   H940      1.0  0.82728  0.66301  0.23553  1.0000
  H   H941      1.0  0.87915  0.73014  0.25779  1.0000
  H   H942      1.0  0.69617  0.56035  0.26712  1.0000
  H   H943      1.0  0.96533  0.95632  0.10776  1.0000
  H   H944      1.0  0.85152  0.95821  0.01481  1.0000
  S   S134      1.0  0.93582  0.78862  0.07880  1.0000
  H   H945      1.0  0.94611  0.94735  0.04452  1.0000
  H   H946      1.0  0.70800  0.53615  0.29504  1.0000
  C   C528      1.0  0.75354  0.67442  0.14280  1.0000
  C   C529      1.0  0.76719  0.64850  0.13287  1.0000
  C   C530      1.0  0.79829  0.64908  0.12665  1.0000
  C   C531      1.0  0.81591  0.67504  0.13170  1.0000
  C   C532      1.0  0.80217  0.70084  0.14153  1.0000
  C   C533      1.0  0.77101  0.70056  0.14667  1.0000
  H   H947      1.0  0.75371  0.62830  0.12948  1.0000
  H   H948      1.0  0.80882  0.62949  0.11813  1.0000
  H   H949      1.0  0.81549  0.72109  0.14509  1.0000
  H   H950      1.0  0.76064  0.72056  0.15409  1.0000
  H   H951      1.0  0.87676  0.52426  0.27076  1.0000
  C   C534      1.0  0.59569  0.51023  0.08014  1.0000
  C   C535      1.0  0.59238  0.52997  0.10267  1.0000
  C   C536      1.0  0.61753  0.53837  0.11956  1.0000
  C   C537      1.0  0.64607  0.52663  0.11407  1.0000
  H   H952      1.0  0.88761  0.82757  0.21936  1.0000
  H   H953      1.0  0.97258  0.85117  0.98941  1.0000
  H   H954      1.0  0.57027  0.53910  0.10676  1.0000
  H   H955      1.0  0.66553  0.53281  0.12723  1.0000
  H   H956      1.0  0.91237  0.90338  0.10358  1.0000
  C   C538      1.0  0.66288  0.63092  0.04552  1.0000
  C   C539      1.0  0.77370  0.57875  0.25706  1.0000
  C   C540      1.0  0.76335  0.55009  0.24907  1.0000
  H   H957      1.0  0.85149  0.61229  0.15617  1.0000
  H   H958      1.0  0.67857  0.62069  0.03048  1.0000
  H   H959      1.0  0.77080  0.59719  0.24295  1.0000
  H   H960      1.0  0.89672  0.71704  0.28967  1.0000
  C   C541      1.0  0.92250  0.65116  0.25015  1.0000
  C   C542      1.0  0.91453  0.65947  0.22297  1.0000
  C   C543      1.0  0.92177  0.68809  0.21337  1.0000
  C   C544      1.0  0.93784  0.70844  0.23065  1.0000
  H   H961      1.0  0.90652  0.54662  0.25568  1.0000
  H   H962      1.0  0.68959  0.61427  0.09238  1.0000
  H   H963      1.0  0.82994  0.70910  0.27119  1.0000
  H   H964      1.0  0.96405  0.88310  0.03116  1.0000
  H   H965      1.0  0.90209  0.86115  0.05279  1.0000
  H   H966      1.0  0.86810  0.79373  0.25602  1.0000
  C   C545      1.0  0.64519  0.67365  0.26828  1.0000
  H   H967      1.0  0.49971  0.48489  0.09948  1.0000
  C   C546      1.0  0.97941  0.82532  0.10463  1.0000
  H   H968      1.0  0.90178  0.77308  0.25203  1.0000
  C   C547      1.0  0.61948  0.68992  0.27510  1.0000
  C   C548      1.0  0.89343  0.91547  0.03231  1.0000
  H   H969      1.0  0.90183  0.57460  0.10714  1.0000
  Fe  Fe69      1.0  0.90204  0.60976  0.30602  1.0000
  C   C549      1.0  0.80132  0.82354  0.26071  1.0000
  C   C550      1.0  0.80523  0.84916  0.24464  1.0000
  C   C551      1.0  0.81220  0.84670  0.21640  1.0000
  C   C552      1.0  0.81690  0.81865  0.20431  1.0000
  C   C553      1.0  0.81293  0.79284  0.22028  1.0000
  C   C554      1.0  0.80440  0.79527  0.24833  1.0000
  H   H970      1.0  0.80332  0.87105  0.25416  1.0000
  H   H971      1.0  0.81513  0.86668  0.20415  1.0000
  H   H972      1.0  0.81615  0.77106  0.21093  1.0000
  H   H973      1.0  0.80136  0.77537  0.26062  1.0000
  N   N29       1.0  0.88960  0.78078  0.29510  1.0000
  H   H974      1.0  0.79610  0.53779  0.13326  1.0000
  C   C555      1.0  0.78820  0.58342  0.28322  1.0000
  H   H975      1.0  0.89645  0.56033  0.15614  1.0000
  H   H976      1.0  0.95964  0.71538  0.27090  1.0000
  H   H977      1.0  0.67730  0.64746  0.05755  1.0000
  H   H978      1.0  0.71277  0.61022  0.28901  1.0000
  H   H979      1.0  0.90262  0.64382  0.20929  1.0000
  C   C556      1.0  0.76699  0.52628  0.26745  1.0000
  C   C557      1.0  0.89930  0.88673  0.09066  1.0000
  H   H980      1.0  0.95199  0.91188  0.00907  1.0000
  H   H981      1.0  0.53344  0.49207  0.14140  1.0000
  C   C558      1.0  0.68584  0.57671  0.30874  1.0000
  H   H982      1.0  0.69803  0.73011  0.27228  1.0000
  C   C559      1.0  0.89272  0.59091  0.12224  1.0000
  H   H983      1.0  0.87960  0.54553  0.19660  1.0000
  H   H984      1.0  0.92389  0.80896  0.21821  1.0000
  C   C560      1.0  0.65025  0.73538  0.27891  1.0000
  H   H985      1.0  0.84037  0.53886  0.23459  1.0000
  S   S135      1.0  0.79818  0.82784  0.29697  1.0000
  H   H986      1.0  0.96499  0.90356  0.09097  1.0000
  H   H987      1.0  0.60184  0.73345  0.28451  1.0000
  C   C561      1.0  0.98174  0.94871  0.09206  1.0000
  C   C562      1.0  0.89137  0.79061  0.26509  1.0000
  H   H988      1.0  0.93054  0.75581  0.28886  1.0000
  H   H989      1.0  0.69340  0.67573  0.26147  1.0000
  C   C563      1.0  0.91090  0.82661  0.22884  1.0000
  N   N30       1.0  0.65025  0.60740  0.06460  1.0000
  C   C564      1.0  0.62759  0.62000  0.08454  1.0000
  C   C565      1.0  0.63603  0.58153  0.04801  1.0000
  C   C566      1.0  0.67653  0.59559  0.08191  1.0000
  C   C567      1.0  0.70018  0.57692  0.06599  1.0000
  C   C568      1.0  0.60159  0.58313  0.04022  1.0000
  H   H990      1.0  0.56730  0.55965  0.01453  1.0000
  C   C569      1.0  0.72525  0.56612  0.08581  1.0000
  H   H991      1.0  0.61873  0.60179  0.09797  1.0000
  H   H992      1.0  0.60723  0.62850  0.07337  1.0000
  H   H993      1.0  0.64880  0.57762  0.02857  1.0000
  H   H994      1.0  0.63794  0.56041  0.05999  1.0000
  H   H995      1.0  0.66779  0.58149  0.09906  1.0000
  H   H996      1.0  0.71127  0.59044  0.04974  1.0000
  H   H997      1.0  0.68953  0.55677  0.05591  1.0000
  H   H998      1.0  0.58798  0.57890  0.05906  1.0000
  H   H999      1.0  0.67287  0.66504  0.99835  1.0000
  H   H1000     1.0  0.59860  0.53673  0.02544  1.0000
  C   C570      1.0  0.96726  0.81350  0.07961  1.0000
  H   H1001     1.0  0.62890  0.63309  0.01159  1.0000
  H   H1002     1.0  0.73741  0.58547  0.09594  1.0000
  H   H1003     1.0  0.71550  0.55152  0.10206  1.0000
  H   H1004     1.0  0.86209  0.74845  0.31741  1.0000
  H   H1005     1.0  0.80943  0.63117  0.18060  1.0000
  N   N31       1.0  0.71050  0.77703  0.20085  1.0000
  C   C571      1.0  0.71901  0.77344  0.17070  1.0000
  C   C572      1.0  0.67768  0.76740  0.20461  1.0000
  C   C573      1.0  0.71385  0.80988  0.20839  1.0000
  C   C574      1.0  0.73149  0.76017  0.22010  1.0000
  C   C575      1.0  0.73130  0.72582  0.21686  1.0000
  C   C576      1.0  0.75151  0.78422  0.16307  1.0000
  C   C577      1.0  0.69977  0.82005  0.23628  1.0000
  C   C578      1.0  0.66514  0.74083  0.18626  1.0000
  C   C579      1.0  0.63498  0.72870  0.19706  1.0000
  C   C580      1.0  0.75525  0.71214  0.23617  1.0000
  C   C581      1.0  0.75603  0.78237  0.13159  1.0000
  C   C582      1.0  0.70659  0.85324  0.24189  1.0000
  H   H1006     1.0  0.70251  0.78568  0.15722  1.0000
  H   H1007     1.0  0.71708  0.74974  0.16377  1.0000
  H   H1008     1.0  0.67377  0.76218  0.22690  1.0000
  H   H1009     1.0  0.66218  0.78613  0.19953  1.0000
  H   H1010     1.0  0.70354  0.82380  0.19161  1.0000
  H   H1011     1.0  0.73835  0.81664  0.21004  1.0000
  H   H1012     1.0  0.75524  0.76840  0.21809  1.0000
  H   H1013     1.0  0.72594  0.76461  0.24217  1.0000
  H   H1014     1.0  0.73612  0.71883  0.19533  1.0000
  H   H1015     1.0  0.70901  0.71627  0.22275  1.0000
  H   H1016     1.0  0.75597  0.80785  0.16922  1.0000
  H   H1017     1.0  0.76895  0.77019  0.17339  1.0000
  H   H1018     1.0  0.70907  0.80747  0.25423  1.0000
  H   H1019     1.0  0.67467  0.81695  0.23578  1.0000
  H   H1020     1.0  0.66105  0.74853  0.16456  1.0000
  H   H1021     1.0  0.68091  0.72192  0.18519  1.0000
  H   H1022     1.0  0.63843  0.71889  0.21804  1.0000
  H   H1023     1.0  0.61800  0.74672  0.19828  1.0000
  H   H1024     1.0  0.62591  0.71078  0.18283  1.0000
  H   H1025     1.0  0.75374  0.68740  0.23440  1.0000
  H   H1026     1.0  0.77843  0.71976  0.23040  1.0000
  C   C583      1.0  0.92096  0.77134  0.30451  1.0000
  H   H1027     1.0  0.78009  0.78803  0.12698  1.0000
  H   H1028     1.0  0.75083  0.75954  0.12334  1.0000
  H   H1029     1.0  0.74118  0.79854  0.12063  1.0000
  H   H1030     1.0  0.69475  0.86060  0.26086  1.0000
  H   H1031     1.0  0.73145  0.85712  0.24532  1.0000
  H   H1032     1.0  0.69848  0.86700  0.22415  1.0000
  Fe  Fe70      1.0  0.75714  0.80937  0.31826  1.0000
  C   C584      1.0  0.87565  0.72625  0.28027  1.0000
  H   H1033     1.0  0.74196  0.55299  0.07401  1.0000
  C   C585      1.0  0.61375  0.65845  0.12112  1.0000
  C   C586      1.0  0.64946  0.50713  0.09123  1.0000
  H   H1034     1.0  0.84438  0.76260  0.28729  1.0000
  H   H1035     1.0  0.80406  0.67763  0.20752  1.0000
  C   C587      1.0  0.65503  0.67377  0.01212  1.0000
  H   H1036     1.0  0.94497  0.66507  0.28860  1.0000
  H   H1037     1.0  0.63793  0.68548  0.99898  1.0000
  H   H1038     1.0  0.90878  0.93021  0.99085  1.0000
  H   H1039     1.0  0.88553  0.61091  0.17588  1.0000
  C   C588      1.0  0.94332  0.89303  0.02177  1.0000
  H   H1040     1.0  0.84537  0.64949  0.18830  1.0000
  H   H1041     1.0  0.91675  0.84962  0.11516  1.0000
  H   H1042     1.0  0.60364  0.56400  0.99831  1.0000
  H   H1043     1.0  0.66826  0.53822  0.28509  1.0000
  C   C589      1.0  0.81112  0.65690  0.21825  1.0000
  H   H1044     1.0  0.75907  0.50409  0.26133  1.0000
  H   H1045     1.0  0.59640  0.66871  0.10718  1.0000
  H   H1046     1.0  0.93755  0.86717  0.06990  1.0000
  C   C590      1.0  0.63954  0.64558  0.10418  1.0000
  H   H1047     1.0  0.74961  0.64257  0.28526  1.0000
  H   H1048     1.0  0.88114  0.84148  0.09686  1.0000
  C   C591      1.0  0.88545  0.53328  0.25093  1.0000
  H   H1049     1.0  0.66552  0.69023  0.02712  1.0000
  C   C592      1.0  0.62421  0.49878  0.07428  1.0000
  C   C593      1.0  0.68983  0.55132  0.28768  1.0000
  H   H1050     1.0  0.62164  0.65821  0.04045  1.0000
  C   C594      1.0  0.62187  0.72088  0.27972  1.0000
  H   H1051     1.0  0.89883  0.83945  0.27003  1.0000
  H   H1052     1.0  0.87997  0.92604  0.04896  1.0000
  H   H1053     1.0  0.77224  0.53366  0.16314  1.0000
  C   C595      1.0  0.60378  0.51068  0.21253  1.0000
  H   H1054     1.0  0.87888  0.89650  0.02429  1.0000
  C   C596      1.0  0.93929  0.92976  0.05952  1.0000
  H   H1055     1.0  0.85902  0.68105  0.27302  1.0000
  H   H1056     1.0  0.76212  0.55946  0.13614  1.0000
  C   C597      1.0  0.89451  0.85900  0.10856  1.0000
  H   H1057     1.0  0.97007  0.81841  0.12425  1.0000
  H   H1058     1.0  0.88192  0.86498  0.12757  1.0000
  C   C598      1.0  0.91628  0.87868  0.06371  1.0000
  C   C599      1.0  0.93837  0.67153  0.26768  1.0000
  H   H1059     1.0  0.91536  0.69415  0.19233  1.0000
  C   C600      1.0  0.82628  0.63647  0.19734  1.0000
  H   H1060     1.0  0.62341  0.51315  0.22743  1.0000
  H   H1061     1.0  0.75126  0.71863  0.25815  1.0000
  H   H1062     1.0  0.57703  0.49542  0.16413  1.0000
  H   H1063     1.0  0.87544  0.60467  0.11126  1.0000
  C   C601      1.0  0.89620  0.93901  0.00883  1.0000
  C   C602      1.0  0.67347  0.68828  0.26664  1.0000
  C   C603      1.0  0.86675  0.75525  0.29582  1.0000
  H   H1064     1.0  0.79641  0.60551  0.28928  1.0000
  C   C604      1.0  0.87232  0.56520  0.20893  1.0000
  N   N32       1.0  0.92305  0.90423  0.04435  1.0000
  H   H1065     1.0  0.78100  0.51307  0.30881  1.0000
  C   C605      1.0  0.77957  0.53131  0.29421  1.0000
  C   C606      1.0  0.86604  0.59671  0.16810  1.0000
  H   H1066     1.0  0.93338  0.81853  0.26794  1.0000
  H   H1067     1.0  0.59762  0.67862  0.27647  1.0000
  H   H1068     1.0  0.79067  0.64574  0.22680  1.0000
  H   H1069     1.0  0.85653  0.57131  0.25208  1.0000
  H   H1070     1.0  0.92373  0.94105  0.07408  1.0000
  C   C607      1.0  0.83850  0.60784  0.21137  1.0000
  N   N33       1.0  0.84958  0.58331  0.19242  1.0000
  H   H1071     1.0  0.85726  0.61594  0.22572  1.0000
  H   H1072     1.0  0.78239  0.68654  0.28588  1.0000
  H   H1073     1.0  0.82068  0.59889  0.22516  1.0000
  C   C608      1.0  0.79957  0.57501  0.16288  1.0000
  H   H1074     1.0  0.81094  0.55456  0.20144  1.0000
  C   C609      1.0  0.82385  0.56241  0.18321  1.0000
  H   H1075     1.0  0.80966  0.58873  0.14644  1.0000
  C   C610      1.0  0.87851  0.57431  0.14656  1.0000
  H   H1076     1.0  0.91169  0.60583  0.12984  1.0000
  S   S136      1.0  0.91353  0.61470  0.26093  1.0000
  C   C611      1.0  0.94660  0.69997  0.25770  1.0000
  H   H1077     1.0  0.86006  0.55954  0.13784  1.0000
  C   C612      1.0  0.78146  0.54986  0.14801  1.0000
  H   H1078     1.0  0.83304  0.54167  0.17386  1.0000
  H   H1079     1.0  0.89342  0.57877  0.21341  1.0000
  C   C613      1.0  0.86129  0.55285  0.23726  1.0000
  H   H1080     1.0  0.58249  0.51341  0.22421  1.0000
  H   H1081     1.0  0.65686  0.63721  0.11923  1.0000
  H   H1082     1.0  0.73456  0.58436  0.30871  1.0000
  C   C614      1.0  0.74936  0.65668  0.30437  1.0000
  C   C615      1.0  0.77928  0.67456  0.30570  1.0000
  C   C616      1.0  0.96886  0.92168  0.07580  1.0000
  S   S137      1.0  0.65297  0.77404  0.28513  1.0000
  C   C617      1.0  0.85093  0.70214  0.28249  1.0000
  C   C618      1.0  0.79026  0.55983  0.30217  1.0000
  H   H1083     1.0  0.68667  0.64963  0.31112  1.0000
  H   H1084     1.0  0.64975  0.66420  0.09230  1.0000
  H   H1085     1.0  0.60274  0.64063  0.13357  1.0000
  Fe  Fe71      1.0  0.69268  0.78558  0.31354  1.0000
  C   C619      1.0  0.86486  0.94818  0.99784  1.0000
  H   H1086     1.0  0.92332  0.84820  0.01344  1.0000
  C   C620      1.0  0.97964  0.82248  0.05427  1.0000
  H   H1087     1.0  0.57629  0.50465  0.06679  1.0000
  H   H1088     1.0  0.89844  0.82257  0.31730  1.0000
  S   S138      1.0  0.97367  0.96949  0.98890  1.0000
  H   H1089     1.0  0.61705  0.85363  0.30683  1.0000
  S   S139      1.0  0.73780  0.76301  0.31283  1.0000
  H   H1090     1.0  0.84586  0.69779  0.30468  1.0000
  C   C621      1.0  0.71392  0.59827  0.30921  1.0000
  H   H1091     1.0  0.62307  0.67597  0.13567  1.0000
  C   C622      1.0  0.59232  0.55941  0.01830  1.0000
  H   H1092     1.0  0.66507  0.58900  0.30254  1.0000
  S   S140      1.0  0.71228  0.83205  0.31493  1.0000
  H   H1093     1.0  0.97032  0.81332  0.03489  1.0000
  H   H1094     1.0  0.59507  0.60514  0.03197  1.0000
  H   H1095     1.0  0.79883  0.65950  0.30891  1.0000
  H   H1096     1.0  0.67162  0.49838  0.08675  1.0000
  H   H1097     1.0  0.73067  0.67291  0.30244  1.0000
  H   H1098     1.0  0.86259  0.82053  0.29951  1.0000
  C   C623      1.0  0.92915  0.86879  0.00186  1.0000
  H   H1099     1.0  0.93704  0.79077  0.30507  1.0000
  C   C624      1.0  0.87895  0.80713  0.31210  1.0000
  H   H1100     1.0  0.85217  0.92854  0.98883  1.0000
  H   H1101     1.0  0.90832  0.87679  0.99105  1.0000
  H   H1102     1.0  0.95576  0.51990  0.54074  1.0000
  H   H1103     1.0  0.77919  0.69128  0.32296  1.0000
  Fe  Fe72      1.0  0.71070  0.82788  0.36139  1.0000
  S   S141      1.0  0.68723  0.78299  0.35977  1.0000
  S   S142      1.0  0.69649  0.86965  0.38440  1.0000
  Fe  Fe73      1.0  0.73437  0.76422  0.35937  1.0000
  S   S143      1.0  0.74568  0.72324  0.38412  1.0000
  H   H1104     1.0  0.97988  0.51480  0.51119  1.0000
  S   S144      1.0  0.75768  0.80895  0.36508  1.0000
  Fe  Fe74      1.0  0.57672  0.97522  0.52071  1.0000
  H   H1105     1.0  0.58512  0.95919  0.39998  1.0000
  H   H1106     1.0  0.70972  0.67961  0.35326  1.0000
  Fe  Fe75      1.0  0.88765  0.63949  0.36042  1.0000
  S   S145      1.0  0.87295  0.59674  0.38093  1.0000
  S   S146      1.0  0.88345  0.68606  0.37778  1.0000
  Fe  Fe76      1.0  0.91404  0.57712  0.36088  1.0000
  S   S147      1.0  0.94051  0.53755  0.37745  1.0000
  H   H1107     1.0  0.61932  0.84801  0.37068  1.0000
  H   H1108     1.0  0.53212  0.90142  0.33397  1.0000
  S   S148      1.0  0.93115  0.62101  0.34380  1.0000
  H   H1109     1.0  0.56307  0.97153  0.60431  1.0000
  Fe  Fe77      1.0  0.52493  0.92939  0.52404  1.0000
  S   S149      1.0  0.57334  0.92965  0.53980  1.0000
  H   H1110     1.0  0.91848  0.51399  0.43813  1.0000
  H   H1111     1.0  0.66736  0.82143  0.41533  1.0000
  Fe  Fe78      1.0  0.58381  0.91262  0.49662  1.0000
  S   S150      1.0  0.61262  0.87162  0.49002  1.0000
  H   H1112     1.0  0.53293  0.94513  0.60063  1.0000
  S   S151      1.0  0.53475  0.90910  0.48223  1.0000
  H   H1113     1.0  0.56853  0.86393  0.34836  1.0000
  H   H1114     1.0  0.95515  0.72174  0.32254  1.0000
  H   H1115     1.0  0.60928  0.93744  0.42220  1.0000
  C   C625      1.0  0.61858  0.90301  0.62519  1.0000
  C   C626      1.0  0.56992  0.92615  0.64239  1.0000
  H   H1116     1.0  0.84851  0.51766  0.43558  1.0000
  H   H1117     1.0  0.53363  0.88726  0.57584  1.0000
  N   N34       1.0  0.58270  0.90015  0.37664  1.0000
  H   H1118     1.0  0.76553  0.62167  0.33153  1.0000
  H   H1119     1.0  0.49160  0.77665  0.63832  1.0000
  H   H1120     1.0  0.76040  0.61441  0.38110  1.0000
  H   H1121     1.0  0.65501  0.96012  0.39959  1.0000
  H   H1122     1.0  0.90558  0.73997  0.33729  1.0000
  C   C627      1.0  0.61820  0.84088  0.32656  1.0000
  H   H1123     1.0  0.70646  0.59639  0.41741  1.0000
  C   C628      1.0  0.93298  0.52618  0.49961  1.0000
  H   H1124     1.0  0.92306  0.77444  0.35003  1.0000
  C   C629      1.0  0.78381  0.71274  0.38130  1.0000
  C   C630      1.0  0.80581  0.73313  0.37221  1.0000
  C   C631      1.0  0.83643  0.72484  0.37154  1.0000
  C   C632      1.0  0.84497  0.69587  0.37865  1.0000
  C   C633      1.0  0.82282  0.67521  0.38696  1.0000
  C   C634      1.0  0.79242  0.68391  0.38895  1.0000
  H   H1125     1.0  0.79942  0.75547  0.36635  1.0000
  H   H1126     1.0  0.85363  0.74077  0.36558  1.0000
  H   H1127     1.0  0.82930  0.65280  0.39260  1.0000
  H   H1128     1.0  0.77561  0.66823  0.39638  1.0000
  C   C635      1.0  0.67450  0.86910  0.41460  1.0000
  C   C636      1.0  0.66824  0.89636  0.42774  1.0000
  C   C637      1.0  0.64928  0.89733  0.45084  1.0000
  C   C638      1.0  0.63717  0.87087  0.46152  1.0000
  C   C639      1.0  0.64461  0.84338  0.44921  1.0000
  C   C640      1.0  0.66276  0.84251  0.42544  1.0000
  H   H1129     1.0  0.67788  0.91688  0.41980  1.0000
  H   H1130     1.0  0.64435  0.91852  0.46061  1.0000
  H   H1131     1.0  0.63550  0.82281  0.45758  1.0000
  H   H1132     1.0  0.58077  0.74135  0.56266  1.0000
  H   H1133     1.0  0.66436  0.69742  0.32818  1.0000
  H   H1134     1.0  0.49074  0.92122  0.38146  1.0000
  H   H1135     1.0  0.55718  0.90492  0.63770  1.0000
  C   C641      1.0  0.53822  0.76529  0.56642  1.0000
  H   H1136     1.0  0.58444  0.92292  0.59922  1.0000
  C   C642      1.0  0.52078  0.73999  0.58136  1.0000
  H   H1137     1.0  0.84322  0.84501  0.34331  1.0000
  H   H1138     1.0  0.59912  0.82429  0.32683  1.0000
  C   C643      1.0  0.85657  0.82903  0.35605  1.0000
  C   C644      1.0  0.55360  0.91756  0.37314  1.0000
  H   H1139     1.0  0.63758  0.87693  0.35077  1.0000
  C   C645      1.0  0.50981  0.77022  0.62393  1.0000
  C   C646      1.0  0.56384  0.75273  0.54907  1.0000
  S   S152      1.0  0.52745  0.97625  0.50806  1.0000
  H   H1140     1.0  0.53757  0.72555  0.59223  1.0000
  H   H1141     1.0  0.72944  0.63807  0.39027  1.0000
  H   H1142     1.0  0.91480  0.54003  0.50874  1.0000
  C   C647      1.0  0.58754  0.88028  0.35153  1.0000
  C   C648      1.0  0.71712  0.60178  0.36004  1.0000
  H   H1143     1.0  0.57561  0.77129  0.53821  1.0000
  H   H1144     1.0  0.68629  0.65637  0.37513  1.0000
  H   H1145     1.0  0.87418  0.50909  0.48691  1.0000
  H   H1146     1.0  0.73768  0.57267  0.40787  1.0000
  H   H1147     1.0  0.51046  0.72555  0.56454  1.0000
  H   H1148     1.0  0.62844  0.97163  0.56668  1.0000
  H   H1149     1.0  0.94013  0.53785  0.48036  1.0000
  N   N35       1.0  0.75338  0.78342  0.45551  1.0000
  C   C649      1.0  0.72405  0.77706  0.43924  1.0000
  C   C650      1.0  0.76694  0.81359  0.44784  1.0000
  C   C651      1.0  0.77577  0.75986  0.44719  1.0000
  C   C652      1.0  0.74904  0.78161  0.48651  1.0000
  C   C653      1.0  0.72508  0.80273  0.49870  1.0000
  C   C654      1.0  0.70649  0.74783  0.44662  1.0000
  C   C655      1.0  0.80780  0.76218  0.46150  1.0000
  C   C656      1.0  0.74459  0.83869  0.43975  1.0000
  C   C657      1.0  0.76125  0.86865  0.43635  1.0000
  C   C658      1.0  0.71900  0.79535  0.52912  1.0000
  C   C659      1.0  0.67736  0.74408  0.42882  1.0000
  C   C660      1.0  0.83009  0.74128  0.44750  1.0000
  H   H1150     1.0  0.72855  0.77657  0.41649  1.0000
  H   H1151     1.0  0.70755  0.79519  0.44199  1.0000
  H   H1152     1.0  0.78213  0.82240  0.46503  1.0000
  H   H1153     1.0  0.78188  0.81141  0.42947  1.0000
  H   H1154     1.0  0.77885  0.76037  0.42420  1.0000
  H   H1155     1.0  0.76714  0.73701  0.45171  1.0000
  H   H1156     1.0  0.74348  0.75820  0.49252  1.0000
  H   H1157     1.0  0.77070  0.78719  0.49800  1.0000
  H   H1158     1.0  0.70300  0.80115  0.48712  1.0000
  H   H1159     1.0  0.73370  0.82617  0.49827  1.0000
  H   H1160     1.0  0.72018  0.72768  0.44297  1.0000
  H   H1161     1.0  0.69971  0.74820  0.46873  1.0000
  H   H1162     1.0  0.80647  0.75553  0.48368  1.0000
  H   H1163     1.0  0.81757  0.78517  0.46068  1.0000
  H   H1164     1.0  0.73329  0.83296  0.41945  1.0000
  H   H1165     1.0  0.72669  0.84179  0.45527  1.0000
  H   H1166     1.0  0.74463  0.88599  0.43023  1.0000
  H   H1167     1.0  0.77270  0.87580  0.45624  1.0000
  H   H1168     1.0  0.77832  0.86703  0.41973  1.0000
  H   H1169     1.0  0.70936  0.77233  0.53082  1.0000
  H   H1170     1.0  0.74030  0.79732  0.54197  1.0000
  H   H1171     1.0  0.70230  0.81127  0.53749  1.0000
  H   H1172     1.0  0.66258  0.76381  0.43107  1.0000
  H   H1173     1.0  0.68299  0.74101  0.40657  1.0000
  H   H1174     1.0  0.66453  0.72389  0.43548  1.0000
  H   H1175     1.0  0.82087  0.71799  0.44639  1.0000
  H   H1176     1.0  0.83474  0.74903  0.42610  1.0000
  H   H1177     1.0  0.85199  0.74129  0.45951  1.0000
  C   C661      1.0  0.96113  0.52808  0.51966  1.0000
  C   C662      1.0  0.95400  0.74089  0.33737  1.0000
  C   C663      1.0  0.68882  0.66557  0.35394  1.0000
  C   C664      1.0  0.58250  0.88265  0.40336  1.0000
  C   C665      1.0  0.55773  0.85783  0.40530  1.0000
  C   C666      1.0  0.52673  0.90245  0.35647  1.0000
  C   C667      1.0  0.56228  0.83919  0.43152  1.0000
  C   C668      1.0  0.97353  0.56569  0.42031  1.0000
  H   H1178     1.0  0.60508  0.87270  0.40757  1.0000
  H   H1179     1.0  0.57899  0.89776  0.42151  1.0000
  H   H1180     1.0  0.55794  0.84223  0.38726  1.0000
  H   H1181     1.0  0.53502  0.86810  0.40667  1.0000
  H   H1182     1.0  0.61162  0.93363  0.35793  1.0000
  H   H1183     1.0  0.54867  0.78166  0.58142  1.0000
  H   H1184     1.0  0.56213  0.85362  0.45046  1.0000
  H   H1185     1.0  0.54355  0.82234  0.43292  1.0000
  H   H1186     1.0  0.58414  0.82721  0.43086  1.0000
  C   C669      1.0  0.61727  0.86196  0.35178  1.0000
  S   S153      1.0  0.59133  0.95847  0.47887  1.0000
  C   C670      1.0  0.51337  0.88355  0.58776  1.0000
  S   S154      1.0  0.80214  0.56639  0.33691  1.0000
  H   H1187     1.0  0.74480  0.60561  0.42909  1.0000
  C   C671      1.0  0.73073  0.59613  0.41151  1.0000
  H   H1188     1.0  0.75015  0.65279  0.34874  1.0000
  H   H1189     1.0  0.63986  0.82845  0.32712  1.0000
  C   C672      1.0  0.60895  0.92241  0.37841  1.0000
  C   C673      1.0  0.89653  0.51828  0.44821  1.0000
  C   C674      1.0  0.86208  0.80040  0.33942  1.0000
  C   C675      1.0  0.59496  0.92714  0.62016  1.0000
  H   H1190     1.0  0.55575  0.75165  0.62922  1.0000
  C   C676      1.0  0.68928  0.63987  0.33221  1.0000
  H   H1191     1.0  0.95494  0.57425  0.53323  1.0000
  H   H1192     1.0  0.72731  0.57943  0.35622  1.0000
  C   C677      1.0  0.60695  0.94723  0.40118  1.0000
  C   C678      1.0  0.51470  0.86646  0.61218  1.0000
  C   C679      1.0  0.73566  0.61477  0.38544  1.0000
  H   H1193     1.0  0.55461  0.73663  0.53310  1.0000
  H   H1194     1.0  0.55794  0.93900  0.36209  1.0000
  H   H1195     1.0  0.66158  0.70368  0.36503  1.0000
  H   H1196     1.0  0.97763  0.49258  0.40116  1.0000
  H   H1197     1.0  0.63075  0.91093  0.38274  1.0000
  H   H1198     1.0  0.69352  0.59705  0.36692  1.0000
  H   H1199     1.0  0.53607  0.85701  0.61899  1.0000
  H   H1200     1.0  0.63075  0.90691  0.64549  1.0000
  H   H1201     1.0  0.64011  0.67335  0.34843  1.0000
  Fe  Fe79      1.0  0.54138  0.95625  0.46769  1.0000
  H   H1202     1.0  0.50207  0.70964  0.62593  1.0000
  C   C680      1.0  0.49764  0.92039  0.35933  1.0000
  H   H1203     1.0  0.87504  0.78528  0.35305  1.0000
  H   H1204     1.0  0.68194  0.56638  0.32927  1.0000
  Fe  Fe80      1.0  0.84890  0.58728  0.33996  1.0000
  C   C681      1.0  0.74608  0.63734  0.33081  1.0000
  N   N36       1.0  0.49675  0.74982  0.60115  1.0000
  H   H1205     1.0  0.87853  0.83979  0.36274  1.0000
  H   H1206     1.0  0.52190  0.87940  0.36344  1.0000
  C   C682      1.0  0.92374  0.75682  0.33364  1.0000
  N   N37       1.0  0.54827  0.95207  0.64335  1.0000
  H   H1207     1.0  0.52260  0.77703  0.55189  1.0000
  H   H1208     1.0  0.84345  0.82357  0.37487  1.0000
  C   C683      1.0  0.87094  0.51278  0.42658  1.0000
  H   H1209     1.0  0.95591  0.73194  0.35885  1.0000
  N   N38       1.0  0.71655  0.61994  0.33350  1.0000
  H   H1210     1.0  0.89635  0.54237  0.45411  1.0000
  H   H1211     1.0  0.50115  0.94363  0.35190  1.0000
  H   H1212     1.0  0.60752  0.88048  0.62502  1.0000
  H   H1213     1.0  0.83945  0.78990  0.33453  1.0000
  H   H1214     1.0  0.51826  0.79171  0.61550  1.0000
  H   H1215     1.0  0.66798  0.62656  0.33496  1.0000
  H   H1216     1.0  0.54510  0.92422  0.39394  1.0000
  H   H1217     1.0  0.96202  0.58602  0.41461  1.0000
  C   C684      1.0  0.66199  0.68615  0.34851  1.0000
  C   C685      1.0  0.96740  0.53931  0.40521  1.0000
  H   H1218     1.0  0.89654  0.49485  0.53120  1.0000
  H   H1219     1.0  0.50599  0.92657  0.63839  1.0000
  H   H1220     1.0  0.60704  0.94893  0.61965  1.0000
  H   H1221     1.0  0.48304  0.68785  0.58193  1.0000
  H   H1222     1.0  0.97841  0.57020  0.50302  1.0000
  H   H1223     1.0  0.63553  0.90374  0.60840  1.0000
  C   C686      1.0  0.54195  0.96369  0.61435  1.0000
  H   H1224     1.0  0.58747  0.89407  0.33230  1.0000
  C   C687      1.0  0.53618  0.75766  0.64217  1.0000
  H   H1225     1.0  0.49441  0.80776  0.57609  1.0000
  C   C688      1.0  0.63236  0.97067  0.39841  1.0000
  H   H1226     1.0  0.66404  0.97293  0.60778  1.0000
  H   H1227     1.0  0.87441  0.52769  0.40848  1.0000
  C   C689      1.0  0.97252  0.56039  0.52339  1.0000
  C   C690      1.0  0.48392  0.72232  0.61502  1.0000
  C   C691      1.0  0.48582  0.89589  0.57893  1.0000
  C   C692      1.0  0.98250  0.51307  0.41269  1.0000
  S   S155      1.0  0.48331  0.91837  0.54902  1.0000
  C   C693      1.0  0.48855  0.86150  0.62780  1.0000
  H   H1228     1.0  0.97343  0.75653  0.33401  1.0000
  S   S156      1.0  0.52558  0.97396  0.42578  1.0000
  S   S157      1.0  0.86006  0.63141  0.32121  1.0000
  N   N39       1.0  0.92078  0.49510  0.49255  1.0000
  H   H1229     1.0  0.87103  0.48928  0.41889  1.0000
  C   C694      1.0  0.89245  0.49872  0.47456  1.0000
  H   H1230     1.0  0.96008  0.49298  0.46645  1.0000
  S   S158      1.0  0.88839  0.56451  0.32133  1.0000
  H   H1231     1.0  0.55559  0.80155  0.65351  1.0000
  H   H1232     1.0  0.52894  0.78657  0.67814  1.0000
  C   C695      1.0  0.93366  0.94491  0.87322  1.0000
  H   H1233     1.0  0.87536  0.97722  0.87385  1.0000
  C   C696      1.0  0.95159  0.86011  0.97953  1.0000
  C   C697      1.0  0.49654  0.53903  0.92026  1.0000
  C   C698      1.0  0.58432  0.48231  0.91820  1.0000
  C   C699      1.0  0.56033  0.97635  0.66293  1.0000
  H   H1234     1.0  0.52409  0.48433  0.89614  1.0000
  H   H1235     1.0  0.86757  0.96511  0.98123  1.0000
  H   H1236     1.0  0.48998  0.90020  0.71066  1.0000
  H   H1237     1.0  0.53564  0.50398  0.97248  1.0000
  C   C700      1.0  0.50652  0.82312  0.79415  1.0000
  H   H1238     1.0  0.91278  0.94439  0.88574  1.0000
  H   H1239     1.0  0.95767  0.87980  0.96671  1.0000
  H   H1240     1.0  0.57899  0.50222  0.90546  1.0000
  C   C701      1.0  0.51136  0.79092  0.80346  1.0000
  C   C702      1.0  0.51670  0.51009  0.95909  1.0000
  H   H1241     1.0  0.56559  0.96702  0.68383  1.0000
  H   H1242     1.0  0.50304  0.95962  0.65892  1.0000
  H   H1243     1.0  0.60944  0.97815  0.65618  1.0000
  C   C703      1.0  0.48632  0.65239  0.70083  1.0000
  C   C704      1.0  0.52108  0.53051  0.93744  1.0000
  C   C705      1.0  0.92931  0.96551  0.84752  1.0000
  H   H1244     1.0  0.54355  0.53976  0.93398  1.0000
  H   H1245     1.0  0.53042  0.69211  0.73909  1.0000
  H   H1246     1.0  0.61804  0.50783  0.94261  1.0000
  H   H1247     1.0  0.48941  0.72926  0.74333  1.0000
  H   H1248     1.0  0.56868  0.48191  0.93583  1.0000
  H   H1249     1.0  0.56660  0.77158  0.67637  1.0000
  H   H1250     1.0  0.90758  0.95781  0.83712  1.0000
  H   H1251     1.0  0.53363  0.73178  0.79468  1.0000
  H   H1252     1.0  0.51968  0.70865  0.87945  1.0000
  H   H1253     1.0  0.53556  0.72329  0.71618  1.0000
  H   H1254     1.0  0.51088  0.68802  0.83123  1.0000
  H   H1255     1.0  0.51476  0.74302  0.83830  1.0000
  H   H1256     1.0  0.94123  0.84252  0.96565  1.0000
  C   C706      1.0  0.49758  0.69805  0.87299  1.0000
  H   H1257     1.0  0.63326  0.48809  0.91323  1.0000
  H   H1258     1.0  0.50026  0.65249  0.68256  1.0000
  C   C707      1.0  0.49208  0.73334  0.83218  1.0000
  H   H1259     1.0  0.50548  0.51177  0.84472  1.0000
  H   H1260     1.0  0.55864  0.72103  0.74769  1.0000
  H   H1261     1.0  0.51009  0.70054  0.78583  1.0000
  H   H1262     1.0  0.53161  0.78248  0.79280  1.0000
  H   H1263     1.0  0.51701  0.75814  0.75142  1.0000
  C   C708      1.0  0.53564  0.71650  0.73839  1.0000
  C   C709      1.0  0.51163  0.73401  0.75386  1.0000
  H   H1264     1.0  0.58102  0.92293  0.66325  1.0000
  H   H1265     1.0  0.53336  0.93358  0.69833  1.0000
  S   S159      1.0  0.50333  0.56375  0.89271  1.0000
  C   C710      1.0  0.52009  0.92186  0.68151  1.0000
  H   H1266     1.0  0.48659  0.83277  0.80461  1.0000
  C   C711      1.0  0.49239  0.70026  0.84147  1.0000
  C   C712      1.0  0.51111  0.72544  0.78511  1.0000
  H   H1267     1.0  0.92098  0.90373  0.85076  1.0000
  H   H1268     1.0  0.52699  0.83703  0.79965  1.0000
  H   H1269     1.0  0.51638  0.79146  0.82624  1.0000
  N   N40       1.0  0.48555  0.73832  0.80162  1.0000
  H   H1270     1.0  0.49785  0.67417  0.87912  1.0000
  C   C713      1.0  0.48771  0.49816  0.96373  1.0000
  H   H1271     1.0  0.53082  0.89999  0.67750  1.0000
  C   C714      1.0  0.48622  0.62748  0.71819  1.0000
  C   C715      1.0  0.61660  0.48672  0.93023  1.0000
  H   H1272     1.0  0.49990  0.60838  0.71313  1.0000
  H   H1273     1.0  0.50254  0.82394  0.77121  1.0000
  H   H1274     1.0  0.94724  0.96021  0.83230  1.0000
  C   C716      1.0  0.93994  0.91279  0.86423  1.0000
  C   C717      1.0  0.48831  0.91533  0.69248  1.0000
  H   H1275     1.0  0.95256  0.95246  0.88732  1.0000
  H   H1276     1.0  0.94216  0.89848  0.88294  1.0000
  H   H1277     1.0  0.96154  0.91180  0.85272  1.0000
  H   H1278     1.0  0.55031  0.48563  0.86859  1.0000
  C   C718      1.0  0.49017  0.49304  0.85082  1.0000
  S   S160      1.0  0.49176  0.84152  0.65913  1.0000
  C   C719      1.0  0.54751  0.78084  0.66381  1.0000
  H   H1279     1.0  0.88599  0.98065  0.92583  1.0000
  C   C720      1.0  0.51831  0.94069  0.65445  1.0000
  H   H1280     1.0  0.52871  0.73776  0.65396  1.0000
