data_image0
_chemical_formula_structural       H3FeS2FeS2FeSFeS3HCHCHC4H2C2H2C3H6C4HCH2CHCNCHC5HC4H3CH10CH2C2H6CH2NC10H23CHCH3C2HCH9SCH2NCHCHCH2CH2CHC2HCH3CH8CH2FeSHFeSFeSFeS2H2FeHC6H7C2HCHCHCH2CH2CHCH10CH3C2H7SCH2C2HCHSH2NC5H6CHNHNHCHCHC2H3CH2CHSHC4H2SHC2H8FeS2CHFeSCHFeS2FeS2FeSFeHS2C2H2C2H2C2SHC6H5CSH2CH3NC4HC2H10CH7C2HC4H3C2H3CHFeCH2NH6CHSCH3C2H2C3H4C2HCHSHC3HCH4CH4CH11C3H2CH2CH3CH3CH2CHFeS2FeS2FeSFeS3HNC3H3C6H3C3H2C3H4CH4C4H3C2H5C2H9CH7C2HCH2CHSC2HCH5CHCH4CH3CH3CH3CFeHSFeS2FeHFeHS3HCH7C6H6CHCH4C2HCHCSH2CH2CHCHCH5CH2NH4C2H3SCH3CH3CH2FeHC2H5C2NC3H3CHCSH5CH2CHC2HSCHFeS2CHCHFeSC2FeS2FeSHFeSFeS3HC3HCH2C6H8CH6CH2C2H3NCSCH8CHCHC2H6C2HCHCNCH2NHC2H3CH3CHCH7C3H3CHCH2CH4SH2CHCHC3H11FeC2H2C2H2CH2C2H2CNHSCH3CHC2H6CH3C2H2CFeS2FeS2FeSFeS3CHC2HC3H3C3H5C4H3CHCH3C2H3C4H4CNHCHCNH7C2H6CH2NH4C2H2C2H2SH2C3H3C2H3CHC3H10CH3C3HC2H2CH5CHC2H3CH3CHNH8CH2C2HFeS2FeS2HFeSH2SC2H2C6H4FeCHCH2CHCH2CH2FeCHCSH2CH3CH2CH4CH4CHCSCHCHC2H2C3H2CH2CH2SCH2NH9NH2C2H3CH4CH3FeS2C3HFeS2FeS2FeSFeS3H2C3H2SC3H2C6H5CH3C2HCHC4HNC7HC2FeCH2SCH9CH6CSHC2H2CH5CH9CFeHCH3CH6SH6CHNH6FeS2FeS2FeSFeS3H3CHC3H2CH2CHCHCH3C4H4NC2H4C2HCHC2NHC2H2C2HC2H2C2H2CH7NCHCHCH4CH5CHC2H4C2HCH2CHC3HC6H5CH7CH3CH4CSH2CH3NHCHC2H3SCH2FeS2FeSFeHS4C6H5C2H3C2H2CH3CNCH17C2H5CH3C7H3C2H2FeC4SCHCH4SHC3HCH2NC2H11C2H2CH5FeH4CH7FeHCFeHSFeS2CFeS2FeS2FeSFeS3C2H2CHSCHC7H6CH5CHC2HCHC2H3CNC9H11NH9CH5NHCH2C2H3CHC4H4CSH2CH3CH3CH2CH7C2H2C3H4CHCH3C2H
_chemical_formula_sum              "H1024 Fe64 S128 C576 N32"
_cell_length_a       39.6522
_cell_length_b       40.918
_cell_length_c       41.3525
_cell_angle_alpha    89.5918
_cell_angle_beta     89.4046
_cell_angle_gamma    87.9383

_space_group_name_H-M_alt    "P 1"
_space_group_IT_number       1

loop_
  _space_group_symop_operation_xyz
  'x, y, z'

loop_
  _atom_site_type_symbol
  _atom_site_label
  _atom_site_symmetry_multiplicity
  _atom_site_fract_x
  _atom_site_fract_y
  _atom_site_fract_z
  _atom_site_occupancy
  H   H1        1.0  0.34153  0.15851  0.24992  1.0000
  H   H2        1.0  0.04168  0.07785  0.19957  1.0000
  H   H3        1.0  0.46784  0.39773  0.29542  1.0000
  Fe  Fe1       1.0  0.12576  0.17728  0.22767  1.0000
  S   S1        1.0  0.12997  0.14823  0.18205  1.0000
  S   S2        1.0  0.07584  0.17870  0.25429  1.0000
  Fe  Fe2       1.0  0.19764  0.20110  0.22311  1.0000
  S   S3        1.0  0.20671  0.17418  0.17631  1.0000
  S   S4        1.0  0.24455  0.22883  0.23654  1.0000
  Fe  Fe3       1.0  0.15523  0.19200  0.16191  1.0000
  S   S5        1.0  0.13827  0.21059  0.11307  1.0000
  Fe  Fe4       1.0  0.18093  0.13246  0.20003  1.0000
  S   S6        1.0  0.20397  0.08336  0.18641  1.0000
  S   S7        1.0  0.14758  0.22265  0.20637  1.0000
  S   S8        1.0  0.17518  0.15755  0.24807  1.0000
  H   H4        1.0  0.28252  0.12761  0.31032  1.0000
  C   C1        1.0  0.04132  0.18762  0.22879  1.0000
  H   H5        1.0  0.05755  0.24303  0.05829  1.0000
  C   C2        1.0  0.26792  0.08377  0.25267  1.0000
  H   H6        1.0  0.09448  0.10962  0.23905  1.0000
  C   C3        1.0  0.19984  0.18635  0.02159  1.0000
  C   C4        1.0  0.16995  0.04888  0.23308  1.0000
  C   C5        1.0  0.18758  0.04785  0.20365  1.0000
  C   C6        1.0  0.27945  0.05171  0.23522  1.0000
  H   H7        1.0  0.12521  0.32157  0.09391  1.0000
  H   H8        1.0  0.16537  0.07198  0.24519  1.0000
  C   C7        1.0  0.14461  0.03058  0.07821  1.0000
  C   C8        1.0  0.32362  0.10796  0.25729  1.0000
  H   H9        1.0  0.13649  0.02383  0.05367  1.0000
  H   H10       1.0  0.04418  0.09471  0.27214  1.0000
  C   C9        1.0  0.19532  0.18785  0.08042  1.0000
  C   C10       1.0  0.16244  0.20108  0.07825  1.0000
  C   C11       1.0  0.14824  0.20681  0.04772  1.0000
  H   H11       1.0  0.39274  0.12127  0.25178  1.0000
  H   H12       1.0  0.31377  0.12883  0.14629  1.0000
  H   H13       1.0  0.20626  0.18298  0.10383  1.0000
  H   H14       1.0  0.12281  0.21710  0.04589  1.0000
  H   H15       1.0  0.42473  0.40726  0.30768  1.0000
  H   H16       1.0  0.23811  0.10326  0.12505  1.0000
  C   C12       1.0  0.29252  0.28465  0.30189  1.0000
  C   C13       1.0  0.28416  0.26705  0.27402  1.0000
  C   C14       1.0  0.25332  0.25122  0.27204  1.0000
  C   C15       1.0  0.23077  0.25335  0.29823  1.0000
  H   H17       1.0  0.31638  0.29659  0.30311  1.0000
  C   C16       1.0  0.27015  0.28641  0.32826  1.0000
  H   H18       1.0  0.30182  0.26562  0.25392  1.0000
  H   H19       1.0  0.20689  0.24144  0.29710  1.0000
  C   C17       1.0  0.14208  0.08091  0.01100  1.0000
  H   H20       1.0  0.26630  0.39968  0.17693  1.0000
  C   C18       1.0  0.37993  0.12992  0.27432  1.0000
  N   N1        1.0  0.13296  0.09356  0.07262  1.0000
  C   C19       1.0  0.17032  0.09956  0.07173  1.0000
  H   H21       1.0  0.32384  0.09127  0.27871  1.0000
  C   C20       1.0  0.11598  0.12110  0.09163  1.0000
  C   C21       1.0  0.12497  0.06183  0.08957  1.0000
  C   C22       1.0  0.15928  0.01970  0.24745  1.0000
  C   C23       1.0  0.18790  0.10067  0.10499  1.0000
  C   C24       1.0  0.07672  0.12279  0.09128  1.0000
  H   H22       1.0  0.22889  0.18288  0.29971  1.0000
  C   C25       1.0  0.04651  0.19354  0.19580  1.0000
  C   C26       1.0  0.45958  0.44658  0.31544  1.0000
  C   C27       1.0  0.22629  0.10057  0.10103  1.0000
  C   C28       1.0  0.06248  0.14846  0.11492  1.0000
  H   H23       1.0  0.17489  0.12315  0.05904  1.0000
  H   H24       1.0  0.18438  0.08084  0.05719  1.0000
  H   H25       1.0  0.23913  0.12293  0.29965  1.0000
  C   C29       1.0  0.11899  0.09476  0.03865  1.0000
  H   H26       1.0  0.12452  0.14515  0.08252  1.0000
  H   H27       1.0  0.12357  0.11975  0.11742  1.0000
  H   H28       1.0  0.12867  0.06397  0.11616  1.0000
  H   H29       1.0  0.09786  0.05655  0.08697  1.0000
  H   H30       1.0  0.13871  0.29562  0.06077  1.0000
  H   H31       1.0  0.33946  0.09484  0.23876  1.0000
  H   H32       1.0  0.17992  0.12324  0.11820  1.0000
  H   H33       1.0  0.18179  0.07916  0.12006  1.0000
  H   H34       1.0  0.06594  0.09916  0.09833  1.0000
  H   H35       1.0  0.06747  0.12958  0.06679  1.0000
  C   C30       1.0  0.34274  0.13853  0.26805  1.0000
  H   H36       1.0  0.23621  0.02463  0.25244  1.0000
  H   H37       1.0  0.03569  0.11762  0.21639  1.0000
  C   C31       1.0  0.30203  0.15072  0.15824  1.0000
  C   C32       1.0  0.21418  0.18108  0.05213  1.0000
  H   H38       1.0  0.06768  0.14079  0.14026  1.0000
  H   H39       1.0  0.10320  0.07607  0.26641  1.0000
  H   H40       1.0  0.30036  0.09668  0.19646  1.0000
  H   H41       1.0  0.23582  0.07714  0.09033  1.0000
  H   H42       1.0  0.23400  0.12115  0.08537  1.0000
  H   H43       1.0  0.03471  0.15141  0.11210  1.0000
  C   C33       1.0  0.05127  0.07992  0.25054  1.0000
  H   H44       1.0  0.07385  0.17250  0.11042  1.0000
  H   H45       1.0  0.31465  0.17276  0.14900  1.0000
  N   N2        1.0  0.20774  0.30335  0.15337  1.0000
  C   C34       1.0  0.17464  0.29552  0.13793  1.0000
  C   C35       1.0  0.20631  0.29368  0.18859  1.0000
  C   C36       1.0  0.21302  0.33954  0.14938  1.0000
  C   C37       1.0  0.23695  0.28490  0.13740  1.0000
  C   C38       1.0  0.23541  0.24711  0.13827  1.0000
  C   C39       1.0  0.17420  0.29654  0.10037  1.0000
  C   C40       1.0  0.24234  0.35359  0.16901  1.0000
  C   C41       1.0  0.17905  0.31220  0.20933  1.0000
  C   C42       1.0  0.18215  0.30285  0.24504  1.0000
  C   C43       1.0  0.26238  0.23135  0.11613  1.0000
  H   H46       1.0  0.27248  0.18871  0.31033  1.0000
  H   H47       1.0  0.15421  0.31269  0.14675  1.0000
  H   H48       1.0  0.16625  0.27093  0.14566  1.0000
  H   H49       1.0  0.20091  0.26733  0.19105  1.0000
  H   H50       1.0  0.23142  0.29589  0.20008  1.0000
  H   H51       1.0  0.18956  0.35400  0.15563  1.0000
  H   H52       1.0  0.21810  0.34560  0.12356  1.0000
  H   H53       1.0  0.24005  0.29302  0.11182  1.0000
  H   H54       1.0  0.26104  0.29054  0.14929  1.0000
  H   H55       1.0  0.21056  0.23860  0.13061  1.0000
  H   H56       1.0  0.24025  0.23794  0.16317  1.0000
  H   H57       1.0  0.18702  0.31810  0.09052  1.0000
  H   H58       1.0  0.18726  0.27423  0.09048  1.0000
  H   H59       1.0  0.26689  0.34154  0.16234  1.0000
  H   H60       1.0  0.23830  0.35038  0.19541  1.0000
  H   H61       1.0  0.18123  0.33906  0.20752  1.0000
  H   H62       1.0  0.15341  0.30592  0.20144  1.0000
  H   H63       1.0  0.17926  0.27615  0.24846  1.0000
  H   H64       1.0  0.20707  0.30966  0.25446  1.0000
  H   H65       1.0  0.16208  0.31594  0.25932  1.0000
  H   H66       1.0  0.28792  0.23895  0.12306  1.0000
  H   H67       1.0  0.26168  0.20434  0.11823  1.0000
  H   H68       1.0  0.25759  0.23829  0.09050  1.0000
  C   C44       1.0  0.26413  0.02176  0.25117  1.0000
  H   H69       1.0  0.12339  0.27768  0.09770  1.0000
  C   C45       1.0  0.13814  0.29794  0.08753  1.0000
  H   H70       1.0  0.14618  0.02041  0.27054  1.0000
  H   H71       1.0  0.09444  0.08240  0.03790  1.0000
  H   H72       1.0  0.26154  0.11956  0.19986  1.0000
  C   C46       1.0  0.19397  0.01778  0.18835  1.0000
  C   C47       1.0  0.24524  0.39022  0.16259  1.0000
  H   H73       1.0  0.25054  0.39496  0.13657  1.0000
  C   C48       1.0  0.16675  0.19914  0.01945  1.0000
  H   H74       1.0  0.27496  0.15278  0.15167  1.0000
  H   H75       1.0  0.23987  0.17145  0.05383  1.0000
  H   H76       1.0  0.48314  0.45477  0.30378  1.0000
  H   H77       1.0  0.22158  0.40372  0.16986  1.0000
  H   H78       1.0  0.22953  0.03993  0.01070  1.0000
  H   H79       1.0  0.28428  0.16537  0.25708  1.0000
  H   H80       1.0  0.29542  0.17141  0.20541  1.0000
  H   H81       1.0  0.33342  0.14595  0.19964  1.0000
  H   H82       1.0  0.30730  0.04809  0.23544  1.0000
  S   S9        1.0  0.37045  0.44834  0.33963  1.0000
  C   C49       1.0  0.30597  0.14829  0.19495  1.0000
  H   H83       1.0  0.24589  0.14840  0.24746  1.0000
  H   H84       1.0  0.07183  0.19403  0.18599  1.0000
  N   N3        1.0  0.28806  0.11364  0.24493  1.0000
  C   C50       1.0  0.28801  0.11815  0.20864  1.0000
  H   H85       1.0  0.04755  0.05381  0.25635  1.0000
  C   C51       1.0  0.26994  0.14277  0.26025  1.0000
  H   H86       1.0  0.24074  0.08850  0.24692  1.0000
  C   C52       1.0  0.44776  0.41728  0.29640  1.0000
  H   H87       1.0  0.11326  0.12064  0.03117  1.0000
  H   H88       1.0  0.26859  0.07830  0.27906  1.0000
  C   C53       1.0  0.03971  0.22429  0.06649  1.0000
  H   H89       1.0  0.24476  0.16815  0.33797  1.0000
  H   H90       1.0  0.44168  0.42502  0.27128  1.0000
  C   C54       1.0  0.08899  0.08373  0.24447  1.0000
  H   H91       1.0  0.09792  0.06819  0.22396  1.0000
  C   C55       1.0  0.25127  0.17173  0.31204  1.0000
  C   C56       1.0  0.03046  0.09128  0.22059  1.0000
  H   H92       1.0  0.43974  0.46623  0.31303  1.0000
  C   C57       1.0  0.26108  0.13889  0.29671  1.0000
  H   H93       1.0  0.17220  0.03373  0.07846  1.0000
  H   H94       1.0  0.27098  0.05249  0.20968  1.0000
  H   H95       1.0  0.05078  0.19983  0.06013  1.0000
  C   C58       1.0  0.23926  0.27064  0.32621  1.0000
  H   H96       1.0  0.27401  0.01803  0.27600  1.0000
  H   H97       1.0  0.02312  0.20386  0.14992  1.0000
  H   H98       1.0  0.38249  0.11063  0.29328  1.0000
  H   H99       1.0  0.20776  0.01684  0.16565  1.0000
  H   H100      1.0  0.33171  0.14846  0.29088  1.0000
  H   H101      1.0  0.39271  0.15197  0.28280  1.0000
  H   H102      1.0  0.01618  0.09758  0.15615  1.0000
  H   H103      1.0  0.15440  0.05718  0.01737  1.0000
  C   C59       1.0  0.01887  0.19923  0.17537  1.0000
  H   H104      1.0  0.03684  0.22609  0.09319  1.0000
  H   H105      1.0  0.01040  0.22819  0.02358  1.0000
  Fe  Fe5       1.0  0.36119  0.40240  0.36854  1.0000
  S   S10       1.0  0.39221  0.39457  0.41288  1.0000
  H   H106      1.0  0.26098  0.44371  0.46470  1.0000
  Fe  Fe6       1.0  0.32444  0.33850  0.37723  1.0000
  S   S11       1.0  0.35287  0.32591  0.42298  1.0000
  Fe  Fe7       1.0  0.34466  0.37842  0.43659  1.0000
  S   S12       1.0  0.33289  0.40002  0.48589  1.0000
  Fe  Fe8       1.0  0.39860  0.34294  0.39602  1.0000
  S   S13       1.0  0.31254  0.39035  0.39325  1.0000
  S   S14       1.0  0.33549  0.31927  0.61734  1.0000
  H   H107      1.0  0.17923  0.32468  0.47659  1.0000
  H   H108      1.0  0.32717  0.48132  0.57087  1.0000
  Fe  Fe9       1.0  0.33548  0.35112  0.66177  1.0000
  H   H109      1.0  0.32863  0.46228  0.39608  1.0000
  C   C60       1.0  0.33266  0.37659  0.52177  1.0000
  C   C61       1.0  0.33861  0.34269  0.52173  1.0000
  C   C62       1.0  0.33880  0.32503  0.55109  1.0000
  C   C63       1.0  0.33325  0.34128  0.58057  1.0000
  C   C64       1.0  0.32683  0.37509  0.58045  1.0000
  C   C65       1.0  0.32654  0.39264  0.55118  1.0000
  H   H110      1.0  0.34363  0.33026  0.49916  1.0000
  H   H111      1.0  0.34387  0.29887  0.55102  1.0000
  H   H112      1.0  0.32173  0.38777  0.60289  1.0000
  H   H113      1.0  0.32160  0.41882  0.55135  1.0000
  H   H114      1.0  0.32803  0.28176  0.47292  1.0000
  H   H115      1.0  0.44240  0.34542  0.63701  1.0000
  H   H116      1.0  0.17094  0.36064  0.37000  1.0000
  C   C66       1.0  0.19559  0.35071  0.37892  1.0000
  C   C67       1.0  0.48487  0.33189  0.38663  1.0000
  H   H117      1.0  0.40138  0.35418  0.49319  1.0000
  C   C68       1.0  0.19405  0.34643  0.41565  1.0000
  H   H118      1.0  0.18704  0.37051  0.42630  1.0000
  C   C69       1.0  0.43967  0.39667  0.59281  1.0000
  H   H119      1.0  0.27362  0.38531  0.45526  1.0000
  C   C70       1.0  0.24712  0.39323  0.45978  1.0000
  H   H120      1.0  0.44731  0.39643  0.64588  1.0000
  H   H121      1.0  0.45025  0.41163  0.57286  1.0000
  C   C71       1.0  0.22794  0.36649  0.47841  1.0000
  H   H122      1.0  0.23545  0.39854  0.43596  1.0000
  H   H123      1.0  0.42798  0.39722  0.52551  1.0000
  C   C72       1.0  0.42917  0.35605  0.49377  1.0000
  H   H124      1.0  0.25306  0.26629  0.46965  1.0000
  C   C73       1.0  0.44004  0.37228  0.52502  1.0000
  H   H125      1.0  0.20124  0.32685  0.36703  1.0000
  H   H126      1.0  0.27844  0.28096  0.43678  1.0000
  H   H127      1.0  0.20214  0.28856  0.46644  1.0000
  H   H128      1.0  0.17555  0.26215  0.51596  1.0000
  H   H129      1.0  0.15404  0.30062  0.52613  1.0000
  H   H130      1.0  0.45294  0.29411  0.59697  1.0000
  H   H131      1.0  0.23679  0.36677  0.50390  1.0000
  H   H132      1.0  0.25929  0.42157  0.50235  1.0000
  H   H133      1.0  0.23092  0.28848  0.52080  1.0000
  H   H134      1.0  0.21548  0.36796  0.37194  1.0000
  C   C74       1.0  0.34324  0.48729  0.59171  1.0000
  H   H135      1.0  0.41330  0.44691  0.63260  1.0000
  H   H136      1.0  0.44861  0.46203  0.60945  1.0000
  H   H137      1.0  0.41186  0.40217  0.59296  1.0000
  C   C75       1.0  0.48339  0.34393  0.35490  1.0000
  C   C76       1.0  0.24679  0.42526  0.47859  1.0000
  H   H138      1.0  0.46779  0.37456  0.52371  1.0000
  H   H139      1.0  0.44436  0.28860  0.65656  1.0000
  H   H140      1.0  0.40812  0.29856  0.59149  1.0000
  H   H141      1.0  0.42090  0.25903  0.63479  1.0000
  H   H142      1.0  0.30230  0.26880  0.50671  1.0000
  H   H143      1.0  0.18114  0.28008  0.55515  1.0000
  H   H144      1.0  0.20968  0.32686  0.53046  1.0000
  S   S15       1.0  0.44878  0.31763  0.40656  1.0000
  C   C77       1.0  0.20798  0.30411  0.51622  1.0000
  H   H145      1.0  0.43346  0.32624  0.54955  1.0000
  H   H146      1.0  0.30988  0.24222  0.47261  1.0000
  C   C78       1.0  0.43006  0.34138  0.61351  1.0000
  C   C79       1.0  0.17775  0.28562  0.52901  1.0000
  H   H147      1.0  0.17354  0.32946  0.42136  1.0000
  C   C80       1.0  0.42910  0.30392  0.60806  1.0000
  H   H148      1.0  0.36972  0.47899  0.58657  1.0000
  S   S16       1.0  0.27951  0.30742  0.36445  1.0000
  H   H149      1.0  0.50158  0.38015  0.45198  1.0000
  H   H150      1.0  0.20096  0.37493  0.47972  1.0000
  N   N4        1.0  0.23165  0.33228  0.46497  1.0000
  C   C81       1.0  0.22811  0.33227  0.42873  1.0000
  C   C82       1.0  0.26636  0.31849  0.47331  1.0000
  C   C83       1.0  0.20432  0.31199  0.47965  1.0000
  C   C84       1.0  0.27400  0.28239  0.46332  1.0000
  C   C85       1.0  0.30547  0.26808  0.48000  1.0000
  H   H151      1.0  0.23069  0.30690  0.41928  1.0000
  H   H152      1.0  0.24921  0.34538  0.41705  1.0000
  H   H153      1.0  0.28621  0.33308  0.46148  1.0000
  H   H154      1.0  0.27118  0.32102  0.49965  1.0000
  H   H155      1.0  0.22052  0.43483  0.48251  1.0000
  H   H156      1.0  0.40341  0.35029  0.61729  1.0000
  C   C86       1.0  0.46524  0.43743  0.35152  1.0000
  H   H157      1.0  0.40127  0.35627  0.55816  1.0000
  N   N5        1.0  0.48035  0.46324  0.37230  1.0000
  H   H158      1.0  0.48096  0.41455  0.35170  1.0000
  N   N6        1.0  0.44642  0.36065  0.58672  1.0000
  H   H159      1.0  0.43688  0.37089  0.47257  1.0000
  C   C87       1.0  0.45429  0.41075  0.62419  1.0000
  H   H160      1.0  0.45888  0.45673  0.42041  1.0000
  C   C88       1.0  0.42912  0.35256  0.55546  1.0000
  H   H161      1.0  0.44039  0.43053  0.36188  1.0000
  C   C89       1.0  0.48303  0.45136  0.40703  1.0000
  C   C90       1.0  0.44122  0.44590  0.62984  1.0000
  H   H162      1.0  0.33415  0.47366  0.61325  1.0000
  H   H163      1.0  0.50206  0.36210  0.63254  1.0000
  H   H164      1.0  0.43041  0.48558  0.37866  1.0000
  C   C91       1.0  0.42304  0.28550  0.63976  1.0000
  H   H165      1.0  0.39923  0.29459  0.65150  1.0000
  H   H166      1.0  0.44123  0.33124  0.49131  1.0000
  C   C92       1.0  0.33693  0.48515  0.38611  1.0000
  H   H167      1.0  0.48218  0.41139  0.62221  1.0000
  S   S17       1.0  0.36109  0.39900  0.65993  1.0000
  H   H168      1.0  0.45212  0.45522  0.65251  1.0000
  C   C93       1.0  0.45642  0.49288  0.37181  1.0000
  C   C94       1.0  0.35792  0.48520  0.35875  1.0000
  C   C95       1.0  0.50384  0.34284  0.61393  1.0000
  C   C96       1.0  0.49026  0.41423  0.41283  1.0000
  H   H169      1.0  0.50259  0.46493  0.41999  1.0000
  H   H170      1.0  0.48817  0.33179  0.56592  1.0000
  S   S18       1.0  0.37127  0.35149  0.34905  1.0000
  H   H171      1.0  0.47803  0.41650  0.46436  1.0000
  C   C97       1.0  0.48382  0.35256  0.58297  1.0000
  C   C98       1.0  0.49863  0.40700  0.44822  1.0000
  H   H172      1.0  0.49670  0.37350  0.57151  1.0000
  H   H173      1.0  0.45954  0.34512  0.34238  1.0000
  H   H174      1.0  0.22181  0.27168  0.34647  1.0000
  H   H175      1.0  0.45443  0.50344  0.34702  1.0000
  H   H176      1.0  0.46760  0.40037  0.40680  1.0000
  H   H177      1.0  0.49443  0.32013  0.62503  1.0000
  H   H178      1.0  0.15560  0.20362  0.99599  1.0000
  H   H179      1.0  0.10860  0.21902  0.82352  1.0000
  Fe  Fe10      1.0  0.31520  0.35711  0.73274  1.0000
  S   S19       1.0  0.33942  0.40594  0.73646  1.0000
  S   S20       1.0  0.28991  0.34104  0.77999  1.0000
  C   C99       1.0  0.33147  0.20625  0.82610  1.0000
  H   H180      1.0  0.34485  0.46848  0.78560  1.0000
  Fe  Fe11      1.0  0.38255  0.38388  0.70774  1.0000
  S   S21       1.0  0.43383  0.40247  0.71914  1.0000
  C   C100      1.0  0.02311  0.17376  0.85182  1.0000
  H   H181      1.0  0.32025  0.25749  0.81652  1.0000
  Fe  Fe12      1.0  0.19859  0.19033  0.86667  1.0000
  S   S22       1.0  0.18283  0.22179  0.90900  1.0000
  S   S23       1.0  0.22363  0.20631  0.81918  1.0000
  Fe  Fe13      1.0  0.16193  0.13059  0.89474  1.0000
  S   S24       1.0  0.14319  0.15821  0.93831  1.0000
  S   S25       1.0  0.14016  0.08075  0.88859  1.0000
  Fe  Fe14      1.0  0.13204  0.19952  0.90384  1.0000
  S   S26       1.0  0.08313  0.22957  0.90626  1.0000
  Fe  Fe15      1.0  0.19534  0.17730  0.93951  1.0000
  H   H182      1.0  0.24582  0.48660  0.73452  1.0000
  S   S27       1.0  0.14693  0.17063  0.86013  1.0000
  S   S28       1.0  0.21529  0.14698  0.89765  1.0000
  C   C101      1.0  0.16735  0.04575  0.88876  1.0000
  C   C102      1.0  0.22310  0.01934  0.89224  1.0000
  H   H183      1.0  0.40909  0.23457  0.81381  1.0000
  H   H184      1.0  0.14929  0.32433  0.87567  1.0000
  C   C103      1.0  0.20225  0.04792  0.89238  1.0000
  C   C104      1.0  0.45735  0.21366  0.77242  1.0000
  H   H185      1.0  0.21318  0.07156  0.89504  1.0000
  H   H186      1.0  0.30417  0.18111  0.86408  1.0000
  C   C105      1.0  0.04781  0.21291  0.88769  1.0000
  C   C106      1.0  0.05144  0.18609  0.86701  1.0000
  S   S29       1.0  0.28837  0.37099  0.68663  1.0000
  H   H187      1.0  0.07600  0.17480  0.86261  1.0000
  C   C107      1.0  0.26938  0.30432  0.78972  1.0000
  C   C108      1.0  0.25850  0.29908  0.82178  1.0000
  C   C109      1.0  0.24379  0.26955  0.83111  1.0000
  C   C110      1.0  0.23970  0.24490  0.80840  1.0000
  C   C111      1.0  0.24981  0.25045  0.77616  1.0000
  C   C112      1.0  0.26459  0.27998  0.76682  1.0000
  H   H188      1.0  0.26204  0.31779  0.83968  1.0000
  H   H189      1.0  0.23627  0.26560  0.85602  1.0000
  H   H190      1.0  0.24664  0.23157  0.75837  1.0000
  H   H191      1.0  0.27258  0.28375  0.74202  1.0000
  H   H192      1.0  0.34997  0.20193  0.75841  1.0000
  C   C113      1.0  0.39052  0.33509  0.79479  1.0000
  S   S30       1.0  0.22374  0.17655  0.98664  1.0000
  H   H193      1.0  0.36636  0.46710  0.68644  1.0000
  H   H194      1.0  0.16783  0.25622  0.84799  1.0000
  C   C114      1.0  0.47110  0.37921  0.71115  1.0000
  H   H195      1.0  0.13970  0.06714  0.96053  1.0000
  H   H196      1.0  0.40252  0.34893  0.81432  1.0000
  H   H197      1.0  0.40742  0.33533  0.77317  1.0000
  N   N7        1.0  0.11611  0.26554  0.79976  1.0000
  C   C115      1.0  0.08043  0.27289  0.78884  1.0000
  C   C116      1.0  0.12320  0.22921  0.80288  1.0000
  C   C117      1.0  0.14033  0.27899  0.77509  1.0000
  C   C118      1.0  0.13942  0.31675  0.77112  1.0000
  H   H198      1.0  0.07177  0.03394  0.86741  1.0000
  C   C119      1.0  0.23451  0.03373  0.98500  1.0000
  C   C120      1.0  0.16823  0.32758  0.74912  1.0000
  H   H199      1.0  0.10963  0.30634  0.83285  1.0000
  H   H200      1.0  0.07473  0.29972  0.78940  1.0000
  H   H201      1.0  0.07734  0.26596  0.76309  1.0000
  H   H202      1.0  0.16673  0.27036  0.78041  1.0000
  H   H203      1.0  0.13519  0.26917  0.75070  1.0000
  H   H204      1.0  0.14200  0.32939  0.79452  1.0000
  H   H205      1.0  0.11525  0.32533  0.76009  1.0000
  H   H206      1.0  0.46796  0.22593  0.79373  1.0000
  H   H207      1.0  0.45457  0.18728  0.77801  1.0000
  H   H208      1.0  0.10578  0.26763  0.85119  1.0000
  C   C121      1.0  0.35692  0.49222  0.68635  1.0000
  H   H209      1.0  0.16680  0.35459  0.74609  1.0000
  H   H210      1.0  0.19307  0.32061  0.75992  1.0000
  H   H211      1.0  0.16661  0.31625  0.72487  1.0000
  H   H212      1.0  0.34394  0.19739  0.69875  1.0000
  H   H213      1.0  0.36610  0.34774  0.78875  1.0000
  H   H214      1.0  0.10237  0.05826  0.98372  1.0000
  H   H215      1.0  0.33068  0.21270  0.87851  1.0000
  C   C122      1.0  0.05042  0.01770  0.86305  1.0000
  C   C123      1.0  0.12230  0.07631  0.97995  1.0000
  H   H216      1.0  0.11047  0.09991  0.97173  1.0000
  C   C124      1.0  0.38944  0.49684  0.78620  1.0000
  C   C125      1.0  0.39724  0.22666  0.79101  1.0000
  C   C126      1.0  0.47065  0.34577  0.70442  1.0000
  C   C127      1.0  0.35181  0.49324  0.77707  1.0000
  H   H217      1.0  0.33510  0.26783  0.72364  1.0000
  H   H218      1.0  0.44687  0.33370  0.70349  1.0000
  H   H219      1.0  0.29116  0.22330  0.85890  1.0000
  C   C128      1.0  0.34793  0.24326  0.72478  1.0000
  C   C129      1.0  0.27822  0.48067  0.77665  1.0000
  H   H220      1.0  0.50103  0.30176  0.69549  1.0000
  H   H221      1.0  0.02619  0.15317  0.83567  1.0000
  H   H222      1.0  0.10529  0.16364  0.79828  1.0000
  C   C130      1.0  0.31334  0.20597  0.85892  1.0000
  H   H223      1.0  0.30409  0.21959  0.70548  1.0000
  Fe  Fe16      1.0  0.31647  0.41774  0.68856  1.0000
  C   C131      1.0  0.50126  0.32776  0.69999  1.0000
  H   H224      1.0  0.33349  0.23369  0.67539  1.0000
  H   H225      1.0  0.16234  0.09833  0.00551  1.0000
  N   N8        1.0  0.36351  0.24425  0.78633  1.0000
  H   H226      1.0  0.14193  0.28578  0.89585  1.0000
  H   H227      1.0  0.40355  0.44515  0.77965  1.0000
  H   H228      1.0  0.15014  0.22415  0.80903  1.0000
  H   H229      1.0  0.41463  0.21707  0.74141  1.0000
  H   H230      1.0  0.05305  0.26453  0.83484  1.0000
  H   H231      1.0  0.03281  0.05281  0.82729  1.0000
  C   C132      1.0  0.15347  0.01498  0.88531  1.0000
  H   H232      1.0  0.05508  0.22960  0.80867  1.0000
  S   S31       1.0  0.36092  0.33386  0.70776  1.0000
  C   C133      1.0  0.15812  0.29836  0.87790  1.0000
  H   H233      1.0  0.13338  0.21547  0.75215  1.0000
  H   H234      1.0  0.11773  0.15814  0.75662  1.0000
  H   H235      1.0  0.31351  0.19746  0.80796  1.0000
  C   C134      1.0  0.12253  0.17218  0.77888  1.0000
  C   C135      1.0  0.11633  0.20868  0.77234  1.0000
  H   H236      1.0  0.17382  0.29491  0.82848  1.0000
  H   H237      1.0  0.08987  0.21209  0.76425  1.0000
  C   C136      1.0  0.33132  0.22206  0.69966  1.0000
  C   C137      1.0  0.50202  0.39469  0.71237  1.0000
  C   C138      1.0  0.38487  0.30002  0.80616  1.0000
  H   H238      1.0  0.28761  0.04553  0.98847  1.0000
  H   H239      1.0  0.39279  0.49542  0.81275  1.0000
  H   H240      1.0  0.39389  0.20000  0.79434  1.0000
  H   H241      1.0  0.14915  0.16707  0.78611  1.0000
  C   C139      1.0  0.05235  0.25665  0.80925  1.0000
  C   C140      1.0  0.36726  0.28028  0.77970  1.0000
  H   H242      1.0  0.40989  0.28880  0.81225  1.0000
  C   C141      1.0  0.41156  0.46952  0.77110  1.0000
  H   H243      1.0  0.42811  0.25565  0.75714  1.0000
  S   S32       1.0  0.29361  0.46799  0.67899  1.0000
  H   H244      1.0  0.31648  0.23099  0.76439  1.0000
  C   C142      1.0  0.15711  0.28143  0.84511  1.0000
  C   C143      1.0  0.42338  0.22978  0.76319  1.0000
  C   C144      1.0  0.34332  0.24111  0.81739  1.0000
  H   H245      1.0  0.18443  0.29763  0.88692  1.0000
  C   C145      1.0  0.32245  0.49939  0.68226  1.0000
  H   H246      1.0  0.34194  0.29216  0.77583  1.0000
  H   H247      1.0  0.41001  0.47048  0.74430  1.0000
  H   H248      1.0  0.38134  0.28443  0.75688  1.0000
  H   H249      1.0  0.43830  0.47231  0.77795  1.0000
  C   C146      1.0  0.34408  0.22874  0.75940  1.0000
  H   H250      1.0  0.36901  0.30153  0.82841  1.0000
  H   H251      1.0  0.50249  0.42054  0.71747  1.0000
  H   H252      1.0  0.35305  0.18836  0.82756  1.0000
  H   H253      1.0  0.35804  0.24938  0.83838  1.0000
  C   C147      1.0  0.12046  0.28086  0.83248  1.0000
  H   H254      1.0  0.47549  0.21582  0.75191  1.0000
  H   H255      1.0  0.27085  0.04756  0.94786  1.0000
  H   H256      1.0  0.37461  0.24593  0.71750  1.0000
  H   H257      1.0  0.01477  0.25763  0.77107  1.0000
  H   H258      1.0  0.21295  0.04294  0.97018  1.0000
  H   H259      1.0  0.25008  0.02105  0.89491  1.0000
  H   H260      1.0  0.25980  0.07922  0.97650  1.0000
  H   H261      1.0  0.29437  0.46154  0.76467  1.0000
  H   H262      1.0  0.05323  0.13359  0.91485  1.0000
  H   H263      1.0  0.02081  0.14344  0.94434  1.0000
  H   H264      1.0  0.04055  0.09343  0.86981  1.0000
  C   C148      1.0  0.26517  0.05252  0.97377  1.0000
  C   C149      1.0  0.02117  0.03770  0.84669  1.0000
  C   C150      1.0  0.03308  0.12320  0.93026  1.0000
  H   H265      1.0  0.31810  0.48861  0.83178  1.0000
  H   H266      1.0  0.04059  0.06543  0.90290  1.0000
  C   C151      1.0  0.01557  0.22718  0.89318  1.0000
  H   H267      1.0  0.35068  0.49242  0.75027  1.0000
  H   H268      1.0  0.01264  0.24814  0.90888  1.0000
  C   C152      1.0  0.02362  0.08063  0.88712  1.0000
  H   H269      1.0  0.04474  0.10515  0.94735  1.0000
  H   H270      1.0  0.27475  0.47397  0.80246  1.0000
  H   H271      1.0  0.23355  0.45533  0.76266  1.0000
  C   C153      1.0  0.24367  0.48024  0.76063  1.0000
  H   H272      1.0  0.12655  0.01307  0.88274  1.0000
  H   H273      1.0  0.28536  0.50214  0.88159  1.0000
  H   H274      1.0  0.22563  0.49781  0.77256  1.0000
  C   C154      1.0  0.49061  0.49945  0.71664  1.0000
  H   H275      1.0  0.48798  0.47843  0.73351  1.0000
  H   H276      1.0  0.49941  0.48988  0.69281  1.0000
  C   C155      1.0  0.01728  0.26588  0.79644  1.0000
  H   H277      1.0  0.01236  0.29274  0.79769  1.0000
  Fe  Fe17      1.0  0.20110  0.84342  0.21046  1.0000
  S   S33       1.0  0.15751  0.85651  0.24382  1.0000
  S   S34       1.0  0.25003  0.81516  0.22385  1.0000
  Fe  Fe18      1.0  0.16946  0.88184  0.15305  1.0000
  S   S35       1.0  0.12383  0.89752  0.18236  1.0000
  S   S36       1.0  0.16865  0.90422  0.10260  1.0000
  Fe  Fe19      1.0  0.16027  0.90702  0.22188  1.0000
  S   S37       1.0  0.15351  0.95319  0.25141  1.0000
  Fe  Fe20      1.0  0.12474  0.84615  0.20112  1.0000
  S   S38       1.0  0.07680  0.81764  0.20095  1.0000
  S   S39       1.0  0.20615  0.89503  0.19155  1.0000
  S   S40       1.0  0.16804  0.82928  0.16890  1.0000
  H   H278      1.0  0.14928  0.57697  0.30396  1.0000
  N   N9        1.0  0.24349  0.61677  0.32250  1.0000
  C   C156      1.0  0.04012  0.86605  0.23352  1.0000
  C   C157      1.0  0.03948  0.83714  0.21574  1.0000
  C   C158      1.0  0.18569  0.84354  0.01075  1.0000
  H   H279      1.0  0.06400  0.87684  0.23864  1.0000
  H   H280      1.0  0.25676  0.56505  0.32062  1.0000
  H   H281      1.0  0.02261  0.77813  0.28219  1.0000
  C   C159      1.0  0.25334  0.64864  0.30716  1.0000
  C   C160      1.0  0.15922  0.88966  0.03916  1.0000
  C   C161      1.0  0.17423  0.87933  0.06819  1.0000
  C   C162      1.0  0.19405  0.85036  0.06878  1.0000
  C   C163      1.0  0.19990  0.83261  0.04005  1.0000
  C   C164      1.0  0.20906  0.97807  0.03001  1.0000
  H   H282      1.0  0.14309  0.91150  0.03882  1.0000
  H   H283      1.0  0.20556  0.84209  0.09114  1.0000
  H   H284      1.0  0.28865  0.81263  0.32221  1.0000
  C   C165      1.0  0.25773  0.78886  0.25752  1.0000
  C   C166      1.0  0.23281  0.78267  0.28072  1.0000
  C   C167      1.0  0.24036  0.76238  0.30757  1.0000
  H   H285      1.0  0.20778  0.79374  0.27806  1.0000
  H   H286      1.0  0.25849  0.68442  0.23004  1.0000
  C   C168      1.0  0.29768  0.75377  0.28812  1.0000
  C   C169      1.0  0.18994  0.58522  0.33782  1.0000
  C   C170      1.0  0.01243  0.88603  0.13197  1.0000
  H   H287      1.0  0.18781  0.96564  0.19047  1.0000
  H   H288      1.0  0.24345  0.70380  0.26656  1.0000
  H   H289      1.0  0.21592  0.81064  0.04043  1.0000
  H   H290      1.0  0.38202  0.76463  0.31028  1.0000
  C   C171      1.0  0.27279  0.74787  0.31144  1.0000
  H   H291      1.0  0.30914  0.61146  0.29174  1.0000
  H   H292      1.0  0.27973  0.65436  0.31339  1.0000
  H   H293      1.0  0.38519  0.51522  0.32516  1.0000
  H   H294      1.0  0.26253  0.98358  0.04310  1.0000
  C   C172      1.0  0.13744  0.00154  0.10045  1.0000
  C   C173      1.0  0.04000  0.85294  0.08945  1.0000
  C   C174      1.0  0.06880  0.83681  0.10993  1.0000
  C   C175      1.0  0.26208  0.58793  0.30709  1.0000
  H   H295      1.0  0.22788  0.00473  0.08950  1.0000
  H   H296      1.0  0.25595  0.97119  0.10112  1.0000
  H   H297      1.0  0.01425  0.79190  0.09040  1.0000
  C   C176      1.0  0.10091  0.83164  0.08960  1.0000
  C   C177      1.0  0.20615  0.61289  0.31777  1.0000
  H   H298      1.0  0.31053  0.53687  0.30184  1.0000
  H   H299      1.0  0.15038  0.97902  0.09094  1.0000
  H   H300      1.0  0.25995  0.88713  0.30818  1.0000
  H   H301      1.0  0.28682  0.68837  0.26346  1.0000
  H   H302      1.0  0.18932  0.96146  0.03899  1.0000
  C   C178      1.0  0.26031  0.68388  0.25682  1.0000
  C   C179      1.0  0.30105  0.58961  0.30535  1.0000
  H   H303      1.0  0.03614  0.83723  0.06801  1.0000
  H   H304      1.0  0.05006  0.87597  0.07940  1.0000
  H   H305      1.0  0.21187  0.96422  0.09609  1.0000
  H   H306      1.0  0.01041  0.90291  0.25927  1.0000
  H   H307      1.0  0.01212  0.82295  0.14418  1.0000
  H   H308      1.0  0.27068  0.99959  0.23673  1.0000
  H   H309      1.0  0.24184  0.84934  0.29596  1.0000
  H   H310      1.0  0.25283  0.58385  0.28217  1.0000
  H   H311      1.0  0.22092  0.75797  0.32546  1.0000
  C   C180      1.0  0.24964  0.65077  0.26984  1.0000
  H   H312      1.0  0.19942  0.00308  0.03601  1.0000
  H   H313      1.0  0.26561  0.63174  0.25757  1.0000
  H   H314      1.0  0.19174  0.63619  0.32281  1.0000
  H   H315      1.0  0.09662  0.81478  0.06923  1.0000
  H   H316      1.0  0.10931  0.85536  0.07982  1.0000
  H   H317      1.0  0.12141  0.82088  0.10487  1.0000
  H   H318      1.0  0.22305  0.64779  0.26272  1.0000
  C   C181      1.0  0.16583  0.98953  0.23226  1.0000
  C   C182      1.0  0.23342  0.97812  0.08652  1.0000
  H   H319      1.0  0.02566  0.90702  0.12103  1.0000
  C   C183      1.0  0.24380  0.86690  0.31614  1.0000
  H   H320      1.0  0.02963  0.87641  0.15121  1.0000
  H   H321      1.0  0.30805  0.85078  0.32436  1.0000
  C   C184      1.0  0.29015  0.77423  0.26136  1.0000
  H   H322      1.0  0.07519  0.85246  0.13063  1.0000
  S   S41       1.0  0.44981  0.65813  0.33389  1.0000
  C   C185      1.0  0.00978  0.88075  0.24520  1.0000
  C   C186      1.0  0.18281  0.98873  0.20244  1.0000
  H   H323      1.0  0.20254  0.56117  0.33259  1.0000
  C   C187      1.0  0.16457  0.87161  0.01068  1.0000
  H   H324      1.0  0.14131  0.96958  0.01203  1.0000
  H   H325      1.0  0.35149  0.81884  0.30695  1.0000
  H   H326      1.0  0.40968  0.79743  0.30091  1.0000
  H   H327      1.0  0.32267  0.74263  0.29065  1.0000
  H   H328      1.0  0.06183  0.81255  0.11949  1.0000
  C   C188      1.0  0.39318  0.78705  0.31996  1.0000
  H   H329      1.0  0.20090  0.60780  0.29193  1.0000
  C   C189      1.0  0.24032  0.96982  0.05100  1.0000
  H   H330      1.0  0.34465  0.56129  0.28771  1.0000
  H   H331      1.0  0.24647  0.94316  0.05002  1.0000
  H   H332      1.0  0.10997  0.99723  0.10184  1.0000
  H   H333      1.0  0.14697  0.00583  0.12521  1.0000
  C   C190      1.0  0.36544  0.81225  0.32935  1.0000
  H   H334      1.0  0.30761  0.55804  0.26323  1.0000
  H   H335      1.0  0.30955  0.77878  0.24346  1.0000
  H   H336      1.0  0.13859  0.60610  0.33559  1.0000
  C   C191      1.0  0.31675  0.55956  0.28845  1.0000
  H   H337      1.0  0.31168  0.59032  0.32996  1.0000
  H   H338      1.0  0.21811  0.87730  0.32157  1.0000
  H   H339      1.0  0.23779  0.66935  0.31748  1.0000
  C   C192      1.0  0.15255  0.58277  0.32993  1.0000
  H   H340      1.0  0.00930  0.92031  0.18874  1.0000
  H   H341      1.0  0.37787  0.83418  0.33842  1.0000
  H   H342      1.0  0.01033  0.90403  0.05204  1.0000
  C   C193      1.0  0.29337  0.83309  0.33889  1.0000
  Fe  Fe21      1.0  0.34504  0.62893  0.39228  1.0000
  H   H343      1.0  0.45125  0.56947  0.64387  1.0000
  S   S42       1.0  0.32093  0.58133  0.40518  1.0000
  Fe  Fe22      1.0  0.37156  0.68894  0.42580  1.0000
  S   S43       1.0  0.37947  0.71603  0.37882  1.0000
  S   S44       1.0  0.38864  0.70891  0.47354  1.0000
  Fe  Fe23      1.0  0.32905  0.69705  0.36403  1.0000
  H   H344      1.0  0.38096  0.87025  0.44698  1.0000
  Fe  Fe24      1.0  0.40091  0.66755  0.36134  1.0000
  H   H345      1.0  0.27519  0.81980  0.40553  1.0000
  S   S45       1.0  0.31983  0.67417  0.41290  1.0000
  S   S46       1.0  0.39625  0.64188  0.40907  1.0000
  S   S47       1.0  0.30894  0.68434  0.60508  1.0000
  H   H346      1.0  0.34152  0.86532  0.36658  1.0000
  C   C194      1.0  0.35943  0.60271  0.48081  1.0000
  H   H347      1.0  0.34659  0.89481  0.43036  1.0000
  H   H348      1.0  0.30607  0.86704  0.39246  1.0000
  H   H349      1.0  0.33331  0.83609  0.43484  1.0000
  H   H350      1.0  0.43317  0.55788  0.36927  1.0000
  H   H351      1.0  0.24919  0.59287  0.36923  1.0000
  H   H352      1.0  0.46174  0.71518  0.37323  1.0000
  H   H353      1.0  0.22518  0.65682  0.42891  1.0000
  C   C195      1.0  0.36634  0.70061  0.50970  1.0000
  C   C196      1.0  0.38227  0.70503  0.53942  1.0000
  C   C197      1.0  0.36502  0.69967  0.56874  1.0000
  C   C198      1.0  0.33143  0.69039  0.56858  1.0000
  C   C199      1.0  0.31545  0.68584  0.53887  1.0000
  C   C200      1.0  0.33293  0.69067  0.50949  1.0000
  H   H354      1.0  0.40801  0.71294  0.53978  1.0000
  H   H355      1.0  0.37748  0.70356  0.59146  1.0000
  H   H356      1.0  0.28946  0.67869  0.53858  1.0000
  H   H357      1.0  0.32034  0.68738  0.48674  1.0000
  H   H358      1.0  0.31610  0.75449  0.39761  1.0000
  H   H359      1.0  0.46075  0.57309  0.60123  1.0000
  C   C201      1.0  0.33658  0.54469  0.38761  1.0000
  H   H360      1.0  0.22240  0.61371  0.42083  1.0000
  C   C202      1.0  0.48583  0.70332  0.36739  1.0000
  H   H361      1.0  0.31460  0.53053  0.60516  1.0000
  H   H362      1.0  0.36700  0.56768  0.35114  1.0000
  H   H363      1.0  0.39095  0.57800  0.63406  1.0000
  H   H364      1.0  0.40832  0.54344  0.61152  1.0000
  C   C203      1.0  0.29688  0.59706  0.59069  1.0000
  C   C204      1.0  0.35845  0.54475  0.36085  1.0000
  H   H365      1.0  0.29364  0.74293  0.45175  1.0000
  C   C205      1.0  0.36597  0.87530  0.42482  1.0000
  H   H366      1.0  0.27736  0.57991  0.63697  1.0000
  C   C206      1.0  0.34115  0.52402  0.59843  1.0000
  S   S48       1.0  0.35117  0.65050  0.34269  1.0000
  H   H367      1.0  0.37565  0.56146  0.50963  1.0000
  H   H368      1.0  0.19169  0.58983  0.36414  1.0000
  C   C207      1.0  0.40717  0.57048  0.61337  1.0000
  H   H369      1.0  0.32422  0.59462  0.53402  1.0000
  H   H370      1.0  0.34252  0.62070  0.60376  1.0000
  C   C208      1.0  0.29032  0.80240  0.39012  1.0000
  H   H371      1.0  0.39816  0.61284  0.58243  1.0000
  C   C209      1.0  0.35221  0.54411  0.56828  1.0000
  H   H372      1.0  0.46262  0.64736  0.46668  1.0000
  C   C210      1.0  0.28121  0.76233  0.43661  1.0000
  H   H373      1.0  0.39912  0.59799  0.51513  1.0000
  H   H374      1.0  0.35930  0.62985  0.48123  1.0000
  H   H375      1.0  0.38327  0.88405  0.40557  1.0000
  H   H376      1.0  0.35269  0.62510  0.54509  1.0000
  H   H377      1.0  0.44344  0.60793  0.62345  1.0000
  C   C211      1.0  0.37348  0.58840  0.51233  1.0000
  H   H378      1.0  0.27168  0.78906  0.37567  1.0000
  H   H379      1.0  0.46195  0.68841  0.44990  1.0000
  N   N10       1.0  0.31351  0.82088  0.36775  1.0000
  H   H380      1.0  0.29145  0.61825  0.57434  1.0000
  H   H381      1.0  0.41152  0.57609  0.56242  1.0000
  H   H382      1.0  0.33235  0.54054  0.54987  1.0000
  H   H383      1.0  0.33809  0.58238  0.62227  1.0000
  C   C212      1.0  0.25231  0.61739  0.35789  1.0000
  C   C213      1.0  0.23617  0.63610  0.41462  1.0000
  H   H384      1.0  0.33338  0.59464  0.47669  1.0000
  H   H385      1.0  0.24404  0.66802  0.37387  1.0000
  H   H386      1.0  0.28904  0.57466  0.57829  1.0000
  S   S49       1.0  0.39143  0.65850  0.64979  1.0000
  C   C214      1.0  0.23315  0.64378  0.37851  1.0000
  H   H387      1.0  0.46895  0.65378  0.42383  1.0000
  H   H388      1.0  0.20591  0.64592  0.37304  1.0000
  H   H389      1.0  0.35756  0.78859  0.37528  1.0000
  C   C215      1.0  0.48700  0.67475  0.34895  1.0000
  H   H390      1.0  0.25988  0.75147  0.42374  1.0000
  H   H391      1.0  0.27140  0.78212  0.45277  1.0000
  H   H392      1.0  0.32845  0.78408  0.42602  1.0000
  C   C216      1.0  0.32710  0.85042  0.38417  1.0000
  H   H393      1.0  0.37548  0.59407  0.46021  1.0000
  H   H394      1.0  0.26299  0.63213  0.42151  1.0000
  Fe  Fe25      1.0  0.33966  0.68202  0.65087  1.0000
  H   H395      1.0  0.35670  0.52849  0.61984  1.0000
  C   C217      1.0  0.34929  0.84405  0.41426  1.0000
  C   C218      1.0  0.27500  0.60177  0.62105  1.0000
  H   H396      1.0  0.28257  0.62361  0.63461  1.0000
  H   H397      1.0  0.24814  0.60540  0.61412  1.0000
  H   H398      1.0  0.44596  0.56942  0.40910  1.0000
  H   H399      1.0  0.27951  0.62220  0.36087  1.0000
  H   H400      1.0  0.37542  0.53188  0.55795  1.0000
  C   C219      1.0  0.44288  0.58096  0.62075  1.0000
  C   C220      1.0  0.30675  0.77551  0.41235  1.0000
  N   N11       1.0  0.35784  0.58016  0.57303  1.0000
  C   C221      1.0  0.33506  0.59524  0.59878  1.0000
  C   C222      1.0  0.39412  0.58599  0.58146  1.0000
  C   C223      1.0  0.35064  0.59823  0.54167  1.0000
  H   H401      1.0  0.46985  0.51369  0.41924  1.0000
  H   H402      1.0  0.36975  0.82545  0.40974  1.0000
  H   H403      1.0  0.50383  0.69897  0.49199  1.0000
  C   C224      1.0  0.47406  0.66355  0.44822  1.0000
  H   H404      1.0  0.50023  0.60178  0.66588  1.0000
  C   C225      1.0  0.46589  0.52173  0.39386  1.0000
  S   S50       1.0  0.28081  0.72323  0.34615  1.0000
  H   H405      1.0  0.24006  0.83145  0.35427  1.0000
  H   H406      1.0  0.40900  0.78031  0.34118  1.0000
  H   H407      1.0  0.30920  0.51462  0.42104  1.0000
  H   H408      1.0  0.48928  0.53297  0.38484  1.0000
  H   H409      1.0  0.25968  0.86852  0.36544  1.0000
  C   C226      1.0  0.43810  0.54860  0.39417  1.0000
  H   H410      1.0  0.41443  0.53920  0.40474  1.0000
  H   H411      1.0  0.28310  0.81624  0.66083  1.0000
  C   C227      1.0  0.34146  0.79811  0.35535  1.0000
  H   H412      1.0  0.33035  0.77604  0.34476  1.0000
  C   C228      1.0  0.32598  0.51483  0.40024  1.0000
  C   C229      1.0  0.36879  0.51506  0.34623  1.0000
  H   H413      1.0  0.32236  0.79274  0.66089  1.0000
  S   S51       1.0  0.45338  0.72522  0.67019  1.0000
  C   C230      1.0  0.25833  0.84989  0.34627  1.0000
  H   H414      1.0  0.14151  0.56295  0.34469  1.0000
  Fe  Fe26      1.0  0.37570  0.63322  0.69537  1.0000
  S   S52       1.0  0.39367  0.67266  0.72763  1.0000
  S   S53       1.0  0.39465  0.58097  0.70321  1.0000
  C   C231      1.0  0.31775  0.82946  0.77637  1.0000
  H   H415      1.0  0.10529  0.82474  0.74211  1.0000
  C   C232      1.0  0.01372  0.89530  0.87307  1.0000
  H   H416      1.0  0.09791  0.95900  0.97188  1.0000
  Fe  Fe27      1.0  0.34113  0.69521  0.72339  1.0000
  S   S54       1.0  0.31986  0.71257  0.77204  1.0000
  C   C233      1.0  0.35696  0.87948  0.74455  1.0000
  C   C234      1.0  0.13112  0.77313  0.71250  1.0000
  Fe  Fe28      1.0  0.19134  0.84297  0.85317  1.0000
  S   S55       1.0  0.17182  0.89496  0.84644  1.0000
  S   S56       1.0  0.19993  0.81539  0.80571  1.0000
  Fe  Fe29      1.0  0.18510  0.84803  0.92682  1.0000
  S   S57       1.0  0.16486  0.89971  0.92512  1.0000
  H   H417      1.0  0.43619  0.73663  0.76966  1.0000
  Fe  Fe30      1.0  0.13312  0.88338  0.88442  1.0000
  S   S58       1.0  0.08080  0.90655  0.87944  1.0000
  Fe  Fe31      1.0  0.20493  0.90714  0.88775  1.0000
  S   S59       1.0  0.23502  0.95279  0.89052  1.0000
  S   S60       1.0  0.14996  0.83056  0.88859  1.0000
  S   S61       1.0  0.22799  0.85628  0.89176  1.0000
  H   H418      1.0  0.20864  0.92259  0.00206  1.0000
  C   C235      1.0  0.04503  0.88255  0.88364  1.0000
  C   C236      1.0  0.04728  0.85104  0.89687  1.0000
  C   C237      1.0  0.29493  0.85991  0.82586  1.0000
  H   H419      1.0  0.07113  0.84148  0.90603  1.0000
  C   C238      1.0  0.11389  0.80738  0.76140  1.0000
  H   H420      1.0  0.16315  0.96292  0.88236  1.0000
  H   H421      1.0  0.42738  0.76509  0.80194  1.0000
  C   C239      1.0  0.23298  0.78629  0.79699  1.0000
  C   C240      1.0  0.25517  0.77453  0.82079  1.0000
  C   C241      1.0  0.28122  0.75157  0.81275  1.0000
  C   C242      1.0  0.28561  0.74033  0.78085  1.0000
  C   C243      1.0  0.26335  0.75201  0.75704  1.0000
  C   C244      1.0  0.23712  0.77480  0.76513  1.0000
  H   H422      1.0  0.25222  0.78305  0.84541  1.0000
  H   H423      1.0  0.29825  0.74265  0.83136  1.0000
  H   H424      1.0  0.26629  0.74341  0.73247  1.0000
  H   H425      1.0  0.22004  0.78370  0.74656  1.0000
  H   H426      1.0  0.27154  0.84579  0.82509  1.0000
  H   H427      1.0  0.39898  0.73223  0.79449  1.0000
  H   H428      1.0  0.46373  0.69547  0.73350  1.0000
  H   H429      1.0  0.46854  0.60807  0.71865  1.0000
  C   C245      1.0  0.32404  0.51436  0.82587  1.0000
  H   H430      1.0  0.08548  0.97685  0.85352  1.0000
  H   H431      1.0  0.24867  0.88174  0.95941  1.0000
  H   H432      1.0  0.01177  0.91977  0.86302  1.0000
  H   H433      1.0  0.10138  0.76133  0.80610  1.0000
  H   H434      1.0  0.08350  0.85106  0.82649  1.0000
  H   H435      1.0  0.11296  0.99980  0.96614  1.0000
  C   C246      1.0  0.10413  0.78630  0.81582  1.0000
  H   H436      1.0  0.06304  0.90679  0.81020  1.0000
  H   H437      1.0  0.08648  0.80965  0.86067  1.0000
  C   C247      1.0  0.09894  0.84550  0.80457  1.0000
  C   C248      1.0  0.18081  0.98505  0.97803  1.0000
  H   H438      1.0  0.31285  0.63406  0.77029  1.0000
  H   H439      1.0  0.11610  0.78907  0.69575  1.0000
  H   H440      1.0  0.14054  0.81345  0.76638  1.0000
  N   N12       1.0  0.09234  0.81193  0.79157  1.0000
  C   C249      1.0  0.45731  0.61793  0.76852  1.0000
  S   S62       1.0  0.19506  0.82211  0.97458  1.0000
  C   C250      1.0  0.31056  0.53204  0.68221  1.0000
  H   H441      1.0  0.24378  0.99190  0.95407  1.0000
  H   H442      1.0  0.08737  0.76107  0.89514  1.0000
  H   H443      1.0  0.21164  0.93402  0.96070  1.0000
  H   H444      1.0  0.34362  0.61908  0.79900  1.0000
  H   H445      1.0  0.07238  0.86972  0.76342  1.0000
  H   H446      1.0  0.32366  0.77836  0.73291  1.0000
  H   H447      1.0  0.10803  0.91265  0.81236  1.0000
  H   H448      1.0  0.18410  0.98470  0.95128  1.0000
  C   C251      1.0  0.48808  0.69982  0.72273  1.0000
  H   H449      1.0  0.33523  0.88032  0.72803  1.0000
  C   C252      1.0  0.32478  0.83998  0.81157  1.0000
  H   H450      1.0  0.38743  0.83791  0.72700  1.0000
  C   C253      1.0  0.08517  0.78582  0.84860  1.0000
  C   C254      1.0  0.01854  0.83188  0.89841  1.0000
  H   H451      1.0  0.30004  0.86581  0.85149  1.0000
  H   H452      1.0  0.05842  0.77974  0.84521  1.0000
  H   H453      1.0  0.15536  0.93816  0.98441  1.0000
  H   H454      1.0  0.27438  0.53307  0.78088  1.0000
  H   H455      1.0  0.30727  0.56265  0.84343  1.0000
  H   H456      1.0  0.35848  0.79382  0.71099  1.0000
  C   C255      1.0  0.36697  0.55013  0.69294  1.0000
  C   C256      1.0  0.09376  0.87399  0.77976  1.0000
  H   H457      1.0  0.26561  0.98984  0.99096  1.0000
  C   C257      1.0  0.05566  0.80782  0.78314  1.0000
  H   H458      1.0  0.12545  0.84640  0.81318  1.0000
  C   C258      1.0  0.37236  0.84432  0.74911  1.0000
  N   N13       1.0  0.21367  0.97463  0.99394  1.0000
  C   C259      1.0  0.33652  0.80135  0.72655  1.0000
  H   H459      1.0  0.34799  0.88947  0.76813  1.0000
  H   H460      1.0  0.29481  0.58262  0.79560  1.0000
  N   N14       1.0  0.34820  0.81751  0.75702  1.0000
  H   H461      1.0  0.39149  0.84633  0.76850  1.0000
  C   C260      1.0  0.38319  0.90257  0.73105  1.0000
  C   C261      1.0  0.34055  0.55243  0.78167  1.0000
  H   H462      1.0  0.46356  0.60832  0.79299  1.0000
  H   H463      1.0  0.40518  0.90335  0.74743  1.0000
  H   H464      1.0  0.34764  0.85475  0.81281  1.0000
  C   C262      1.0  0.22162  0.93930  0.98507  1.0000
  H   H465      1.0  0.37177  0.92768  0.72886  1.0000
  H   H466      1.0  0.09740  0.73490  0.86121  1.0000
  H   H467      1.0  0.46697  0.57277  0.74417  1.0000
  C   C263      1.0  0.20910  0.98858  0.88863  1.0000
  H   H468      1.0  0.04952  0.78148  0.78443  1.0000
  C   C264      1.0  0.24062  0.99630  0.98054  1.0000
  H   H469      1.0  0.35889  0.55973  0.80030  1.0000
  H   H470      1.0  0.04383  0.97158  0.83806  1.0000
  H   H471      1.0  0.11690  0.87590  0.76454  1.0000
  H   H472      1.0  0.30159  0.57832  0.75297  1.0000
  H   H473      1.0  0.05080  0.81508  0.75755  1.0000
  H   H474      1.0  0.35517  0.55139  0.75856  1.0000
  H   H475      1.0  0.46384  0.64404  0.76691  1.0000
  C   C265      1.0  0.10046  0.75970  0.87128  1.0000
  C   C266      1.0  0.33176  0.61403  0.77543  1.0000
  C   C267      1.0  0.49003  0.71405  0.69195  1.0000
  H   H476      1.0  0.35139  0.61408  0.75609  1.0000
  H   H477      1.0  0.28700  0.77970  0.68524  1.0000
  H   H478      1.0  0.15723  0.78205  0.71379  1.0000
  C   C268      1.0  0.12003  0.97337  0.96463  1.0000
  H   H479      1.0  0.34875  0.51808  0.83749  1.0000
  C   C269      1.0  0.31448  0.58124  0.77648  1.0000
  H   H480      1.0  0.08477  0.92658  0.77747  1.0000
  H   H481      1.0  0.28964  0.83090  0.71745  1.0000
  C   C270      1.0  0.17423  0.98650  0.88507  1.0000
  H   H482      1.0  0.29897  0.80999  0.77792  1.0000
  H   H483      1.0  0.13157  0.78878  0.82066  1.0000
  H   H484      1.0  0.12657  0.96725  0.93913  1.0000
  H   H485      1.0  0.31981  0.52806  0.89167  1.0000
  S   S63       1.0  0.32225  0.65330  0.69438  1.0000
  H   H486      1.0  0.28391  0.53761  0.67913  1.0000
  H   H487      1.0  0.13029  0.75547  0.76112  1.0000
  C   C271      1.0  0.08701  0.90695  0.79607  1.0000
  H   H488      1.0  0.15214  0.87926  0.98872  1.0000
  C   C272      1.0  0.11479  0.77281  0.74615  1.0000
  H   H489      1.0  0.29081  0.88322  0.81230  1.0000
  C   C273      1.0  0.36668  0.79151  0.77692  1.0000
  C   C274      1.0  0.39576  0.77212  0.75934  1.0000
  C   C275      1.0  0.41573  0.75025  0.78295  1.0000
  H   H490      1.0  0.34872  0.77336  0.78635  1.0000
  H   H491      1.0  0.37785  0.80245  0.79874  1.0000
  H   H492      1.0  0.32881  0.81792  0.82710  1.0000
  H   H493      1.0  0.41348  0.78888  0.74736  1.0000
  H   H494      1.0  0.39198  0.89452  0.70668  1.0000
  H   H495      1.0  0.42968  0.61628  0.76502  1.0000
  H   H496      1.0  0.38552  0.75578  0.74081  1.0000
  H   H497      1.0  0.30413  0.85007  0.76408  1.0000
  H   H498      1.0  0.08899  0.76344  0.74401  1.0000
  H   H499      1.0  0.03373  0.82590  0.82986  1.0000
  H   H500      1.0  0.12773  0.76351  0.87505  1.0000
  Fe  Fe32      1.0  0.40529  0.69964  0.68194  1.0000
  C   C276      1.0  0.47615  0.59802  0.74247  1.0000
  C   C277      1.0  0.02884  0.82750  0.80366  1.0000
  H   H501      1.0  0.13240  0.74793  0.70262  1.0000
  H   H502      1.0  0.32601  0.84253  0.69355  1.0000
  C   C278      1.0  0.31256  0.82178  0.70432  1.0000
  C   C279      1.0  0.33276  0.55738  0.68759  1.0000
  H   H503      1.0  0.27112  0.93827  0.96085  1.0000
  H   H504      1.0  0.02869  0.85382  0.79697  1.0000
  C   C280      1.0  0.06368  0.98966  0.84166  1.0000
  H   H505      1.0  0.07226  0.99908  0.81782  1.0000
  H   H506      1.0  0.29716  0.51927  0.74653  1.0000
  C   C281      1.0  0.14971  0.96466  0.98678  1.0000
  C   C282      1.0  0.37909  0.51757  0.69179  1.0000
  H   H507      1.0  0.28976  0.88287  0.97752  1.0000
  H   H508      1.0  0.32317  0.58239  0.68848  1.0000
  C   C283      1.0  0.29504  0.52722  0.87942  1.0000
  N   N15       1.0  0.32702  0.51915  0.78977  1.0000
  H   H509      1.0  0.27290  0.53669  0.83322  1.0000
  S   S64       1.0  0.35437  0.72560  0.67973  1.0000
  C   C284      1.0  0.29839  0.53724  0.84387  1.0000
  H   H510      1.0  0.27699  0.54438  0.89194  1.0000
  H   H511      1.0  0.49627  0.55947  0.69632  1.0000
  H   H512      1.0  0.04248  0.00731  0.88667  1.0000
  C   C285      1.0  0.30061  0.80126  0.67617  1.0000
  H   H513      1.0  0.27397  0.93535  0.00403  1.0000
  C   C286      1.0  0.26278  0.89054  0.98053  1.0000
  C   C287      1.0  0.25931  0.92779  0.98294  1.0000
  H   H514      1.0  0.02044  0.80735  0.90833  1.0000
  H   H515      1.0  0.39932  0.52034  0.77734  1.0000
  H   H516      1.0  0.25282  0.87881  0.00282  1.0000
  H   H517      1.0  0.50230  0.63846  0.68964  1.0000
  H   H518      1.0  0.50680  0.53115  0.75435  1.0000
  H   H519      1.0  0.40554  0.51180  0.69584  1.0000
  C   C288      1.0  0.29388  0.51471  0.77293  1.0000
  H   H520      1.0  0.17323  0.01058  0.98432  1.0000
  H   H521      1.0  0.46542  0.51188  0.71396  1.0000
  H   H522      1.0  0.72524  0.20691  0.30224  1.0000
  C   C289      1.0  0.79402  0.44384  0.30677  1.0000
  C   C290      1.0  0.92707  0.24965  0.09459  1.0000
  H   H523      1.0  0.73542  0.38365  0.30581  1.0000
  H   H524      1.0  0.94212  0.10395  0.13541  1.0000
  C   C291      1.0  0.83632  0.38057  0.28979  1.0000
  Fe  Fe33      1.0  0.82827  0.21661  0.20190  1.0000
  S   S65       1.0  0.87361  0.19079  0.22459  1.0000
  S   S66       1.0  0.79717  0.26120  0.22051  1.0000
  Fe  Fe34      1.0  0.83513  0.17642  0.13942  1.0000
  S   S67       1.0  0.88006  0.14743  0.15774  1.0000
  S   S68       1.0  0.81722  0.16172  0.08979  1.0000
  Fe  Fe35      1.0  0.85197  0.14479  0.20465  1.0000
  S   S69       1.0  0.85712  0.09737  0.23304  1.0000
  Fe  Fe36      1.0  0.89834  0.19497  0.17566  1.0000
  S   S70       1.0  0.95216  0.20462  0.16060  1.0000
  S   S71       1.0  0.80489  0.17004  0.18540  1.0000
  S   S72       1.0  0.85516  0.22449  0.15403  1.0000
  C   C292      1.0  0.98583  0.19895  0.18769  1.0000
  H   H525      1.0  0.73494  0.45250  0.27453  1.0000
  C   C293      1.0  0.69177  0.42282  0.27254  1.0000
  C   C294      1.0  0.93300  0.14722  0.05387  1.0000
  H   H526      1.0  0.79203  0.45194  0.28108  1.0000
  C   C295      1.0  0.82767  0.05976  0.18653  1.0000
  C   C296      1.0  0.84662  0.06019  0.21484  1.0000
  C   C297      1.0  0.93196  0.12546  0.28896  1.0000
  H   H527      1.0  0.81958  0.08256  0.17510  1.0000
  H   H528      1.0  0.88204  0.12891  0.05472  1.0000
  H   H529      1.0  0.93710  0.04376  0.24424  1.0000
  C   C298      1.0  0.83363  0.21695  0.05454  1.0000
  C   C299      1.0  0.82698  0.18359  0.05412  1.0000
  C   C300      1.0  0.82813  0.16694  0.02453  1.0000
  H   H530      1.0  0.92551  0.09582  0.24721  1.0000
  H   H531      1.0  0.83241  0.23008  0.07716  1.0000
  H   H532      1.0  0.82265  0.14124  0.02393  1.0000
  H   H533      1.0  0.77669  0.05249  0.06211  1.0000
  H   H534      1.0  0.95769  0.13941  0.06427  1.0000
  C   C301      1.0  0.78817  0.24810  0.28615  1.0000
  C   C302      1.0  0.77994  0.26833  0.25980  1.0000
  C   C303      1.0  0.75760  0.29545  0.26471  1.0000
  C   C304      1.0  0.74318  0.30194  0.29545  1.0000
  H   H535      1.0  0.51120  0.48710  0.33627  1.0000
  H   H536      1.0  0.80545  0.22729  0.28281  1.0000
  H   H537      1.0  0.75119  0.31130  0.24448  1.0000
  C   C305      1.0  0.61558  0.23622  0.27767  1.0000
  H   H538      1.0  0.90926  0.28788  0.12718  1.0000
  C   C306      1.0  0.74359  0.40935  0.30633  1.0000
  H   H539      1.0  0.99476  0.12381  0.25977  1.0000
  H   H540      1.0  0.91493  0.09809  0.06076  1.0000
  H   H541      1.0  0.71492  0.17446  0.32986  1.0000
  C   C307      1.0  0.00827  0.18803  0.24130  1.0000
  C   C308      1.0  0.81936  0.07337  0.08428  1.0000
  H   H542      1.0  0.80347  0.08869  0.10097  1.0000
  H   H543      1.0  0.84620  0.25924  0.02588  1.0000
  H   H544      1.0  0.98187  0.13072  0.19529  1.0000
  C   C309      1.0  0.94358  0.20528  0.01215  1.0000
  C   C310      1.0  0.81789  0.02979  0.17377  1.0000
  C   C311      1.0  0.92359  0.18304  0.06375  1.0000
  C   C312      1.0  0.98013  0.20457  0.06101  1.0000
  H   H545      1.0  0.61469  0.20969  0.28351  1.0000
  H   H546      1.0  0.78530  0.36386  0.28491  1.0000
  H   H547      1.0  0.94912  0.10288  0.19447  1.0000
  H   H548      1.0  0.93897  0.13624  0.23872  1.0000
  C   C313      1.0  0.91046  0.28334  0.10072  1.0000
  N   N16       1.0  0.78122  0.40978  0.31095  1.0000
  H   H549      1.0  0.98397  0.08468  0.27455  1.0000
  C   C314      1.0  0.61020  0.24597  0.33694  1.0000
  H   H550      1.0  0.97996  0.20346  0.08796  1.0000
  C   C315      1.0  0.79790  0.38776  0.28587  1.0000
  N   N17       1.0  0.99280  0.08667  0.22270  1.0000
  H   H551      1.0  0.91158  0.23175  0.10761  1.0000
  H   H552      1.0  0.56762  0.46922  0.31429  1.0000
  H   H553      1.0  0.95269  0.24948  0.10511  1.0000
  H   H554      1.0  0.83978  0.03511  0.03894  1.0000
  H   H555      1.0  0.93378  0.10448  0.30612  1.0000
  H   H556      1.0  0.68537  0.39668  0.27132  1.0000
  H   H557      1.0  0.57357  0.20232  0.23741  1.0000
  C   C316      1.0  0.79997  0.04332  0.07449  1.0000
  C   C317      1.0  0.67279  0.20786  0.31868  1.0000
  H   H558      1.0  0.92527  0.30279  0.08906  1.0000
  H   H559      1.0  0.88429  0.28448  0.09130  1.0000
  H   H560      1.0  0.84526  0.36677  0.23937  1.0000
  H   H561      1.0  0.84221  0.36939  0.31366  1.0000
  H   H562      1.0  0.74160  0.41459  0.25319  1.0000
  H   H563      1.0  0.00412  0.18398  0.26690  1.0000
  C   C318      1.0  0.97703  0.10414  0.19400  1.0000
  H   H564      1.0  0.79460  0.39851  0.26128  1.0000
  H   H565      1.0  0.84308  0.06647  0.09693  1.0000
  N   N18       1.0  0.94465  0.20929  0.04857  1.0000
  H   H566      1.0  0.97888  0.10129  0.10944  1.0000
  H   H567      1.0  0.89655  0.18779  0.05795  1.0000
  H   H568      1.0  0.63337  0.23752  0.25671  1.0000
  H   H569      1.0  0.90335  0.12589  0.09296  1.0000
  C   C319      1.0  0.92899  0.24210  0.05800  1.0000
  C   C320      1.0  0.84151  0.23337  0.02551  1.0000
  H   H570      1.0  0.87705  0.35175  0.26714  1.0000
  H   H571      1.0  0.82534  0.08849  0.06269  1.0000
  C   C321      1.0  0.72992  0.42601  0.27501  1.0000
  C   C322      1.0  0.66555  0.24454  0.31026  1.0000
  H   H572      1.0  0.73385  0.21866  0.00868  1.0000
  H   H573      1.0  0.68047  0.24953  0.28793  1.0000
  S   S73       1.0  0.58090  0.36362  0.33465  1.0000
  H   H574      1.0  0.78065  0.23896  0.33714  1.0000
  H   H575      1.0  0.79374  0.34471  0.33535  1.0000
  C   C323      1.0  0.98922  0.09223  0.16020  1.0000
  C   C324      1.0  0.57974  0.24636  0.26597  1.0000
  C   C325      1.0  0.64567  0.30391  0.26994  1.0000
  H   H576      1.0  0.82143  0.44406  0.31220  1.0000
  H   H577      1.0  0.79123  0.03080  0.09660  1.0000
  H   H578      1.0  0.65174  0.34898  0.24278  1.0000
  C   C326      1.0  0.57175  0.22933  0.23431  1.0000
  C   C327      1.0  0.63698  0.34010  0.26384  1.0000
  H   H579      1.0  0.93454  0.14423  0.02727  1.0000
  H   H580      1.0  0.99115  0.18051  0.05321  1.0000
  H   H581      1.0  0.64304  0.35483  0.28529  1.0000
  C   C328      1.0  0.00568  0.23018  0.04998  1.0000
  H   H582      1.0  0.99664  0.25539  0.05592  1.0000
  C   C329      1.0  0.98698  0.05038  0.22240  1.0000
  C   C330      1.0  0.62711  0.29128  0.30055  1.0000
  C   C331      1.0  0.77668  0.47051  0.32852  1.0000
  H   H583      1.0  0.67340  0.30130  0.27293  1.0000
  H   H584      1.0  0.57681  0.27304  0.26152  1.0000
  H   H585      1.0  0.67868  0.43427  0.29371  1.0000
  H   H586      1.0  0.72573  0.32256  0.29877  1.0000
  H   H587      1.0  0.63858  0.29050  0.24800  1.0000
  H   H588      1.0  0.87943  0.01625  0.07851  1.0000
  H   H589      1.0  0.87116  0.03060  0.25163  1.0000
  H   H590      1.0  0.80210  0.02972  0.15268  1.0000
  H   H591      1.0  0.98589  0.06560  0.15750  1.0000
  H   H592      1.0  0.54566  0.23639  0.22680  1.0000
  C   C332      1.0  0.96923  0.10966  0.13338  1.0000
  H   H593      1.0  0.56069  0.23874  0.28406  1.0000
  H   H594      1.0  0.74891  0.47151  0.32572  1.0000
  H   H595      1.0  0.58946  0.23673  0.21481  1.0000
  C   C333      1.0  0.75122  0.28148  0.32171  1.0000
  C   C334      1.0  0.84953  0.35657  0.26402  1.0000
  C   C335      1.0  0.94992  0.03975  0.22055  1.0000
  H   H596      1.0  0.60967  0.34382  0.25859  1.0000
  C   C336      1.0  0.94267  0.11471  0.25497  1.0000
  C   C337      1.0  0.97998  0.10201  0.25392  1.0000
  H   H597      1.0  0.95508  0.19391  0.23052  1.0000
  H   H598      1.0  0.92513  0.18342  0.09060  1.0000
  C   C338      1.0  0.98051  0.19361  0.22077  1.0000
  H   H599      1.0  0.67680  0.25938  0.32962  1.0000
  H   H600      1.0  0.60064  0.30083  0.29911  1.0000
  H   H601      1.0  0.94254  0.26252  0.04670  1.0000
  H   H602      1.0  0.90290  0.24440  0.04853  1.0000
  H   H603      1.0  0.97177  0.13657  0.13489  1.0000
  C   C339      1.0  0.90674  0.12366  0.06641  1.0000
  H   H604      1.0  0.83671  0.33289  0.26626  1.0000
  C   C340      1.0  0.77409  0.25484  0.31695  1.0000
  C   C341      1.0  0.85666  0.03044  0.22962  1.0000
  H   H605      1.0  0.68248  0.43537  0.25028  1.0000
  H   H606      1.0  0.72992  0.42067  0.32734  1.0000
  H   H607      1.0  0.85045  0.40336  0.28718  1.0000
  C   C342      1.0  0.82020  0.02030  0.05082  1.0000
  H   H608      1.0  0.63768  0.30388  0.32180  1.0000
  H   H609      1.0  0.66525  0.19197  0.29858  1.0000
  H   H610      1.0  0.90528  0.13478  0.28857  1.0000
  C   C343      1.0  0.71036  0.20082  0.32425  1.0000
  H   H611      1.0  0.78282  0.51105  0.29470  1.0000
  N   N19       1.0  0.62882  0.25472  0.30604  1.0000
  H   H612      1.0  0.94797  0.14536  0.29742  1.0000
  H   H613      1.0  0.00155  0.03848  0.20228  1.0000
  H   H614      1.0  0.56069  0.27068  0.32554  1.0000
  H   H615      1.0  0.93542  0.05293  0.20146  1.0000
  H   H616      1.0  0.80321  0.01434  0.03056  1.0000
  H   H617      1.0  0.60318  0.21987  0.33659  1.0000
  H   H618      1.0  0.81673  0.50548  0.32360  1.0000
  H   H619      1.0  0.99721  0.03849  0.24465  1.0000
  C   C344      1.0  0.78905  0.50448  0.32011  1.0000
  H   H620      1.0  0.59281  0.43921  0.33623  1.0000
  H   H621      1.0  0.51213  0.36174  0.31416  1.0000
  C   C345      1.0  0.57337  0.45931  0.33877  1.0000
  C   C346      1.0  0.51307  0.35336  0.33899  1.0000
  H   H622      1.0  0.53279  0.42628  0.33911  1.0000
  Fe  Fe37      1.0  0.65208  0.35212  0.43454  1.0000
  S   S74       1.0  0.63207  0.39641  0.40760  1.0000
  S   S75       1.0  0.62920  0.34489  0.48435  1.0000
  Fe  Fe38      1.0  0.68532  0.40113  0.38998  1.0000
  S   S76       1.0  0.70591  0.35901  0.41989  1.0000
  S   S77       1.0  0.64313  0.31714  0.39400  1.0000
  H   H623      1.0  0.62706  0.24811  0.35824  1.0000
  Fe  Fe39      1.0  0.67978  0.36438  0.65948  1.0000
  S   S78       1.0  0.71149  0.35524  0.61444  1.0000
  H   H624      1.0  0.55211  0.35722  0.59306  1.0000
  H   H625      1.0  0.58557  0.47768  0.59949  1.0000
  S   S79       1.0  0.71523  0.44688  0.39419  1.0000
  C   C347      1.0  0.72851  0.45295  0.62767  1.0000
  C   C348      1.0  0.71014  0.45478  0.59543  1.0000
  H   H626      1.0  0.83012  0.26562  0.61756  1.0000
  H   H627      1.0  0.81453  0.31685  0.64211  1.0000
  C   C349      1.0  0.65304  0.34703  0.51996  1.0000
  C   C350      1.0  0.68812  0.34986  0.51923  1.0000
  C   C351      1.0  0.70603  0.35184  0.54836  1.0000
  C   C352      1.0  0.68891  0.35123  0.57825  1.0000
  C   C353      1.0  0.65393  0.34810  0.57890  1.0000
  C   C354      1.0  0.63610  0.34601  0.54988  1.0000
  H   H628      1.0  0.70141  0.35044  0.49627  1.0000
  H   H629      1.0  0.73311  0.35415  0.54769  1.0000
  H   H630      1.0  0.64058  0.34685  0.60174  1.0000
  H   H631      1.0  0.60904  0.34346  0.55059  1.0000
  Fe  Fe40      1.0  0.62689  0.36208  0.36621  1.0000
  C   C355      1.0  0.79323  0.35241  0.38645  1.0000
  H   H632      1.0  0.60067  0.44363  0.55364  1.0000
  C   C356      1.0  0.56314  0.43173  0.60838  1.0000
  H   H633      1.0  0.71268  0.47967  0.58511  1.0000
  H   H634      1.0  0.74279  0.23123  0.65244  1.0000
  C   C357      1.0  0.55864  0.25155  0.37390  1.0000
  H   H635      1.0  0.78616  0.32694  0.39201  1.0000
  C   C358      1.0  0.74425  0.28156  0.67121  1.0000
  H   H636      1.0  0.65418  0.44141  0.45704  1.0000
  H   H637      1.0  0.67228  0.41904  0.60357  1.0000
  C   C359      1.0  0.70041  0.48484  0.37835  1.0000
  H   H638      1.0  0.77241  0.31676  0.62860  1.0000
  H   H639      1.0  0.69154  0.45196  0.53600  1.0000
  Fe  Fe41      1.0  0.69547  0.32825  0.37636  1.0000
  C   C360      1.0  0.54117  0.33610  0.60582  1.0000
  H   H640      1.0  0.58569  0.29147  0.35398  1.0000
  C   C361      1.0  0.67690  0.48678  0.35337  1.0000
  S   S80       1.0  0.67845  0.37086  0.34553  1.0000
  H   H641      1.0  0.82110  0.35365  0.38795  1.0000
  H   H642      1.0  0.54947  0.43568  0.37845  1.0000
  C   C362      1.0  0.64599  0.49187  0.56608  1.0000
  H   H643      1.0  0.69041  0.45446  0.47832  1.0000
  H   H644      1.0  0.71616  0.46976  0.64550  1.0000
  H   H645      1.0  0.81742  0.27703  0.56025  1.0000
  C   C363      1.0  0.59448  0.45205  0.60400  1.0000
  H   H646      1.0  0.67271  0.41411  0.54457  1.0000
  H   H647      1.0  0.67930  0.41188  0.47971  1.0000
  C   C364      1.0  0.69269  0.25246  0.65216  1.0000
  H   H648      1.0  0.63035  0.50386  0.61670  1.0000
  H   H649      1.0  0.75367  0.35857  0.35175  1.0000
  H   H650      1.0  0.82612  0.31451  0.58079  1.0000
  H   H651      1.0  0.57444  0.24990  0.39593  1.0000
  C   C365      1.0  0.80808  0.29445  0.57907  1.0000
  H   H652      1.0  0.78126  0.36884  0.40487  1.0000
  H   H653      1.0  0.56906  0.33945  0.39973  1.0000
  H   H654      1.0  0.78308  0.30485  0.57144  1.0000
  H   H655      1.0  0.66256  0.45674  0.62205  1.0000
  C   C366      1.0  0.54533  0.34060  0.38704  1.0000
  H   H656      1.0  0.60841  0.45069  0.62699  1.0000
  C   C367      1.0  0.78125  0.36201  0.35256  1.0000
  S   S81       1.0  0.73280  0.28759  0.36066  1.0000
  C   C368      1.0  0.61666  0.43963  0.57530  1.0000
  H   H657      1.0  0.78750  0.25642  0.60819  1.0000
  C   C369      1.0  0.64659  0.44424  0.50897  1.0000
  H   H658      1.0  0.62623  0.42626  0.50862  1.0000
  C   C370      1.0  0.66913  0.43753  0.47935  1.0000
  C   C371      1.0  0.51421  0.47351  0.35954  1.0000
  H   H659      1.0  0.53568  0.26689  0.37950  1.0000
  H   H660      1.0  0.55549  0.33145  0.62842  1.0000
  C   C372      1.0  0.51593  0.33010  0.40255  1.0000
  C   C373      1.0  0.79294  0.30053  0.63867  1.0000
  C   C374      1.0  0.66687  0.44066  0.54081  1.0000
  H   H661      1.0  0.54789  0.43207  0.58600  1.0000
  H   H662      1.0  0.54436  0.31415  0.59027  1.0000
  C   C375      1.0  0.80490  0.27661  0.61152  1.0000
  H   H663      1.0  0.54734  0.44185  0.62854  1.0000
  H   H664      1.0  0.62216  0.49768  0.55286  1.0000
  C   C376      1.0  0.67252  0.44595  0.59919  1.0000
  H   H665      1.0  0.62047  0.41259  0.57782  1.0000
  H   H666      1.0  0.72875  0.42754  0.63724  1.0000
  S   S82       1.0  0.62701  0.38540  0.65917  1.0000
  C   C377      1.0  0.73077  0.25570  0.64800  1.0000
  H   H667      1.0  0.77579  0.35467  0.66919  1.0000
  H   H668      1.0  0.57061  0.40612  0.61470  1.0000
  N   N20       1.0  0.65036  0.45525  0.57082  1.0000
  H   H669      1.0  0.72339  0.43708  0.57896  1.0000
  H   H670      1.0  0.52271  0.41824  0.45474  1.0000
  H   H671      1.0  0.63507  0.46919  0.50621  1.0000
  H   H672      1.0  0.73095  0.30497  0.66452  1.0000
  H   H673      1.0  0.55056  0.22678  0.36732  1.0000
  H   H674      1.0  0.75504  0.46012  0.62415  1.0000
  H   H675      1.0  0.68398  0.23273  0.63629  1.0000
  H   H676      1.0  0.77444  0.41300  0.36283  1.0000
  H   H677      1.0  0.73508  0.26329  0.62256  1.0000
  N   N21       1.0  0.78187  0.28583  0.67069  1.0000
  H   H678      1.0  0.79738  0.23592  0.65836  1.0000
  H   H679      1.0  0.67916  0.27561  0.64503  1.0000
  C   C378      1.0  0.54165  0.44604  0.35474  1.0000
  C   C379      1.0  0.54403  0.35187  0.35506  1.0000
  H   H680      1.0  0.66613  0.46475  0.34441  1.0000
  H   H681      1.0  0.81604  0.40204  0.35061  1.0000
  H   H682      1.0  0.66634  0.50126  0.55009  1.0000
  C   C380      1.0  0.78915  0.39810  0.34481  1.0000
  H   H683      1.0  0.58403  0.47880  0.35375  1.0000
  H   H684      1.0  0.51726  0.32069  0.42705  1.0000
  H   H685      1.0  0.78231  0.46577  0.35440  1.0000
  H   H686      1.0  0.52538  0.49126  0.37623  1.0000
  C   C381      1.0  0.57815  0.26699  0.34599  1.0000
  H   H687      1.0  0.51142  0.40444  0.39783  1.0000
  H   H688      1.0  0.71921  0.21523  0.34499  1.0000
  H   H689      1.0  0.65919  0.20051  0.34099  1.0000
  Fe  Fe42      1.0  0.68345  0.36296  0.73298  1.0000
  S   S83       1.0  0.63046  0.38468  0.73894  1.0000
  S   S84       1.0  0.72066  0.35234  0.77388  1.0000
  C   C382      1.0  0.83105  0.31865  0.88322  1.0000
  C   C383      1.0  0.53224  0.34322  0.70195  1.0000
  C   C384      1.0  0.97721  0.08164  0.84895  1.0000
  H   H690      1.0  0.80358  0.18710  0.69328  1.0000
  Fe  Fe43      1.0  0.83002  0.19914  0.84707  1.0000
  S   S85       1.0  0.86145  0.15286  0.83859  1.0000
  S   S86       1.0  0.79217  0.21414  0.80763  1.0000
  Fe  Fe44      1.0  0.85832  0.20657  0.91492  1.0000
  S   S87       1.0  0.89240  0.16182  0.91151  1.0000
  S   S88       1.0  0.85490  0.23726  0.96029  1.0000
  Fe  Fe45      1.0  0.90380  0.17948  0.86126  1.0000
  S   S89       1.0  0.95582  0.17071  0.83915  1.0000
  Fe  Fe46      1.0  0.84800  0.13846  0.88931  1.0000
  S   S90       1.0  0.83397  0.08916  0.90932  1.0000
  S   S91       1.0  0.87362  0.22691  0.86612  1.0000
  S   S92       1.0  0.81277  0.18214  0.89635  1.0000
  H   H691      1.0  0.77460  0.27943  0.95364  1.0000
  H   H692      1.0  0.85792  0.31006  0.88176  1.0000
  C   C385      1.0  0.93293  0.09015  0.80563  1.0000
  C   C386      1.0  0.99079  0.18748  0.85799  1.0000
  C   C387      1.0  0.98704  0.21423  0.87870  1.0000
  H   H693      1.0  0.91949  0.10897  0.82059  1.0000
  H   H694      1.0  0.96221  0.22518  0.88315  1.0000
  S   S93       1.0  0.62293  0.47083  0.69172  1.0000
  C   C388      1.0  0.84626  0.05283  0.88908  1.0000
  C   C389      1.0  0.94652  0.23654  0.99090  1.0000
  C   C390      1.0  0.85969  0.05330  0.85767  1.0000
  H   H695      1.0  0.95097  0.10236  0.78918  1.0000
  H   H696      1.0  0.86309  0.07639  0.84542  1.0000
  C   C391      1.0  0.77315  0.25290  0.79802  1.0000
  C   C392      1.0  0.74422  0.25435  0.77858  1.0000
  C   C393      1.0  0.72821  0.28459  0.77043  1.0000
  C   C394      1.0  0.74079  0.31374  0.78200  1.0000
  C   C395      1.0  0.76989  0.31230  0.80120  1.0000
  C   C396      1.0  0.78621  0.28208  0.80886  1.0000
  H   H697      1.0  0.73395  0.23189  0.76998  1.0000
  H   H698      1.0  0.70573  0.28528  0.75580  1.0000
  H   H699      1.0  0.77999  0.33475  0.80996  1.0000
  H   H700      1.0  0.80906  0.28131  0.82284  1.0000
  H   H701      1.0  0.76615  0.23294  0.71298  1.0000
  C   C397      1.0  0.53249  0.37683  0.70760  1.0000
  H   H702      1.0  0.76942  0.32326  0.91304  1.0000
  H   H703      1.0  0.55623  0.38895  0.70898  1.0000
  H   H704      1.0  0.96337  0.04640  0.81120  1.0000
  C   C398      1.0  0.79007  0.30954  0.69711  1.0000
  C   C399      1.0  0.81195  0.20363  0.71258  1.0000
  H   H705      1.0  0.81638  0.37177  0.71016  1.0000
  C   C400      1.0  0.97954  0.03995  0.89319  1.0000
  H   H706      1.0  0.82903  0.33969  0.90004  1.0000
  C   C401      1.0  0.75276  0.22740  0.99092  1.0000
  C   C402      1.0  0.79352  0.23700  0.71016  1.0000
  C   C403      1.0  0.78964  0.36814  0.71710  1.0000
  C   C404      1.0  0.84366  0.21641  0.99612  1.0000
  H   H707      1.0  0.82900  0.25854  0.67686  1.0000
  N   N22       1.0  0.74754  0.27574  0.90841  1.0000
  C   C405      1.0  0.73509  0.24731  0.96421  1.0000
  C   C406      1.0  0.76105  0.26088  0.93959  1.0000
  C   C407      1.0  0.77158  0.30144  0.89705  1.0000
  C   C408      1.0  0.74596  0.25024  0.88232  1.0000
  C   C409      1.0  0.72161  0.22212  0.88852  1.0000
  C   C410      1.0  0.69712  0.30986  0.88424  1.0000
  C   C411      1.0  0.80957  0.29078  0.89550  1.0000
  H   H708      1.0  0.82297  0.32687  0.85876  1.0000
  C   C412      1.0  0.71895  0.20048  0.85875  1.0000
  C   C413      1.0  0.95080  0.22790  0.95522  1.0000
  Fe  Fe47      1.0  0.64390  0.41883  0.69811  1.0000
  C   C414      1.0  0.77355  0.34439  0.69396  1.0000
  H   H709      1.0  0.69488  0.27565  0.92373  1.0000
  H   H710      1.0  0.78039  0.24114  0.93419  1.0000
  S   S94       1.0  0.69779  0.40047  0.69548  1.0000
  C   C415      1.0  0.95136  0.06508  0.82725  1.0000
  H   H711      1.0  0.76494  0.31025  0.87233  1.0000
  H   H712      1.0  0.73959  0.26185  0.85869  1.0000
  H   H713      1.0  0.77116  0.23834  0.87812  1.0000
  H   H714      1.0  0.69578  0.23147  0.89458  1.0000
  H   H715      1.0  0.73134  0.20614  0.90837  1.0000
  H   H716      1.0  0.72077  0.26796  0.97591  1.0000
  H   H717      1.0  0.69298  0.29208  0.86468  1.0000
  H   H718      1.0  0.81391  0.26975  0.87915  1.0000
  H   H719      1.0  0.71292  0.32959  0.87456  1.0000
  C   C416      1.0  0.66274  0.32561  0.89304  1.0000
  H   H720      1.0  0.71662  0.23152  0.95284  1.0000
  H   H721      1.0  0.75319  0.02560  0.82783  1.0000
  H   H722      1.0  0.74366  0.18796  0.85335  1.0000
  H   H723      1.0  0.70022  0.18143  0.86341  1.0000
  H   H724      1.0  0.71077  0.21516  0.83733  1.0000
  H   H725      1.0  0.81921  0.28371  0.91967  1.0000
  C   C417      1.0  0.71361  0.29279  0.91415  1.0000
  S   S95       1.0  0.66893  0.32576  0.69663  1.0000
  H   H726      1.0  0.87784  0.02415  0.81733  1.0000
  C   C418      1.0  0.64972  0.50427  0.69052  1.0000
  C   C419      1.0  0.86799  0.02373  0.84182  1.0000
  H   H727      1.0  0.66539  0.34439  0.91204  1.0000
  H   H728      1.0  0.92893  0.21419  0.94679  1.0000
  C   C420      1.0  0.83691  0.18313  0.99572  1.0000
  H   H729      1.0  0.65164  0.33774  0.87128  1.0000
  H   H730      1.0  0.78160  0.30048  0.72116  1.0000
  H   H731      1.0  0.99272  0.09779  0.83336  1.0000
  H   H732      1.0  0.99429  0.12676  0.89486  1.0000
  H   H733      1.0  0.80621  0.19224  0.73641  1.0000
  C   C421      1.0  0.00681  0.10706  0.90941  1.0000
  H   H734      1.0  0.83968  0.20630  0.71068  1.0000
  H   H735      1.0  0.64519  0.30683  0.90175  1.0000
  H   H736      1.0  0.80204  0.25162  0.73083  1.0000
  H   H737      1.0  0.83816  0.16984  0.97317  1.0000
  H   H738      1.0  0.81796  0.31176  0.69875  1.0000
  H   H739      1.0  0.71587  0.31159  0.93334  1.0000
  H   H740      1.0  0.96167  0.09833  0.86469  1.0000
  H   H741      1.0  0.95219  0.25067  0.94057  1.0000
  H   H742      1.0  0.96344  0.18713  0.00401  1.0000
  C   C422      1.0  0.78035  0.01821  0.82584  1.0000
  Fe  Fe48      1.0  0.61718  0.35009  0.69943  1.0000
  H   H743      1.0  0.98768  0.09638  0.92572  1.0000
  C   C423      1.0  0.84170  0.02271  0.90468  1.0000
  H   H744      1.0  0.91402  0.07781  0.79082  1.0000
  H   H745      1.0  0.77083  0.24261  0.00391  1.0000
  H   H746      1.0  0.73519  0.27608  0.69617  1.0000
  C   C424      1.0  0.68351  0.50116  0.69968  1.0000
  H   H747      1.0  0.76660  0.20573  0.98059  1.0000
  H   H748      1.0  0.99793  0.25370  0.81147  1.0000
  H   H749      1.0  0.79404  0.03858  0.81442  1.0000
  H   H750      1.0  0.54031  0.50912  0.73339  1.0000
  H   H751      1.0  0.99433  0.03487  0.91555  1.0000
  H   H752      1.0  0.93192  0.05372  0.84264  1.0000
  S   S96       1.0  0.57038  0.32022  0.69780  1.0000
  H   H753      1.0  0.68610  0.24627  0.67760  1.0000
  H   H754      1.0  0.91904  0.19508  0.00483  1.0000
  H   H755      1.0  0.69401  0.47761  0.70726  1.0000
  H   H756      1.0  0.78852  0.35878  0.74235  1.0000
  H   H757      1.0  0.95701  0.05490  0.90139  1.0000
  H   H758      1.0  0.97434  0.21287  0.95124  1.0000
  C   C425      1.0  0.80140  0.25417  0.67748  1.0000
  H   H759      1.0  0.00551  0.02032  0.83360  1.0000
  N   N23       1.0  0.99992  0.05925  0.86902  1.0000
  H   H760      1.0  0.83127  0.02221  0.92895  1.0000
  H   H761      1.0  0.77573  0.39217  0.71615  1.0000
  H   H762      1.0  0.74633  0.34356  0.70031  1.0000
  H   H763      1.0  0.92307  0.25213  0.99327  1.0000
  H   H764      1.0  0.96803  0.25139  0.99777  1.0000
  H   H765      1.0  0.79052  0.01404  0.85051  1.0000
  Fe  Fe49      1.0  0.82752  0.84455  0.21523  1.0000
  S   S97       1.0  0.88126  0.82904  0.20271  1.0000
  S   S98       1.0  0.79011  0.80557  0.23064  1.0000
  Fe  Fe50      1.0  0.83733  0.91435  0.18867  1.0000
  S   S99       1.0  0.89125  0.90368  0.17490  1.0000
  S   S100      1.0  0.81410  0.96305  0.17226  1.0000
  Fe  Fe51      1.0  0.87345  0.85636  0.15596  1.0000
  S   S101      1.0  0.89710  0.83782  0.10932  1.0000
  Fe  Fe52      1.0  0.89468  0.87770  0.22254  1.0000
  S   S102      1.0  0.94090  0.88635  0.25234  1.0000
  S   S103      1.0  0.81888  0.86833  0.16636  1.0000
  S   S104      1.0  0.84150  0.89199  0.23848  1.0000
  H   H766      1.0  0.82041  0.94439  0.08824  1.0000
  H   H767      1.0  0.97039  0.77791  0.31695  1.0000
  H   H768      1.0  0.97581  0.74904  0.10766  1.0000
  C   C426      1.0  0.90186  0.81699  0.29591  1.0000
  H   H769      1.0  0.85523  0.97764  0.22807  1.0000
  C   C427      1.0  0.87855  0.85375  0.07371  1.0000
  C   C428      1.0  0.84827  0.87225  0.07511  1.0000
  C   C429      1.0  0.83349  0.88439  0.04658  1.0000
  H   H770      1.0  0.95968  0.99782  0.18910  1.0000
  H   H771      1.0  0.92613  0.71809  0.31988  1.0000
  C   C430      1.0  0.89421  0.84789  0.04357  1.0000
  H   H772      1.0  0.83592  0.87678  0.09810  1.0000
  H   H773      1.0  0.80973  0.89807  0.04776  1.0000
  C   C431      1.0  0.61173  0.80207  0.29990  1.0000
  H   H774      1.0  0.91757  0.83345  0.04229  1.0000
  C   C432      1.0  0.97868  0.86731  0.23806  1.0000
  H   H775      1.0  0.92177  0.99586  0.21313  1.0000
  C   C433      1.0  0.97810  0.83855  0.22007  1.0000
  H   H776      1.0  0.76567  0.91757  0.08706  1.0000
  H   H777      1.0  0.95435  0.82784  0.21466  1.0000
  H   H778      1.0  0.99831  0.76402  0.14192  1.0000
  C   C434      1.0  0.75024  0.74156  0.29547  1.0000
  C   C435      1.0  0.76023  0.75757  0.26675  1.0000
  C   C436      1.0  0.77764  0.78695  0.26772  1.0000
  C   C437      1.0  0.78403  0.80065  0.29782  1.0000
  H   H779      1.0  0.93292  0.91364  0.05528  1.0000
  H   H780      1.0  0.73736  0.71874  0.29431  1.0000
  H   H781      1.0  0.75482  0.74690  0.24359  1.0000
  H   H782      1.0  0.79579  0.82397  0.29900  1.0000
  N   N24       1.0  0.64371  0.78072  0.29932  1.0000
  C   C438      1.0  0.75760  0.75481  0.32558  1.0000
  C   C439      1.0  0.99035  0.79948  0.10284  1.0000
  H   H783      1.0  0.74670  0.95293  0.10707  1.0000
  H   H784      1.0  0.89816  0.95641  0.08552  1.0000
  H   H785      1.0  0.95455  0.77667  0.13554  1.0000
  H   H786      1.0  0.92303  0.96127  0.13918  1.0000
  C   C440      1.0  0.67144  0.79928  0.28278  1.0000
  C   C441      1.0  0.66807  0.51733  0.33932  1.0000
  H   H787      1.0  0.90873  0.82772  0.27200  1.0000
  C   C442      1.0  0.63888  0.74982  0.28036  1.0000
  H   H788      1.0  0.85959  0.94439  0.04747  1.0000
  C   C443      1.0  0.60983  0.69612  0.27256  1.0000
  C   C444      1.0  0.87969  0.86068  0.01500  1.0000
  N   N25       1.0  0.90302  0.78007  0.29413  1.0000
  H   H789      1.0  0.85419  0.81985  0.32500  1.0000
  C   C445      1.0  0.87259  0.76935  0.27555  1.0000
  C   C446      1.0  0.95769  0.91279  0.04242  1.0000
  H   H790      1.0  0.54055  0.80558  0.30049  1.0000
  H   H791      1.0  0.64024  0.81729  0.24183  1.0000
  C   C447      1.0  0.87665  0.73699  0.25615  1.0000
  C   C448      1.0  0.84269  0.72555  0.24437  1.0000
  H   H792      1.0  0.97951  0.85281  0.06288  1.0000
  C   C449      1.0  0.93528  0.76988  0.27657  1.0000
  C   C450      1.0  0.94844  0.00323  0.21325  1.0000
  H   H793      1.0  0.69602  0.78541  0.28472  1.0000
  H   H794      1.0  0.86493  0.78804  0.25712  1.0000
  C   C451      1.0  0.86185  0.99852  0.08935  1.0000
  C   C452      1.0  0.77448  0.78445  0.32653  1.0000
  H   H795      1.0  0.89283  0.74090  0.23444  1.0000
  H   H796      1.0  0.87462  0.00735  0.00864  1.0000
  C   C453      1.0  0.69083  0.83338  0.23486  1.0000
  H   H797      1.0  0.67131  0.78559  0.23149  1.0000
  H   H798      1.0  0.88847  0.71683  0.27046  1.0000
  H   H799      1.0  0.84644  0.70249  0.23060  1.0000
  H   H800      1.0  0.82551  0.72094  0.26517  1.0000
  H   H801      1.0  0.83074  0.74420  0.22810  1.0000
  H   H802      1.0  0.78141  0.95305  0.04001  1.0000
  H   H803      1.0  0.93833  0.74293  0.27500  1.0000
  N   N26       1.0  0.83570  0.98931  0.06521  1.0000
  C   C454      1.0  0.90387  0.72937  0.33245  1.0000
  H   H804      1.0  0.68599  0.85688  0.24766  1.0000
  C   C455      1.0  0.66628  0.80772  0.24646  1.0000
  H   H805      1.0  0.85075  0.83486  0.28437  1.0000
  C   C456      1.0  0.99485  0.82999  0.12417  1.0000
  H   H806      1.0  0.85026  0.76767  0.29200  1.0000
  H   H807      1.0  0.96986  0.83524  0.13590  1.0000
  H   H808      1.0  0.51954  0.63767  0.32699  1.0000
  H   H809      1.0  0.63299  0.75559  0.25472  1.0000
  C   C457      1.0  0.87151  0.86831  0.31781  1.0000
  H   H810      1.0  0.00786  0.80050  0.19639  1.0000
  H   H811      1.0  0.96993  0.80938  0.28628  1.0000
  H   H812      1.0  0.59792  0.79951  0.27678  1.0000
  H   H813      1.0  0.88451  0.88324  0.29931  1.0000
  H   H814      1.0  0.96057  0.90846  0.13300  1.0000
  C   C458      1.0  0.96847  0.78263  0.29063  1.0000
  H   H815      1.0  0.95703  0.89419  0.02299  1.0000
  C   C459      1.0  0.85111  0.96886  0.03823  1.0000
  C   C460      1.0  0.97910  0.77057  0.12338  1.0000
  H   H816      1.0  0.96936  0.87992  0.16519  1.0000
  H   H817      1.0  0.65048  0.51871  0.31950  1.0000
  H   H818      1.0  0.86669  0.95205  0.11670  1.0000
  H   H819      1.0  0.61180  0.72153  0.31756  1.0000
  C   C461      1.0  0.60985  0.72800  0.29165  1.0000
  C   C462      1.0  0.84925  0.87902  0.01653  1.0000
  H   H820      1.0  0.72958  0.93881  0.06959  1.0000
  C   C463      1.0  0.98086  0.87100  0.08266  1.0000
  H   H821      1.0  0.88044  0.71894  0.32313  1.0000
  H   H822      1.0  0.58509  0.74074  0.28737  1.0000
  C   C464      1.0  0.84762  0.00042  0.21635  1.0000
  H   H823      1.0  0.66285  0.73464  0.27996  1.0000
  C   C465      1.0  0.98627  0.90448  0.06599  1.0000
  C   C466      1.0  0.98845  0.92757  0.17216  1.0000
  C   C467      1.0  0.82777  0.00004  0.18862  1.0000
  H   H824      1.0  0.67511  0.82290  0.29524  1.0000
  C   C468      1.0  0.80967  0.96922  0.08240  1.0000
  C   C469      1.0  0.90219  0.76698  0.32837  1.0000
  C   C470      1.0  0.88310  0.96971  0.10428  1.0000
  C   C471      1.0  0.77640  0.96431  0.06398  1.0000
  C   C472      1.0  0.75324  0.94203  0.08316  1.0000
  C   C473      1.0  0.90759  0.98212  0.12934  1.0000
  H   H825      1.0  0.89343  0.99390  0.14976  1.0000
  H   H826      1.0  0.68775  0.83778  0.20850  1.0000
  H   H827      1.0  0.63409  0.68203  0.27543  1.0000
  H   H828      1.0  0.61775  0.82843  0.30094  1.0000
  H   H829      1.0  0.80284  0.97966  0.10641  1.0000
  C   C474      1.0  0.86740  0.83347  0.30577  1.0000
  H   H830      1.0  0.96204  0.98841  0.23197  1.0000
  H   H831      1.0  0.95526  0.87177  0.09387  1.0000
  H   H832      1.0  0.92478  0.99996  0.11825  1.0000
  H   H833      1.0  0.93405  0.77868  0.25098  1.0000
  H   H834      1.0  0.97064  0.80435  0.08439  1.0000
  H   H835      1.0  0.60565  0.70122  0.24646  1.0000
  H   H836      1.0  0.71730  0.82477  0.23913  1.0000
  C   C475      1.0  0.55276  0.81485  0.32251  1.0000
  H   H837      1.0  0.76239  0.98798  0.06032  1.0000
  H   H838      1.0  0.83176  0.96378  0.01979  1.0000
  H   H839      1.0  0.77627  0.52284  0.33620  1.0000
  C   C476      1.0  0.58640  0.79647  0.32828  1.0000
  H   H840      1.0  0.92119  0.82548  0.31300  1.0000
  H   H841      1.0  0.58916  0.68078  0.28169  1.0000
  H   H842      1.0  0.90304  0.98648  0.03621  1.0000
  H   H843      1.0  0.55655  0.84150  0.31978  1.0000
  C   C477      1.0  0.65598  0.77154  0.33274  1.0000
  S   S105      1.0  0.67161  0.58400  0.33193  1.0000
  H   H844      1.0  0.96163  0.93702  0.03104  1.0000
  H   H845      1.0  0.84628  0.87998  0.32279  1.0000
  C   C478      1.0  0.88148  0.98336  0.01980  1.0000
  H   H846      1.0  0.00148  0.73980  0.28155  1.0000
  H   H847      1.0  0.67795  0.75380  0.33109  1.0000
  H   H848      1.0  0.58099  0.77042  0.33196  1.0000
  N   N27       1.0  0.00702  0.86003  0.10703  1.0000
  H   H849      1.0  0.98672  0.92451  0.08387  1.0000
  C   C479      1.0  0.00844  0.82322  0.20955  1.0000
  H   H850      1.0  0.96584  0.93437  0.18708  1.0000
  C   C480      1.0  0.99939  0.76603  0.27451  1.0000
  C   C481      1.0  0.98027  0.89933  0.14993  1.0000
  H   H851      1.0  0.99778  0.76788  0.24778  1.0000
  H   H852      1.0  0.99585  0.94918  0.15772  1.0000
  H   H853      1.0  0.84940  0.01154  0.11007  1.0000
  S   S106      1.0  0.66749  0.68029  0.34029  1.0000
  C   C482      1.0  0.54853  0.67280  0.35245  1.0000
  H   H854      1.0  0.72204  0.74641  0.55567  1.0000
  H   H855      1.0  0.55186  0.61836  0.49441  1.0000
  Fe  Fe53      1.0  0.68239  0.65472  0.43000  1.0000
  S   S107      1.0  0.67410  0.70686  0.41475  1.0000
  S   S108      1.0  0.68800  0.63490  0.48103  1.0000
  Fe  Fe54      1.0  0.63319  0.68873  0.38322  1.0000
  S   S109      1.0  0.58455  0.71933  0.38392  1.0000
  Fe  Fe55      1.0  0.70915  0.69537  0.37275  1.0000
  H   H856      1.0  0.70287  0.58148  0.57812  1.0000
  S   S110      1.0  0.63847  0.63744  0.40192  1.0000
  S   S111      1.0  0.72105  0.64395  0.39089  1.0000
  S   S112      1.0  0.74725  0.73505  0.36262  1.0000
  S   S113      1.0  0.65058  0.72292  0.60183  1.0000
  C   C483      1.0  0.67401  0.65950  0.51348  1.0000
  C   C484      1.0  0.66700  0.64476  0.54341  1.0000
  C   C485      1.0  0.65917  0.66397  0.57066  1.0000
  C   C486      1.0  0.65786  0.69804  0.56789  1.0000
  C   C487      1.0  0.66316  0.71272  0.53762  1.0000
  C   C488      1.0  0.67156  0.69352  0.51051  1.0000
  H   H857      1.0  0.66829  0.61841  0.54559  1.0000
  H   H858      1.0  0.65436  0.65251  0.59383  1.0000
  H   H859      1.0  0.66190  0.73910  0.53537  1.0000
  H   H860      1.0  0.67716  0.70509  0.48759  1.0000
  H   H861      1.0  0.72973  0.68563  0.55645  1.0000
  C   C489      1.0  0.51845  0.65968  0.34138  1.0000
  C   C490      1.0  0.54734  0.70168  0.37034  1.0000
  H   H862      1.0  0.59147  0.69033  0.53199  1.0000
  H   H863      1.0  0.81137  0.63662  0.54067  1.0000
  H   H864      1.0  0.63608  0.56398  0.61103  1.0000
  C   C491      1.0  0.70461  0.54419  0.37647  1.0000
  C   C492      1.0  0.59906  0.76709  0.46335  1.0000
  H   H865      1.0  0.71547  0.56620  0.38544  1.0000
  H   H866      1.0  0.59498  0.57539  0.48239  1.0000
  C   C493      1.0  0.56270  0.71833  0.47458  1.0000
  H   H867      1.0  0.73365  0.62746  0.55256  1.0000
  H   H868      1.0  0.78110  0.72372  0.55722  1.0000
  H   H869      1.0  0.80325  0.62764  0.60711  1.0000
  C   C494      1.0  0.74837  0.68526  0.57627  1.0000
  N   N28       1.0  0.77285  0.65636  0.57301  1.0000
  C   C495      1.0  0.77279  0.65861  0.50999  1.0000
  H   H870      1.0  0.71994  0.74429  0.59947  1.0000
  H   H871      1.0  0.77992  0.79513  0.34967  1.0000
  H   H872      1.0  0.83099  0.68676  0.65005  1.0000
  H   H873      1.0  0.75983  0.63531  0.50666  1.0000
  H   H874      1.0  0.87171  0.68390  0.63032  1.0000
  H   H875      1.0  0.76986  0.60429  0.56554  1.0000
  H   H876      1.0  0.78061  0.66266  0.45818  1.0000
  H   H877      1.0  0.84749  0.65762  0.58296  1.0000
  H   H878      1.0  0.68881  0.77246  0.39354  1.0000
  H   H879      1.0  0.78218  0.66252  0.62416  1.0000
  H   H880      1.0  0.64760  0.55902  0.56902  1.0000
  H   H881      1.0  0.58576  0.59933  0.44657  1.0000
  H   H882      1.0  0.55679  0.66563  0.53991  1.0000
  H   H883      1.0  0.64430  0.78344  0.39826  1.0000
  H   H884      1.0  0.80869  0.68649  0.48163  1.0000
  H   H885      1.0  0.60797  0.66702  0.48129  1.0000
  H   H886      1.0  0.73280  0.68297  0.59853  1.0000
  C   C496      1.0  0.52099  0.67741  0.48691  1.0000
  C   C497      1.0  0.83003  0.67120  0.59972  1.0000
  H   H887      1.0  0.61752  0.71745  0.46617  1.0000
  H   H888      1.0  0.82719  0.69661  0.59063  1.0000
  H   H889      1.0  0.74954  0.61576  0.62496  1.0000
  H   H890      1.0  0.71219  0.63448  0.60797  1.0000
  H   H891      1.0  0.52319  0.64001  0.44872  1.0000
  C   C498      1.0  0.54503  0.71709  0.54515  1.0000
  H   H892      1.0  0.80892  0.67983  0.54124  1.0000
  H   H893      1.0  0.62488  0.77645  0.46561  1.0000
  H   H894      1.0  0.73846  0.56347  0.59967  1.0000
  C   C499      1.0  0.64612  0.51349  0.59688  1.0000
  C   C500      1.0  0.71813  0.58286  0.60034  1.0000
  C   C501      1.0  0.79591  0.66281  0.48056  1.0000
  C   C502      1.0  0.79591  0.65374  0.60199  1.0000
  C   C503      1.0  0.55107  0.71527  0.58158  1.0000
  C   C504      1.0  0.76409  0.71927  0.57807  1.0000
  C   C505      1.0  0.75285  0.62563  0.57192  1.0000
  H   H895      1.0  0.81514  0.64243  0.47921  1.0000
  H   H896      1.0  0.77814  0.72135  0.60099  1.0000
  H   H897      1.0  0.62408  0.60537  0.46878  1.0000
  C   C506      1.0  0.56397  0.68855  0.52737  1.0000
  C   C507      1.0  0.59695  0.59994  0.47108  1.0000
  H   H898      1.0  0.60600  0.54854  0.58314  1.0000
  H   H899      1.0  0.75373  0.67910  0.50949  1.0000
  Fe  Fe56      1.0  0.66265  0.70183  0.65117  1.0000
  C   C508      1.0  0.63317  0.54837  0.58944  1.0000
  C   C509      1.0  0.79318  0.65800  0.54193  1.0000
  C   C510      1.0  0.73701  0.74674  0.57818  1.0000
  C   C511      1.0  0.73323  0.61655  0.60333  1.0000
  S   S114      1.0  0.71489  0.68558  0.66574  1.0000
  C   C512      1.0  0.51595  0.71705  0.37753  1.0000
  H   H900      1.0  0.67577  0.81370  0.40339  1.0000
  C   C513      1.0  0.57841  0.62558  0.49198  1.0000
  H   H901      1.0  0.58101  0.78423  0.47587  1.0000
  H   H902      1.0  0.54323  0.73705  0.48226  1.0000
  H   H903      1.0  0.74906  0.77075  0.57968  1.0000
  H   H904      1.0  0.58988  0.62456  0.51640  1.0000
  S   S115      1.0  0.63836  0.65797  0.67277  1.0000
  H   H905      1.0  0.60461  0.73530  0.50428  1.0000
  C   C514      1.0  0.84695  0.67221  0.63274  1.0000
  C   C515      1.0  0.66907  0.79188  0.38936  1.0000
  C   C516      1.0  0.71423  0.51360  0.38980  1.0000
  H   H906      1.0  0.51488  0.73941  0.39137  1.0000
  C   C517      1.0  0.58134  0.66049  0.47745  1.0000
  H   H907      1.0  0.57880  0.65960  0.45065  1.0000
  H   H908      1.0  0.85124  0.64709  0.64259  1.0000
  N   N29       1.0  0.55734  0.68615  0.49162  1.0000
  C   C518      1.0  0.68186  0.54615  0.35087  1.0000
  C   C519      1.0  0.59793  0.73298  0.47851  1.0000
  H   H909      1.0  0.70155  0.57820  0.62154  1.0000
  H   H910      1.0  0.63666  0.75822  0.34662  1.0000
  H   H911      1.0  0.90679  0.69255  0.37045  1.0000
  H   H912      1.0  0.55389  0.74106  0.53646  1.0000
  H   H913      1.0  0.51317  0.65855  0.50472  1.0000
  H   H914      1.0  0.59657  0.80538  0.35135  1.0000
  H   H915      1.0  0.92963  0.72879  0.37887  1.0000
  H   H916      1.0  0.54124  0.69235  0.59197  1.0000
  H   H917      1.0  0.59277  0.76631  0.43727  1.0000
  H   H918      1.0  0.55894  0.71582  0.44818  1.0000
  H   H919      1.0  0.51742  0.71642  0.54133  1.0000
  C   C520      1.0  0.53077  0.63867  0.64548  1.0000
  C   C521      1.0  0.90622  0.71963  0.36814  1.0000
  H   H920      1.0  0.73254  0.51224  0.40901  1.0000
  H   H921      1.0  0.53780  0.73630  0.59363  1.0000
  C   C522      1.0  0.66762  0.80057  0.35343  1.0000
  H   H922      1.0  0.57841  0.71634  0.58680  1.0000
  H   H923      1.0  0.88395  0.72961  0.38187  1.0000
  H   H924      1.0  0.67213  0.51492  0.60631  1.0000
  H   H925      1.0  0.53558  0.81092  0.34347  1.0000
  H   H926      1.0  0.52344  0.73146  0.65474  1.0000
  Fe  Fe57      1.0  0.67628  0.62979  0.36176  1.0000
  H   H927      1.0  0.92254  0.77737  0.34297  1.0000
  H   H928      1.0  0.54341  0.62130  0.62834  1.0000
  H   H929      1.0  0.52201  0.68105  0.43357  1.0000
  H   H930      1.0  0.69345  0.80729  0.34572  1.0000
  C   C523      1.0  0.51214  0.66498  0.45273  1.0000
  H   H931      1.0  0.61059  0.53724  0.67263  1.0000
  H   H932      1.0  0.57260  0.66084  0.34668  1.0000
  H   H933      1.0  0.54912  0.65703  0.65286  1.0000
  H   H934      1.0  0.65070  0.82252  0.35046  1.0000
  H   H935      1.0  0.88633  0.86813  0.34046  1.0000
  H   H936      1.0  0.50955  0.65171  0.63293  1.0000
  H   H937      1.0  0.87853  0.77528  0.34089  1.0000
  Fe  Fe58      1.0  0.69000  0.64426  0.69130  1.0000
  H   H938      1.0  0.64250  0.71697  0.83050  1.0000
  C   C524      1.0  0.71829  0.90934  0.76176  1.0000
  Fe  Fe59      1.0  0.70542  0.71466  0.71113  1.0000
  H   H939      1.0  0.87353  0.95909  0.97381  1.0000
  S   S116      1.0  0.75195  0.74290  0.72461  1.0000
  Fe  Fe60      1.0  0.63404  0.68875  0.71741  1.0000
  S   S117      1.0  0.58632  0.68586  0.74729  1.0000
  S   S118      1.0  0.68416  0.67174  0.73786  1.0000
  C   C525      1.0  0.77884  0.64943  0.74573  1.0000
  Fe  Fe61      1.0  0.90201  0.84870  0.88861  1.0000
  S   S119      1.0  0.89807  0.89897  0.91011  1.0000
  S   S120      1.0  0.95169  0.81997  0.88886  1.0000
  Fe  Fe62      1.0  0.82751  0.84797  0.87020  1.0000
  S   S121      1.0  0.81813  0.89844  0.89052  1.0000
  S   S122      1.0  0.78036  0.82335  0.85217  1.0000
  Fe  Fe63      1.0  0.86673  0.91111  0.86655  1.0000
  S   S123      1.0  0.87257  0.95695  0.83667  1.0000
  Fe  Fe64      1.0  0.84998  0.88175  0.93242  1.0000
  S   S124      1.0  0.83078  0.89709  0.98188  1.0000
  S   S125      1.0  0.87424  0.86198  0.84296  1.0000
  S   S126      1.0  0.85591  0.83026  0.91432  1.0000
  C   C526      1.0  0.98726  0.84455  0.88758  1.0000
  C   C527      1.0  0.98488  0.87641  0.87512  1.0000
  H   H940      1.0  0.56401  0.55351  0.75890  1.0000
  H   H941      1.0  0.96092  0.88630  0.86653  1.0000
  C   C528      1.0  0.94181  0.99250  0.90642  1.0000
  H   H942      1.0  0.56543  0.59359  0.67881  1.0000
  S   S127      1.0  0.65454  0.73412  0.69458  1.0000
  C   C529      1.0  0.63641  0.53494  0.68070  1.0000
  H   H943      1.0  0.84656  0.97012  0.90119  1.0000
  C   C530      1.0  0.66657  0.72139  0.84301  1.0000
  C   C531      1.0  0.75868  0.76760  0.75886  1.0000
  C   C532      1.0  0.73285  0.77553  0.78099  1.0000
  C   C533      1.0  0.73982  0.79363  0.80886  1.0000
  C   C534      1.0  0.77266  0.80367  0.81508  1.0000
  C   C535      1.0  0.79830  0.79661  0.79247  1.0000
  C   C536      1.0  0.79128  0.77870  0.76447  1.0000
  H   H944      1.0  0.70758  0.76749  0.77677  1.0000
  H   H945      1.0  0.71977  0.79923  0.82611  1.0000
  H   H946      1.0  0.82365  0.80435  0.79687  1.0000
  H   H947      1.0  0.81140  0.77284  0.74737  1.0000
  H   H948      1.0  0.72161  0.86514  0.87331  1.0000
  H   H949      1.0  0.81271  0.98303  0.80164  1.0000
  C   C537      1.0  0.54947  0.69743  0.72603  1.0000
  H   H950      1.0  0.70161  0.92459  0.83049  1.0000
  H   H951      1.0  0.69871  0.90283  0.77982  1.0000
  H   H952      1.0  0.61272  0.56841  0.79151  1.0000
  H   H953      1.0  0.69567  0.86368  0.83760  1.0000
  H   H954      1.0  0.52215  0.62411  0.75023  1.0000
  C   C538      1.0  0.70366  0.52879  0.69956  1.0000
  H   H955      1.0  0.80110  0.63642  0.73468  1.0000
  C   C539      1.0  0.55143  0.71150  0.69519  1.0000
  C   C540      1.0  0.78516  0.98734  0.80541  1.0000
  H   H956      1.0  0.78863  0.86571  0.77688  1.0000
  C   C541      1.0  0.75217  0.90079  0.82338  1.0000
  H   H957      1.0  0.55872  0.62703  0.70573  1.0000
  C   C542      1.0  0.56955  0.56943  0.73769  1.0000
  C   C543      1.0  0.74034  0.93689  0.77497  1.0000
  H   H958      1.0  0.77229  0.89254  0.84033  1.0000
  H   H959      1.0  0.67101  0.74805  0.84205  1.0000
  H   H960      1.0  0.78627  0.95076  0.84351  1.0000
  C   C544      1.0  0.52106  0.55254  0.70701  1.0000
  N   N30       1.0  0.76042  0.68833  0.83086  1.0000
  C   C545      1.0  0.75692  0.67936  0.79571  1.0000
  C   C546      1.0  0.72987  0.70864  0.84221  1.0000
  C   C547      1.0  0.79119  0.70895  0.83351  1.0000
  C   C548      1.0  0.76581  0.65850  0.85210  1.0000
  C   C549      1.0  0.73870  0.63232  0.85046  1.0000
  C   C550      1.0  0.78725  0.66024  0.77998  1.0000
  C   C551      1.0  0.79658  0.72549  0.86675  1.0000
  C   C552      1.0  0.69544  0.70222  0.82621  1.0000
  C   C553      1.0  0.74884  0.60224  0.87077  1.0000
  H   H961      1.0  0.57923  0.61402  0.76535  1.0000
  H   H962      1.0  0.75239  0.70194  0.78103  1.0000
  H   H963      1.0  0.73441  0.66468  0.79186  1.0000
  H   H964      1.0  0.72671  0.70664  0.86896  1.0000
  H   H965      1.0  0.73366  0.73501  0.83748  1.0000
  H   H966      1.0  0.79025  0.72883  0.81494  1.0000
  H   H967      1.0  0.81463  0.69408  0.82826  1.0000
  H   H968      1.0  0.79089  0.64643  0.84703  1.0000
  H   H969      1.0  0.76680  0.66570  0.87793  1.0000
  H   H970      1.0  0.73497  0.62380  0.82541  1.0000
  H   H971      1.0  0.71443  0.64221  0.86050  1.0000
  N   N31       1.0  0.53713  0.58165  0.72197  1.0000
  H   H972      1.0  0.79423  0.63794  0.79411  1.0000
  H   H973      1.0  0.77587  0.74362  0.87234  1.0000
  H   H974      1.0  0.69589  0.71050  0.80056  1.0000
  H   H975      1.0  0.68940  0.67605  0.82661  1.0000
  H   H976      1.0  0.72874  0.58407  0.86966  1.0000
  H   H977      1.0  0.77267  0.59060  0.86132  1.0000
  H   H978      1.0  0.75223  0.60906  0.89647  1.0000
  H   H979      1.0  0.53677  0.54324  0.68627  1.0000
  H   H980      1.0  0.68129  0.88679  0.87242  1.0000
  C   C554      1.0  0.51592  0.52302  0.73015  1.0000
  H   H981      1.0  0.83220  0.75633  0.89040  1.0000
  H   H982      1.0  0.78626  0.89356  0.74267  1.0000
  H   H983      1.0  0.63733  0.56286  0.75462  1.0000
  H   H984      1.0  0.74695  0.87849  0.80949  1.0000
  H   H985      1.0  0.68382  0.90055  0.72261  1.0000
  N   N32       1.0  0.76474  0.92770  0.80171  1.0000
  H   H986      1.0  0.81688  0.91185  0.80830  1.0000
  C   C555      1.0  0.72057  0.90987  0.84438  1.0000
  H   H987      1.0  0.93310  0.96861  0.89773  1.0000
  H   H988      1.0  0.81006  0.93721  0.77380  1.0000
  C   C556      1.0  0.79892  0.91715  0.78814  1.0000
  C   C557      1.0  0.79986  0.88730  0.76531  1.0000
  H   H989      1.0  0.58453  0.55357  0.72078  1.0000
  H   H990      1.0  0.77348  0.99236  0.78157  1.0000
  H   H991      1.0  0.77198  0.67094  0.73029  1.0000
  C   C558      1.0  0.54642  0.60543  0.69548  1.0000
  H   H992      1.0  0.74524  0.96625  0.83315  1.0000
  C   C559      1.0  0.86323  0.99365  0.85740  1.0000
  C   C560      1.0  0.70005  0.92033  0.73096  1.0000
  C   C561      1.0  0.62238  0.58081  0.76949  1.0000
  C   C562      1.0  0.89350  0.96079  0.99234  1.0000
  H   H993      1.0  0.63935  0.60032  0.77703  1.0000
  H   H994      1.0  0.80947  0.67591  0.77800  1.0000
  H   H995      1.0  0.68380  0.94254  0.73557  1.0000
  H   H996      1.0  0.72215  0.95665  0.78305  1.0000
  C   C563      1.0  0.83603  0.87741  0.75548  1.0000
  S   S128      1.0  0.71565  0.59400  0.69147  1.0000
  H   H997      1.0  0.89200  0.85637  0.99186  1.0000
  H   H998      1.0  0.66405  0.71345  0.86864  1.0000
  C   C564      1.0  0.76975  0.95735  0.82256  1.0000
  H   H999      1.0  0.95493  0.00719  0.85831  1.0000
  H   H1000     1.0  0.75425  0.94764  0.75415  1.0000
  H   H1001     1.0  0.73314  0.88665  0.75619  1.0000
  C   C565      1.0  0.70381  0.87943  0.85764  1.0000
  H   H1002     1.0  0.71855  0.92561  0.71142  1.0000
  H   H1003     1.0  0.89985  0.93580  0.00163  1.0000
  H   H1004     1.0  0.99144  0.78979  0.80658  1.0000
  C   C566      1.0  0.52177  0.72018  0.67840  1.0000
  H   H1005     1.0  0.82979  0.76255  0.84743  1.0000
  H   H1006     1.0  0.95361  0.98868  0.93045  1.0000
  C   C567      1.0  0.82958  0.74373  0.86689  1.0000
  H   H1007     1.0  0.84854  0.89804  0.74322  1.0000
  H   H1008     1.0  0.85159  0.72649  0.86353  1.0000
  H   H1009     1.0  0.83580  0.85642  0.73861  1.0000
  H   H1010     1.0  0.75751  0.63253  0.74619  1.0000
  H   H1011     1.0  0.60489  0.60908  0.72922  1.0000
  H   H1012     1.0  0.85086  0.86974  0.77699  1.0000
  H   H1013     1.0  0.72810  0.92454  0.86548  1.0000
  C   C568      1.0  0.85030  0.99319  0.88897  1.0000
  C   C569      1.0  0.59326  0.59599  0.74990  1.0000
  H   H1014     1.0  0.79792  0.70728  0.88668  1.0000
  H   H1015     1.0  0.98656  0.81744  0.77226  1.0000
  C   C570      1.0  0.51772  0.69202  0.73993  1.0000
  C   C571      1.0  0.99330  0.81553  0.79821  1.0000
  C   C572      1.0  0.68995  0.55970  0.69089  1.0000
  H   H1016     1.0  0.91628  0.97061  0.98049  1.0000
  H   H1017     1.0  0.98868  0.98810  0.88044  1.0000
  H   H1018     1.0  0.97482  0.83079  0.81245  1.0000
  H   H1019     1.0  0.91940  0.00942  0.90888  1.0000
  C   C573      1.0  0.51497  0.59826  0.74743  1.0000
  H   H1020     1.0  0.72977  0.52632  0.70681  1.0000
  C   C574      1.0  0.65627  0.56265  0.68131  1.0000
  H   H1021     1.0  0.57579  0.71600  0.68435  1.0000
  H   H1022     1.0  0.51608  0.68178  0.76405  1.0000
  H   H1023     1.0  0.51946  0.58694  0.77167  1.0000
  C   C575      1.0  0.96716  0.00613  0.88221  1.0000
  C   C576      1.0  0.51721  0.62040  0.67498  1.0000
  H   H1024     1.0  0.64563  0.58620  0.67404  1.0000
