data_image0
_chemical_formula_structural       H2CH3CH2SHCHCH2FeCH2C2HC2H5CH4NHCH4CHCNHFeC2H2C6H7CHC2HFeCH7CHCH4CH2CSHCSHCHCFeSC2H3CHCNCSH3CH2CH2CNFeH3SHC2H3CH4CFeCHCH3C2HSC3H2C2H3C2HC2HC2H3SH4C2H2FeCHCH3CHC2H2CH3CSHC2H7SHC2H2CHCH2CH6CSH2C2HCFeCSC2H3CH2NHC2H6CHC2HCH4CSHC2H3CH3SH7CH4CH6C2HCHCHC2HSCH3CH4SH4C3SFeC2HFeC3H2CH3C2H3SCHCH3SH4SH2CFe2CHSHSH2CH2CSCS3C2HSHFeHC3H6CH11CSCHC2SH4CHSH2C3H2CFeCHSC3H3C2H2C2HCH2CH2CH3CH2CHCHNH2C2FeCHC5HCH4C2FeCHCH2CH2CHCHCH2CH3C2HNCFeHCNC3H3SH2SH3SHSHCNHCHCH9CH4C2SCH2C2HNC2HCHSH5C5HCHCHCH4NCHCH2CHSC2H3FeH6C2HSCH2CHFeH3CHC2H2NH4SCH2C2H2SCHC2H2CH3FeHNCHCSH2SH7C2HCH2CSNHCH3CHSH3CH4CHCSH8NCH5C4HC2HCH2CHSHCH2SHCSH3CHC2H2C2H4CH3CH2FeHSFeCHSC2H2C3H4SH5C5H2CHCH4C3FeCHCH2CHNH2CH2C2H5C2FeC4H2CH2CH3CH3CH2C2H3CHC2FeSH3CH7SC2H2C2HC2HC6NH3SH2C2H2CSCH3FeCH4CFeH5CHC3SCHC2HCSHCHCH2C2FeH2FeHNH2CSCH3SH3SCH2CHNHSCFeC3HNHCH3C2H2CH2SH6FeH2CH2CHCH4CH3CH5SH2C2H2SCFeC5H7CSCSHSH2CHCFeH3CHCH7FeH2SHCH4SHS2CH3C2HCH4CHC2HC3SHC2HC2H4CH6NCH6SH3CHS2CHSCH3CH3CHC3H6C2H2C2FeH4CFeSCH10CHCFeCSHSHCH7FeH2SCS2H2CH2FeH6NSC3H2SCHFeH2SCHSHCHSCH7NHNH4C2HSH2CH2C2H3CHC2HC2H4FeCHC2HCH2C2H2CH2CH2SH3CHCHCH4C5H3CHCHC2HC4HS2C2HCHCHSHNH4FeC2HFeH5C2FeSHCH3CH4CH2NCH5C2H3CSCHCHC2H4C3HCSH5CHNC2H2CHSHSCH3CHC3H2CHC2NCH2SCFeNC3H4CHFeCHC2H2C2SHCFeCHC2H3SCH4CH3C2H2SNCH2CHCHCHCH2CS2HCH3C3HSCHSCH2CHCHFeH2CHC2H3CFeHFe2H4SC2FeH2SH2CH3CHCH3CH3SC2H6SH4C2H2CH2FeCFeHSCH2C2NH2C3HCH2CH2S2CH2C2HCH7SH2C2HC2HC2H2CHC2SFeCH3SH2SH2C2H2C2H4CSH2C2H4C3H4SHSHC3H8FeC2H7NC2HCHCH6CHCHC3HC2H3NH10CHSHCH6CHC2H3SH2C2H3SHCH2FeCHFeH2C2S2CHCHCHC2HCH4SHCHCHC2H7C2H2CSC2H2NH5C2H2CSCH4C2HC2NHC2HCH2CH4CHC2H3CH3FeCH6SCH6C2HSCH8CH2C2HCH3C2HCH3CSHC3H2SC2NFeCH2CHCHC2FeH7SH3CH7CH2CH4CHFeH3CHC3HCHCH2CH2CHCH2CH2CH3C3SCH4SCH2C2H3CHSCHNCHC2H4CH2C2H6NH3C2HC2H5CH4CH3CHCFeH2SH2Fe2HNHNHCHC2FeHCH6SFeH3C2H2CH2CH2C2HFeHCHCHSH2CFeH2SHFeSHSCH3C2H3CHCH2C3FeC2HCS2HC2HCHCFeCH3CH5CH3CHCH2C2HC2H2SH2C5H3C2SH4CH3SHSCH2C2HC3H3CHCHSC4NHCSCHCH3C2HSCHCHCH3CSH4NCHSCHC3H3CSCH3CHFeHC2HCHCH3CH2CH4C4SC2H2NC2HFeHCH8NH3CFeH6S2H2SHCH3CHC2HCSFeSCS2HCHCH3CHFeH2FeSFe2HCH2CHCH2CS2C2H3CNHFeCH2C2FeCHNCH3FeSHSHSH4CH2CFeC2H5SC2HC2H2CH3CH5SCSCH3CH2CH2SCHNHSH3SCH4SCSH4SFeC2H4CHFeH2SHC3SCHC3HSCHCH2CFeC2H3C2HC2HC2HCHC3HSCH2CSC2SHCH10C2HC3H5C2HNHSHSH3CHS2C3HCHC2HCHCH2CH3CH2SH6CH5FeH3SHCHCHCSHC2FeHC2H2CHNHC3HFeCH3SCH2CHCH2C3HCSHCH2C2HCH3S2H2CH3SH5SHCH2NC2HC2H2C2H2FeSH2FeH5SFeCH3CHSH5CHCNFeH5C2HC6FeCH2SH2CH2C5S2H2FeHCHSNCH4CHCH2C3FeH6CH2CH7CH3FeCH2FeH4CHC3HCH2CH4CH7C2H8C2SHCH3S2CH3C4HC2HC2HCH3CHFeC2HCH2SC2SH2FeH6CHFeH6CHCHC2SHSCSCH2FeSHCHNC2H2C2HCHCH3Fe2C2H2CHSC4HCHCHFeH2SCHCFeHSCH2C2SH2SHCH9CH2CHC3FeHCHCH3CH2CH4CHC2HCFeH2CH2CH4CHCSH5NH2SHNH3C3SHCH3CH2CH3SH7SCHS2CHCH2C2SHCHSH4C2H3C3H2CH3CHCH3SCSH5C3H8FeHCH3C2H10C2H2CH2CH4C3HFeH4C2H2CH6FeH9CNHFeSC2H3SCFeCHS2H3CH7CH2C3FeC3H3S2HC2H3CSCSH2CH3CSCH4NCHCH2FeH2C2HFeC3HCH2NH3CSH3CH2CHC5HC2SHSH5CH3SC2H4CHCS2HNHCHCHCH5CHC3H2CH2CHNH8CHCFeNC3HC2HCH2C2H2CH3C3H3C2SH3C3H2CH2C3H9C2H2SH4C2HC2H4SH2CH4CHC2H2C2H2CH4CSCHCHSHCSCH4SCFeH2C2H5CH4SCSHC2HFeSHCH2C2FeHC2HCHCSH3C2H4C2H2NFeSH3SHCH7CHCFeH3NH2NH4C2HC2HCH2SCH2CFeHC2H3C4H3FeHC3FeH6CH2NHCSHCHSH3CH2FeHCHSHSFeC2SCH2C4H2C2H2C2H2C2H3CH2CSCHCH3C2HC3H4C2H3SH2SH2CH5CH4CHC2H2FeCHNH5FeH6CHFeHNH2CFeHCSHCH2CHC2HSHC4HC2SHSH4CH4CHCFeH2C2HCHCSHNHFeCHCS2HC2H3CHCH2CNH2CH3CH2CH2CSH6C5H4SH2NCH4C3H2FeCSCHC2HCHC4H4SH4CH5CH7FeHC2SHC2H4C2H4CSH6CHC5H2C6HCHCH7CHSHCH2CSHCH6CH2NH2CH2CHCSHCFeHCH2CHFeHSCH2CH7CHCFeH2CH2SH3C2H4FeC2HFeCHCHSH2CHCH2CH3SC2HC2H3C2H9SHFeH4CH2C3HSCHSNSCSCH2CH3SH4C4H5SHC2HFe2H2CNC2SH4C2HC2H3CH2C2FeH3CSHNH3SCHCHC4H3CHFeSH3CH7CH3SFeC2H2C2HC5HFeCHFeCH2C2H8C3HSHC2H3CHCS3CH7CHSHSFeHC2H4CHCH5CH2NCH6SH5CH3C4H2C2H3C2H2FeH2NH7C3H2CH2CHCFeCH6Fe2H3CHCH2CSH4CH2CHC2HCH3C2H2C2H2CHCH5CH4C2SHCH3CH3C2HCH2NH2CFeH3C2H2CH2CH2C2H3CSH8C2HSH2SC2H2CFeH2C2H10C2HC3H2CHSCH2C2SH2SCH5CHC2H2CH11CHC2HC2HCH3FeCH2SH2CSC2SH2FeC3H4CH2C2SH2CHFeCHCH2C2SHCHC3SCNHC2H2NH2CH6CSC2HFeHCH2CHC2H2NH4C2SH2CH2
_chemical_formula_sum              "H2560 C1440 S320 Fe160 N80"
_cell_length_a       47.7748
_cell_length_b       43.8752
_cell_length_c       25.0536
_cell_angle_alpha    92.2451
_cell_angle_beta     85.6435
_cell_angle_gamma    92.7404

_space_group_name_H-M_alt    "P 1"
_space_group_IT_number       1

loop_
  _space_group_symop_operation_xyz
  'x, y, z'

loop_
  _atom_site_type_symbol
  _atom_site_label
  _atom_site_symmetry_multiplicity
  _atom_site_fract_x
  _atom_site_fract_y
  _atom_site_fract_z
  _atom_site_occupancy
  H   H1        1.0  0.53858  0.60500  0.78388  1.0000
  H   H2        1.0  0.39209  0.14100  0.73348  1.0000
  C   C1        1.0  0.53122  0.59273  0.74779  1.0000
  H   H3        1.0  0.15879  0.15188  0.66086  1.0000
  H   H4        1.0  0.50939  0.20579  0.68316  1.0000
  H   H5        1.0  0.50478  0.15316  0.68483  1.0000
  C   C2        1.0  0.28897  0.25983  0.72852  1.0000
  H   H6        1.0  0.46743  0.24402  0.75352  1.0000
  H   H7        1.0  0.44688  0.14546  0.79954  1.0000
  S   S1        1.0  0.24387  0.12798  0.84383  1.0000
  H   H8        1.0  0.04643  0.55487  0.79591  1.0000
  C   C3        1.0  0.42203  0.46622  0.67411  1.0000
  H   H9        1.0  0.21852  0.14016  0.61801  1.0000
  C   C4        1.0  0.30170  0.27521  0.63298  1.0000
  H   H10       1.0  0.13128  0.47456  0.84752  1.0000
  H   H11       1.0  0.10100  0.56789  0.85262  1.0000
  Fe  Fe1       1.0  0.16345  0.43188  0.80061  1.0000
  C   C5        1.0  0.24713  0.40248  0.66248  1.0000
  H   H12       1.0  0.11518  0.60649  0.79198  1.0000
  H   H13       1.0  0.20081  0.20618  0.64634  1.0000
  C   C6        1.0  0.51710  0.14902  0.85775  1.0000
  C   C7        1.0  0.05556  0.13691  0.72210  1.0000
  H   H14       1.0  0.32098  0.20940  0.82495  1.0000
  C   C8        1.0  0.31072  0.61876  0.70458  1.0000
  C   C9        1.0  0.21740  0.19515  0.75264  1.0000
  H   H15       1.0  0.08308  0.19010  0.67267  1.0000
  H   H16       1.0  0.04837  0.37036  0.82257  1.0000
  H   H17       1.0  0.23645  0.48285  0.77264  1.0000
  H   H18       1.0  0.46318  0.15561  0.62696  1.0000
  H   H19       1.0  0.28199  0.43451  0.66553  1.0000
  C   C10       1.0  0.21432  0.12628  0.72490  1.0000
  H   H20       1.0  0.22034  0.51501  0.61632  1.0000
  H   H21       1.0  0.24792  0.45116  0.67177  1.0000
  H   H22       1.0  0.51291  0.31133  0.73113  1.0000
  H   H23       1.0  0.30218  0.27897  0.74483  1.0000
  N   N1        1.0  0.19822  0.14878  0.69686  1.0000
  H   H24       1.0  0.48576  0.21350  0.77992  1.0000
  C   C11       1.0  0.25967  0.43255  0.74627  1.0000
  H   H25       1.0  0.05229  0.16795  0.79054  1.0000
  H   H26       1.0  0.22992  0.20475  0.71767  1.0000
  H   H27       1.0  0.50262  0.41858  0.68339  1.0000
  H   H28       1.0  0.36388  0.42125  0.71141  1.0000
  C   C12       1.0  0.40652  0.15942  0.83503  1.0000
  H   H29       1.0  0.06079  0.23680  0.65665  1.0000
  C   C13       1.0  0.04210  0.30813  0.70810  1.0000
  N   N2        1.0  0.27526  0.45890  0.77323  1.0000
  H   H30       1.0  0.40674  0.48452  0.67662  1.0000
  Fe  Fe2       1.0  0.37663  0.34012  0.84801  1.0000
  C   C14       1.0  0.16894  0.55452  0.85754  1.0000
  C   C15       1.0  0.32705  0.18822  0.74615  1.0000
  H   H31       1.0  0.08839  0.55819  0.66105  1.0000
  H   H32       1.0  0.21391  0.33761  0.80439  1.0000
  C   C16       1.0  0.08337  0.23617  0.64162  1.0000
  C   C17       1.0  0.42682  0.13414  0.81595  1.0000
  C   C18       1.0  0.50627  0.14646  0.64167  1.0000
  C   C19       1.0  0.04664  0.12948  0.67120  1.0000
  C   C20       1.0  0.30127  0.24915  0.67312  1.0000
  C   C21       1.0  0.42360  0.57084  0.74070  1.0000
  H   H33       1.0  0.37355  0.13261  0.64761  1.0000
  H   H34       1.0  0.04958  0.38201  0.67164  1.0000
  H   H35       1.0  0.13609  0.23919  0.82458  1.0000
  H   H36       1.0  0.47983  0.44665  0.79819  1.0000
  H   H37       1.0  0.23806  0.16536  0.65881  1.0000
  H   H38       1.0  0.40337  0.50939  0.75920  1.0000
  H   H39       1.0  0.42789  0.53343  0.68333  1.0000
  C   C22       1.0  0.28373  0.35002  0.77068  1.0000
  H   H40       1.0  0.52919  0.45718  0.82103  1.0000
  C   C23       1.0  0.34651  0.59523  0.64239  1.0000
  C   C24       1.0  0.21615  0.15926  0.64834  1.0000
  H   H41       1.0  0.33897  0.17052  0.66694  1.0000
  Fe  Fe3       1.0  0.13845  0.36602  0.79113  1.0000
  C   C25       1.0  0.53137  0.38263  0.68828  1.0000
  H   H42       1.0  0.12740  0.55462  0.70822  1.0000
  H   H43       1.0  0.53479  0.55031  0.70314  1.0000
  H   H44       1.0  0.09367  0.45587  0.74032  1.0000
  H   H45       1.0  0.49094  0.61259  0.76866  1.0000
  H   H46       1.0  0.25456  0.55002  0.68868  1.0000
  H   H47       1.0  0.42607  0.52623  0.80487  1.0000
  H   H48       1.0  0.40850  0.13967  0.61690  1.0000
  C   C26       1.0  0.34162  0.56194  0.66133  1.0000
  H   H49       1.0  0.26776  0.49650  0.68482  1.0000
  C   C27       1.0  0.07322  0.56098  0.69670  1.0000
  H   H50       1.0  0.22710  0.23609  0.80025  1.0000
  H   H51       1.0  0.36517  0.24146  0.81573  1.0000
  H   H52       1.0  0.23705  0.43173  0.76093  1.0000
  H   H53       1.0  0.40474  0.45982  0.78017  1.0000
  C   C28       1.0  0.46506  0.20060  0.70764  1.0000
  H   H54       1.0  0.49052  0.58384  0.71582  1.0000
  H   H55       1.0  0.06944  0.58584  0.69958  1.0000
  C   C29       1.0  0.04167  0.45871  0.82242  1.0000
  S   S2        1.0  0.29404  0.16931  0.74878  1.0000
  H   H56       1.0  0.07417  0.28347  0.74135  1.0000
  C   C30       1.0  0.51075  0.33474  0.72085  1.0000
  S   S3        1.0  0.30798  0.34931  0.71436  1.0000
  H   H57       1.0  0.48884  0.23608  0.66605  1.0000
  C   C31       1.0  0.42651  0.46273  0.79307  1.0000
  H   H58       1.0  0.06566  0.22681  0.85643  1.0000
  C   C32       1.0  0.51369  0.47538  0.82486  1.0000
  Fe  Fe4       1.0  0.53973  0.25286  0.82668  1.0000
  S   S4        1.0  0.41838  0.32637  0.80965  1.0000
  C   C33       1.0  0.42598  0.51528  0.76423  1.0000
  C   C34       1.0  0.20605  0.49429  0.61700  1.0000
  H   H59       1.0  0.27974  0.28249  0.63334  1.0000
  H   H60       1.0  0.33816  0.51538  0.62863  1.0000
  H   H61       1.0  0.14028  0.24940  0.62695  1.0000
  C   C35       1.0  0.06841  0.56440  0.79467  1.0000
  H   H62       1.0  0.15743  0.60068  0.69310  1.0000
  C   C36       1.0  0.25544  0.34187  0.76491  1.0000
  N   N3        1.0  0.44297  0.48706  0.76135  1.0000
  C   C37       1.0  0.17112  0.13445  0.67855  1.0000
  S   S5        1.0  0.11977  0.41182  0.79794  1.0000
  H   H63       1.0  0.46742  0.50558  0.82552  1.0000
  H   H64       1.0  0.35919  0.27670  0.64916  1.0000
  H   H65       1.0  0.44542  0.62257  0.63649  1.0000
  C   C38       1.0  0.04497  0.54463  0.68317  1.0000
  H   H66       1.0  0.24883  0.33356  0.72643  1.0000
  H   H67       1.0  0.46621  0.17626  0.71667  1.0000
  C   C39       1.0  0.19161  0.17503  0.73584  1.0000
  H   H68       1.0  0.23552  0.13635  0.73264  1.0000
  H   H69       1.0  0.44422  0.20380  0.69295  1.0000
  C   C40       1.0  0.24767  0.53512  0.72245  1.0000
  N   N4        1.0  0.34146  0.62034  0.68472  1.0000
  Fe  Fe5       1.0  0.35083  0.34440  0.74250  1.0000
  H   H70       1.0  0.16543  0.59594  0.76168  1.0000
  H   H71       1.0  0.38343  0.61051  0.82597  1.0000
  H   H72       1.0  0.11762  0.20532  0.65405  1.0000
  S   S6        1.0  0.39009  0.33150  0.69412  1.0000
  H   H73       1.0  0.28811  0.22908  0.66035  1.0000
  C   C41       1.0  0.08156  0.35736  0.70493  1.0000
  C   C42       1.0  0.41031  0.12621  0.72601  1.0000
  H   H74       1.0  0.46594  0.33300  0.73764  1.0000
  H   H75       1.0  0.41154  0.44541  0.69155  1.0000
  H   H76       1.0  0.09207  0.26846  0.83926  1.0000
  C   C43       1.0  0.16435  0.50447  0.81301  1.0000
  H   H77       1.0  0.07987  0.33219  0.83738  1.0000
  H   H78       1.0  0.49162  0.57347  0.78524  1.0000
  H   H79       1.0  0.07767  0.53449  0.85924  1.0000
  H   H80       1.0  0.31409  0.36571  0.82617  1.0000
  C   C44       1.0  0.24374  0.35651  0.85821  1.0000
  Fe  Fe6       1.0  0.27757  0.16427  0.83375  1.0000
  C   C45       1.0  0.20829  0.22197  0.78949  1.0000
  H   H81       1.0  0.06732  0.42106  0.83186  1.0000
  C   C46       1.0  0.26029  0.43237  0.68443  1.0000
  H   H82       1.0  0.47558  0.34339  0.85574  1.0000
  H   H83       1.0  0.48983  0.30623  0.84059  1.0000
  H   H84       1.0  0.28903  0.51980  0.72811  1.0000
  C   C47       1.0  0.42409  0.46811  0.85475  1.0000
  C   C48       1.0  0.29225  0.35977  0.82109  1.0000
  H   H85       1.0  0.20815  0.48232  0.65464  1.0000
  S   S7        1.0  0.17650  0.47701  0.76480  1.0000
  C   C49       1.0  0.05478  0.36053  0.68689  1.0000
  C   C50       1.0  0.30503  0.46368  0.74925  1.0000
  C   C51       1.0  0.35063  0.44135  0.71186  1.0000
  H   H86       1.0  0.25921  0.38285  0.67304  1.0000
  H   H87       1.0  0.42815  0.14220  0.71366  1.0000
  C   C52       1.0  0.04569  0.16264  0.75079  1.0000
  C   C53       1.0  0.44849  0.47558  0.70419  1.0000
  H   H88       1.0  0.24151  0.56967  0.84833  1.0000
  H   H89       1.0  0.11417  0.24195  0.73354  1.0000
  H   H90       1.0  0.29758  0.61021  0.67178  1.0000
  C   C54       1.0  0.35969  0.22568  0.78353  1.0000
  C   C55       1.0  0.51708  0.18059  0.85146  1.0000
  H   H91       1.0  0.24773  0.40281  0.61821  1.0000
  C   C56       1.0  0.07904  0.55911  0.85035  1.0000
  C   C57       1.0  0.15150  0.60717  0.73561  1.0000
  H   H92       1.0  0.30539  0.47094  0.70733  1.0000
  C   C58       1.0  0.49915  0.59029  0.75473  1.0000
  C   C59       1.0  0.34507  0.18545  0.69979  1.0000
  H   H93       1.0  0.23143  0.18162  0.77474  1.0000
  H   H94       1.0  0.30694  0.60159  0.73634  1.0000
  H   H95       1.0  0.09398  0.50999  0.78661  1.0000
  S   S8        1.0  0.18245  0.38653  0.78367  1.0000
  H   H96       1.0  0.36843  0.59738  0.62401  1.0000
  H   H97       1.0  0.12655  0.55265  0.77835  1.0000
  H   H98       1.0  0.04772  0.52003  0.67318  1.0000
  H   H99       1.0  0.52837  0.19053  0.81690  1.0000
  C   C60       1.0  0.14223  0.49660  0.85046  1.0000
  C   C61       1.0  0.25950  0.48806  0.77154  1.0000
  H   H100      1.0  0.09285  0.25851  0.65459  1.0000
  H   H101      1.0  0.18411  0.50153  0.61640  1.0000
  Fe  Fe7       1.0  0.41296  0.36242  0.75069  1.0000
  C   C62       1.0  0.33481  0.20745  0.78888  1.0000
  H   H102      1.0  0.35514  0.59253  0.74668  1.0000
  C   C63       1.0  0.26770  0.50917  0.72387  1.0000
  H   H103      1.0  0.19441  0.54009  0.78739  1.0000
  H   H104      1.0  0.33006  0.43158  0.78890  1.0000
  H   H105      1.0  0.38397  0.20118  0.65867  1.0000
  C   C64       1.0  0.09669  0.21124  0.67267  1.0000
  H   H106      1.0  0.26727  0.26748  0.72644  1.0000
  C   C65       1.0  0.46677  0.21910  0.76023  1.0000
  C   C66       1.0  0.09980  0.22134  0.73108  1.0000
  H   H107      1.0  0.31364  0.29513  0.65025  1.0000
  H   H108      1.0  0.35882  0.12733  0.80168  1.0000
  C   C67       1.0  0.49093  0.46828  0.78593  1.0000
  H   H109      1.0  0.52493  0.49759  0.81654  1.0000
  H   H110      1.0  0.31588  0.48284  0.77131  1.0000
  H   H111      1.0  0.46130  0.45509  0.70248  1.0000
  C   C68       1.0  0.53430  0.35239  0.70190  1.0000
  S   S9        1.0  0.12241  0.32463  0.74476  1.0000
  H   H112      1.0  0.28909  0.47011  0.85222  1.0000
  C   C69       1.0  0.20507  0.18625  0.61895  1.0000
  C   C70       1.0  0.09160  0.46576  0.70087  1.0000
  H   H113      1.0  0.06943  0.46256  0.69053  1.0000
  H   H114      1.0  0.22495  0.39921  0.67878  1.0000
  H   H115      1.0  0.10860  0.20269  0.75246  1.0000
  H   H116      1.0  0.53735  0.60661  0.71240  1.0000
  H   H117      1.0  0.48274  0.51306  0.76136  1.0000
  H   H118      1.0  0.04680  0.28826  0.84653  1.0000
  H   H119      1.0  0.34552  0.44465  0.66997  1.0000
  S   S10       1.0  0.37329  0.37898  0.79397  1.0000
  H   H120      1.0  0.12352  0.50158  0.70766  1.0000
  C   C71       1.0  0.11575  0.56272  0.74589  1.0000
  C   C72       1.0  0.47079  0.49503  0.78454  1.0000
  H   H121      1.0  0.09699  0.50875  0.66325  1.0000
  H   H122      1.0  0.44786  0.21379  0.78711  1.0000
  C   C73       1.0  0.25373  0.59004  0.85901  1.0000
  H   H123      1.0  0.38683  0.14945  0.85459  1.0000
  C   C74       1.0  0.14393  0.25334  0.85849  1.0000
  H   H124      1.0  0.18079  0.16639  0.77364  1.0000
  H   H125      1.0  0.46153  0.49268  0.68054  1.0000
  C   C75       1.0  0.23560  0.34464  0.80882  1.0000
  H   H126      1.0  0.26745  0.41044  0.75795  1.0000
  H   H127      1.0  0.52828  0.13475  0.82806  1.0000
  H   H128      1.0  0.32279  0.24178  0.67742  1.0000
  H   H129      1.0  0.50480  0.60656  0.62638  1.0000
  H   H130      1.0  0.19725  0.21349  0.82696  1.0000
  H   H131      1.0  0.26251  0.50284  0.80811  1.0000
  C   C76       1.0  0.27689  0.45152  0.83128  1.0000
  S   S11       1.0  0.40617  0.24923  0.72635  1.0000
  H   H132      1.0  0.50152  0.46420  0.74543  1.0000
  H   H133      1.0  0.07898  0.22653  0.75134  1.0000
  C   C77       1.0  0.42969  0.45871  0.61485  1.0000
  C   C78       1.0  0.10056  0.49963  0.70262  1.0000
  H   H134      1.0  0.22607  0.52580  0.71664  1.0000
  C   C79       1.0  0.48118  0.37743  0.71197  1.0000
  Fe  Fe8       1.0  0.39374  0.29606  0.75475  1.0000
  C   C80       1.0  0.37714  0.22384  0.73617  1.0000
  S   S12       1.0  0.44810  0.39332  0.71665  1.0000
  C   C81       1.0  0.48922  0.21076  0.66651  1.0000
  C   C82       1.0  0.50486  0.39525  0.69395  1.0000
  H   H135      1.0  0.09685  0.37635  0.70312  1.0000
  H   H136      1.0  0.38250  0.61510  0.71245  1.0000
  H   H137      1.0  0.31298  0.41486  0.73242  1.0000
  C   C83       1.0  0.43545  0.54003  0.72320  1.0000
  H   H138      1.0  0.45854  0.54311  0.71799  1.0000
  H   H139      1.0  0.32142  0.55906  0.68586  1.0000
  N   N5        1.0  0.08550  0.55121  0.74687  1.0000
  H   H140      1.0  0.40170  0.17339  0.80117  1.0000
  C   C84       1.0  0.06893  0.30488  0.72565  1.0000
  C   C85       1.0  0.12072  0.59792  0.75038  1.0000
  H   H141      1.0  0.40043  0.56843  0.74785  1.0000
  H   H142      1.0  0.36267  0.46181  0.72661  1.0000
  H   H143      1.0  0.28819  0.24077  0.75651  1.0000
  H   H144      1.0  0.24761  0.54916  0.76022  1.0000
  H   H145      1.0  0.17627  0.19001  0.71994  1.0000
  H   H146      1.0  0.10795  0.60981  0.72330  1.0000
  C   C86       1.0  0.08876  0.32940  0.72370  1.0000
  H   H147      1.0  0.35895  0.55580  0.68545  1.0000
  C   C87       1.0  0.48414  0.34711  0.72505  1.0000
  C   C88       1.0  0.08455  0.51693  0.74993  1.0000
  H   H148      1.0  0.10517  0.45335  0.67016  1.0000
  C   C89       1.0  0.32382  0.43578  0.74811  1.0000
  H   H149      1.0  0.43265  0.57976  0.77815  1.0000
  H   H150      1.0  0.43546  0.44013  0.78475  1.0000
  H   H151      1.0  0.06680  0.58938  0.79116  1.0000
  H   H152      1.0  0.19426  0.23660  0.76935  1.0000
  C   C90       1.0  0.17738  0.53370  0.81605  1.0000
  S   S13       1.0  0.35263  0.30634  0.79820  1.0000
  H   H153      1.0  0.49300  0.46761  0.61435  1.0000
  C   C91       1.0  0.36017  0.61518  0.72913  1.0000
  C   C92       1.0  0.37042  0.20284  0.69514  1.0000
  H   H154      1.0  0.06244  0.50783  0.75447  1.0000
  H   H155      1.0  0.42897  0.58754  0.70892  1.0000
  H   H156      1.0  0.53414  0.54668  0.77360  1.0000
  C   C93       1.0  0.05793  0.44060  0.85141  1.0000
  H   H157      1.0  0.28846  0.43036  0.83482  1.0000
  H   H158      1.0  0.23742  0.42471  0.84940  1.0000
  H   H159      1.0  0.15371  0.27512  0.84320  1.0000
  S   S14       1.0  0.29943  0.55428  0.84914  1.0000
  H   H160      1.0  0.52806  0.15196  0.62559  1.0000
  H   H161      1.0  0.14269  0.13685  0.75173  1.0000
  H   H162      1.0  0.40868  0.28286  0.61538  1.0000
  H   H163      1.0  0.43196  0.12330  0.85286  1.0000
  H   H164      1.0  0.23405  0.46505  0.86030  1.0000
  H   H165      1.0  0.52865  0.45900  0.62579  1.0000
  H   H166      1.0  0.17969  0.57662  0.86073  1.0000
  C   C94       1.0  0.34122  0.53895  0.61389  1.0000
  H   H167      1.0  0.47448  0.21598  0.05084  1.0000
  H   H168      1.0  0.34637  0.39700  0.89324  1.0000
  H   H169      1.0  0.41953  0.16905  0.91583  1.0000
  H   H170      1.0  0.32033  0.61450  0.88179  1.0000
  C   C95       1.0  0.48632  0.18565  0.93228  1.0000
  H   H171      1.0  0.39987  0.30125  0.97286  1.0000
  H   H172      1.0  0.24444  0.50906  0.91411  1.0000
  H   H173      1.0  0.24825  0.17701  0.08882  1.0000
  H   H174      1.0  0.49582  0.54774  0.89787  1.0000
  H   H175      1.0  0.40303  0.28135  0.03146  1.0000
  H   H176      1.0  0.31666  0.33544  0.05801  1.0000
  C   C96       1.0  0.13245  0.12897  0.87039  1.0000
  C   C97       1.0  0.04760  0.23197  0.88526  1.0000
  H   H177      1.0  0.33401  0.28829  0.02245  1.0000
  C   C98       1.0  0.46560  0.49437  0.00998  1.0000
  H   H178      1.0  0.54079  0.38754  0.98816  1.0000
  C   C99       1.0  0.48650  0.15406  0.93877  1.0000
  H   H179      1.0  0.07936  0.23643  0.10122  1.0000
  C   C100      1.0  0.52490  0.38801  0.02284  1.0000
  C   C101      1.0  0.46068  0.27105  0.00878  1.0000
  H   H180      1.0  0.49913  0.30208  0.93666  1.0000
  S   S15       1.0  0.25578  0.19730  0.89160  1.0000
  C   C102      1.0  0.04610  0.47082  0.93167  1.0000
  H   H181      1.0  0.40642  0.20105  0.88387  1.0000
  H   H182      1.0  0.30315  0.25645  0.87664  1.0000
  H   H183      1.0  0.06867  0.34798  0.90212  1.0000
  C   C103      1.0  0.06136  0.57570  0.89477  1.0000
  H   H184      1.0  0.53147  0.30251  0.03006  1.0000
  H   H185      1.0  0.12081  0.14958  0.87190  1.0000
  H   H186      1.0  0.45951  0.58005  0.01102  1.0000
  H   H187      1.0  0.52931  0.55130  0.10986  1.0000
  S   S16       1.0  0.13701  0.36081  0.88002  1.0000
  H   H188      1.0  0.33453  0.44684  0.93733  1.0000
  H   H189      1.0  0.28974  0.37201  0.00009  1.0000
  H   H190      1.0  0.26886  0.26426  0.04757  1.0000
  H   H191      1.0  0.27938  0.13361  0.07190  1.0000
  C   C104      1.0  0.24026  0.61745  0.87081  1.0000
  C   C105      1.0  0.37757  0.16085  0.07249  1.0000
  C   C106      1.0  0.34149  0.43267  0.01642  1.0000
  S   S17       1.0  0.08368  0.42519  0.94026  1.0000
  Fe  Fe9       1.0  0.14784  0.62079  0.93678  1.0000
  C   C107      1.0  0.09754  0.27868  0.87871  1.0000
  C   C108      1.0  0.49049  0.32676  0.86800  1.0000
  H   H192      1.0  0.47437  0.61491  0.08283  1.0000
  Fe  Fe10      1.0  0.27893  0.17548  0.95414  1.0000
  C   C109      1.0  0.36966  0.15568  0.02028  1.0000
  C   C110      1.0  0.26134  0.34159  0.05032  1.0000
  C   C111      1.0  0.16199  0.48396  0.06977  1.0000
  H   H193      1.0  0.36220  0.36256  0.04566  1.0000
  H   H194      1.0  0.47470  0.14392  0.97267  1.0000
  C   C112      1.0  0.50559  0.51701  0.95834  1.0000
  H   H195      1.0  0.22893  0.14082  0.09409  1.0000
  H   H196      1.0  0.42263  0.37348  0.08710  1.0000
  H   H197      1.0  0.22993  0.28952  0.99223  1.0000
  C   C113      1.0  0.27330  0.60773  0.01275  1.0000
  C   C114      1.0  0.25239  0.44261  0.92320  1.0000
  H   H198      1.0  0.24322  0.39615  0.01213  1.0000
  H   H199      1.0  0.52075  0.59139  0.94825  1.0000
  H   H200      1.0  0.05674  0.12843  0.01143  1.0000
  S   S18       1.0  0.24452  0.13969  0.97285  1.0000
  C   C115      1.0  0.48320  0.31793  0.92601  1.0000
  H   H201      1.0  0.46668  0.32900  0.03467  1.0000
  C   C116      1.0  0.16448  0.44987  0.07806  1.0000
  H   H202      1.0  0.49160  0.24730  0.08687  1.0000
  H   H203      1.0  0.41755  0.23465  0.97131  1.0000
  H   H204      1.0  0.34919  0.41176  0.08992  1.0000
  S   S19       1.0  0.21813  0.36545  0.91003  1.0000
  H   H205      1.0  0.37041  0.22361  0.93890  1.0000
  H   H206      1.0  0.43349  0.31799  0.06618  1.0000
  H   H207      1.0  0.44721  0.27480  0.09503  1.0000
  H   H208      1.0  0.32389  0.28977  0.89627  1.0000
  S   S20       1.0  0.51703  0.47829  0.03688  1.0000
  H   H209      1.0  0.50414  0.47600  0.86669  1.0000
  H   H210      1.0  0.10057  0.26886  0.00617  1.0000
  C   C117      1.0  0.45828  0.52947  0.94043  1.0000
  Fe  Fe11      1.0  0.22331  0.15920  0.90579  1.0000
  Fe  Fe12      1.0  0.12070  0.40819  0.88669  1.0000
  C   C118      1.0  0.44701  0.60029  0.02219  1.0000
  H   H211      1.0  0.22829  0.23469  0.01690  1.0000
  S   S21       1.0  0.31346  0.54391  0.99624  1.0000
  H   H212      1.0  0.10119  0.40093  0.09029  1.0000
  S   S22       1.0  0.29845  0.20264  0.02141  1.0000
  H   H213      1.0  0.04815  0.47588  0.97384  1.0000
  H   H214      1.0  0.36262  0.26328  0.94600  1.0000
  C   C119      1.0  0.33931  0.19534  0.09025  1.0000
  H   H215      1.0  0.24277  0.34158  0.02593  1.0000
  H   H216      1.0  0.44553  0.56427  0.10483  1.0000
  C   C120      1.0  0.07815  0.30314  0.96429  1.0000
  S   S23       1.0  0.13690  0.57119  0.94920  1.0000
  C   C121      1.0  0.14750  0.54610  0.89604  1.0000
  S   S24       1.0  0.33309  0.46746  0.04887  1.0000
  S   S25       1.0  0.36269  0.58571  0.93201  1.0000
  S   S26       1.0  0.16433  0.42957  0.88969  1.0000
  C   C122      1.0  0.19711  0.53835  0.01490  1.0000
  C   C123      1.0  0.34548  0.29145  0.10343  1.0000
  H   H217      1.0  0.20420  0.49285  0.97780  1.0000
  S   S27       1.0  0.33743  0.61296  0.08180  1.0000
  H   H218      1.0  0.52797  0.51968  0.94941  1.0000
  Fe  Fe13      1.0  0.33030  0.54943  0.91126  1.0000
  H   H219      1.0  0.27888  0.37178  0.90301  1.0000
  C   C124      1.0  0.27806  0.37233  0.04011  1.0000
  C   C125      1.0  0.16205  0.58536  0.08314  1.0000
  C   C126      1.0  0.05650  0.25402  0.93138  1.0000
  H   H220      1.0  0.45389  0.61875  0.99438  1.0000
  H   H221      1.0  0.40323  0.44823  0.92601  1.0000
  H   H222      1.0  0.11725  0.51061  0.92153  1.0000
  H   H223      1.0  0.53619  0.25042  0.04217  1.0000
  H   H224      1.0  0.42497  0.50661  0.98843  1.0000
  H   H225      1.0  0.34039  0.16552  0.96334  1.0000
  C   C127      1.0  0.43129  0.35206  0.00788  1.0000
  H   H226      1.0  0.14592  0.43697  0.06304  1.0000
  H   H227      1.0  0.14198  0.49085  0.09144  1.0000
  H   H228      1.0  0.17057  0.12981  0.03160  1.0000
  H   H229      1.0  0.26789  0.26614  0.95017  1.0000
  H   H230      1.0  0.26964  0.32158  0.95542  1.0000
  H   H231      1.0  0.28988  0.29389  0.87037  1.0000
  H   H232      1.0  0.26533  0.42277  0.92848  1.0000
  H   H233      1.0  0.44114  0.35957  0.96881  1.0000
  H   H234      1.0  0.38120  0.14043  0.99296  1.0000
  H   H235      1.0  0.05118  0.19045  0.92942  1.0000
  H   H236      1.0  0.06308  0.60077  0.88954  1.0000
  C   C128      1.0  0.34075  0.42852  0.96086  1.0000
  S   S28       1.0  0.36504  0.34133  0.93651  1.0000
  C   C129      1.0  0.34871  0.40864  0.04693  1.0000
  H   H237      1.0  0.44492  0.46717  0.87132  1.0000
  C   C130      1.0  0.52292  0.61662  0.95398  1.0000
  C   C131      1.0  0.44449  0.32298  0.02655  1.0000
  S   S29       1.0  0.30304  0.14537  0.89449  1.0000
  H   H238      1.0  0.41312  0.42065  0.87350  1.0000
  H   H239      1.0  0.06955  0.24079  0.95602  1.0000
  H   H240      1.0  0.42509  0.39929  0.03283  1.0000
  H   H241      1.0  0.16025  0.24072  0.87651  1.0000
  C   C132      1.0  0.30217  0.27980  0.89525  1.0000
  H   H242      1.0  0.21467  0.57694  0.09415  1.0000
  S   S30       1.0  0.50281  0.23870  0.88264  1.0000
  H   H243      1.0  0.07936  0.32548  0.06962  1.0000
  H   H244      1.0  0.21375  0.53010  0.90591  1.0000
  C   C133      1.0  0.34612  0.16957  0.00365  1.0000
  C   C134      1.0  0.50220  0.13582  0.90179  1.0000
  C   C135      1.0  0.43426  0.37885  0.04823  1.0000
  H   H245      1.0  0.25543  0.28737  0.10156  1.0000
  H   H246      1.0  0.30182  0.26411  0.97478  1.0000
  C   C136      1.0  0.45324  0.30253  0.93290  1.0000
  Fe  Fe14      1.0  0.18048  0.38271  0.87303  1.0000
  C   C137      1.0  0.37476  0.24516  0.96209  1.0000
  H   H247      1.0  0.21511  0.30001  0.05789  1.0000
  S   S31       1.0  0.43589  0.55050  0.90528  1.0000
  C   C138      1.0  0.41238  0.28394  0.98972  1.0000
  C   C139      1.0  0.53890  0.39912  0.07342  1.0000
  C   C140      1.0  0.06187  0.33348  0.86779  1.0000
  H   H248      1.0  0.17762  0.53650  0.99315  1.0000
  H   H249      1.0  0.47403  0.19963  0.96065  1.0000
  H   H250      1.0  0.35923  0.27168  0.09824  1.0000
  C   C141      1.0  0.24244  0.54106  0.09884  1.0000
  C   C142      1.0  0.08469  0.28623  0.01499  1.0000
  H   H251      1.0  0.45672  0.38441  0.05449  1.0000
  H   H252      1.0  0.04737  0.36411  0.03492  1.0000
  C   C143      1.0  0.16248  0.55034  0.08963  1.0000
  C   C144      1.0  0.28546  0.31082  0.97827  1.0000
  H   H253      1.0  0.43831  0.31717  0.91501  1.0000
  C   C145      1.0  0.05142  0.30088  0.88450  1.0000
  H   H254      1.0  0.23376  0.50816  0.01061  1.0000
  H   H255      1.0  0.20636  0.49058  0.08019  1.0000
  C   C146      1.0  0.13412  0.51715  0.89228  1.0000
  H   H256      1.0  0.51546  0.36456  0.02756  1.0000
  H   H257      1.0  0.25283  0.34236  0.09305  1.0000
  C   C147      1.0  0.47125  0.23497  0.08086  1.0000
  H   H258      1.0  0.45380  0.28141  0.90680  1.0000
  H   H259      1.0  0.06007  0.31735  0.97814  1.0000
  H   H260      1.0  0.24298  0.51635  0.10581  1.0000
  C   C148      1.0  0.30306  0.31524  0.06962  1.0000
  H   H261      1.0  0.26304  0.46336  0.94044  1.0000
  H   H262      1.0  0.19422  0.25084  0.02592  1.0000
  C   C149      1.0  0.34759  0.40034  0.93584  1.0000
  H   H263      1.0  0.35869  0.31274  0.09727  1.0000
  C   C150      1.0  0.25857  0.39906  0.04330  1.0000
  H   H264      1.0  0.42990  0.24381  0.05967  1.0000
  N   N6        1.0  0.07138  0.28374  0.91508  1.0000
  H   H265      1.0  0.29167  0.61703  0.98782  1.0000
  H   H266      1.0  0.28120  0.59528  0.04573  1.0000
  C   C151      1.0  0.50197  0.19902  0.88910  1.0000
  C   C152      1.0  0.33021  0.18847  0.03916  1.0000
  Fe  Fe15      1.0  0.39090  0.54685  0.93933  1.0000
  C   C153      1.0  0.45018  0.25690  0.06296  1.0000
  H   H267      1.0  0.41541  0.49060  0.86590  1.0000
  C   C154      1.0  0.13212  0.59658  0.09047  1.0000
  C   C155      1.0  0.16035  0.13030  0.88447  1.0000
  C   C156      1.0  0.25868  0.28622  0.05701  1.0000
  C   C157      1.0  0.40622  0.25391  0.95712  1.0000
  C   C158      1.0  0.21661  0.51429  0.98651  1.0000
  H   H268      1.0  0.09600  0.31974  0.95434  1.0000
  C   C159      1.0  0.06109  0.44701  0.90563  1.0000
  H   H269      1.0  0.44106  0.18851  0.86441  1.0000
  H   H270      1.0  0.29325  0.37708  0.07114  1.0000
  H   H271      1.0  0.14581  0.53996  0.06498  1.0000
  H   H272      1.0  0.20632  0.56161  0.00625  1.0000
  C   C160      1.0  0.12003  0.25950  0.90101  1.0000
  C   C161      1.0  0.49471  0.49788  0.99903  1.0000
  Fe  Fe16      1.0  0.34507  0.50840  0.99971  1.0000
  C   C162      1.0  0.48739  0.53280  0.92907  1.0000
  H   H273      1.0  0.41244  0.25670  0.91395  1.0000
  C   C163      1.0  0.41928  0.18074  0.87732  1.0000
  H   H274      1.0  0.21370  0.24533  0.08354  1.0000
  H   H275      1.0  0.46317  0.25209  0.97824  1.0000
  C   C164      1.0  0.44740  0.50994  0.98041  1.0000
  H   H276      1.0  0.36735  0.24165  0.00459  1.0000
  H   H277      1.0  0.50028  0.31993  0.10519  1.0000
  C   C165      1.0  0.18711  0.50308  0.09162  1.0000
  H   H278      1.0  0.12954  0.27231  0.93466  1.0000
  C   C166      1.0  0.28869  0.27830  0.95225  1.0000
  H   H279      1.0  0.09931  0.29595  0.09408  1.0000
  C   C167      1.0  0.23010  0.52592  0.93353  1.0000
  H   H280      1.0  0.50833  0.40368  0.01417  1.0000
  H   H281      1.0  0.31167  0.26600  0.06919  1.0000
  C   C168      1.0  0.45151  0.61095  0.07974  1.0000
  H   H282      1.0  0.42448  0.59433  0.01735  1.0000
  H   H283      1.0  0.23164  0.43870  0.94560  1.0000
  H   H284      1.0  0.53096  0.59243  0.04232  1.0000
  C   C169      1.0  0.21227  0.55273  0.10563  1.0000
  C   C170      1.0  0.29812  0.61533  0.87754  1.0000
  H   H285      1.0  0.11838  0.58435  0.06208  1.0000
  N   N7        1.0  0.44274  0.29510  0.98941  1.0000
  C   C171      1.0  0.35599  0.38077  0.02186  1.0000
  Fe  Fe17      1.0  0.34785  0.57757  0.01736  1.0000
  H   H286      1.0  0.11121  0.23706  0.91457  1.0000
  C   C172      1.0  0.35562  0.37660  0.96628  1.0000
  N   N8        1.0  0.19021  0.53575  0.07446  1.0000
  C   C173      1.0  0.36302  0.18168  0.10679  1.0000
  C   C174      1.0  0.40475  0.44369  0.88195  1.0000
  C   C175      1.0  0.09539  0.30852  0.05795  1.0000
  H   H287      1.0  0.30539  0.32444  0.96886  1.0000
  H   H288      1.0  0.24283  0.54729  0.94056  1.0000
  H   H289      1.0  0.48525  0.33903  0.95142  1.0000
  S   S32       1.0  0.17679  0.16507  0.90455  1.0000
  H   H290      1.0  0.10845  0.30084  0.86862  1.0000
  H   H291      1.0  0.17113  0.59163  0.04285  1.0000
  S   S33       1.0  0.35941  0.51081  0.91240  1.0000
  H   H292      1.0  0.06911  0.57100  0.93421  1.0000
  H   H293      1.0  0.25192  0.54583  0.05808  1.0000
  H   H294      1.0  0.26096  0.59150  0.98771  1.0000
  S   S34       1.0  0.40423  0.13999  0.09654  1.0000
  H   H295      1.0  0.40861  0.34771  0.00407  1.0000
  S   S35       1.0  0.37862  0.54176  0.02673  1.0000
  H   H296      1.0  0.16048  0.48735  0.02643  1.0000
  C   C176      1.0  0.22908  0.28375  0.03508  1.0000
  N   N9        1.0  0.27735  0.31292  0.03783  1.0000
  H   H297      1.0  0.11528  0.32059  0.04315  1.0000
  C   C177      1.0  0.32296  0.28831  0.06304  1.0000
  H   H298      1.0  0.18365  0.44136  0.05551  1.0000
  C   C178      1.0  0.21555  0.25164  0.04088  1.0000
  H   H299      1.0  0.45706  0.47939  0.04107  1.0000
  H   H300      1.0  0.52487  0.19870  0.05447  1.0000
  H   H301      1.0  0.06517  0.27452  0.03258  1.0000
  H   H302      1.0  0.48238  0.28064  0.01336  1.0000
  H   H303      1.0  0.51196  0.33765  0.86397  1.0000
  H   H304      1.0  0.27121  0.42069  0.03656  1.0000
  H   H305      1.0  0.24700  0.40072  0.08339  1.0000
  H   H306      1.0  0.48952  0.62127  0.90097  1.0000
  H   H307      1.0  0.21791  0.61786  0.86912  1.0000
  C   C179      1.0  0.27226  0.36312  0.86477  1.0000
  H   H308      1.0  0.50936  0.62300  0.98998  1.0000
  H   H309      1.0  0.23858  0.62247  0.06343  1.0000
  H   H310      1.0  0.13239  0.62133  0.08260  1.0000
  H   H311      1.0  0.38333  0.44403  0.86769  1.0000
  C   C180      1.0  0.24824  0.44608  0.86386  1.0000
  C   C181      1.0  0.28270  0.58887  0.86263  1.0000
  S   S36       1.0  0.17306  0.60860  0.30115  1.0000
  C   C182      1.0  0.47736  0.58597  0.18002  1.0000
  H   H312      1.0  0.16743  0.23949  0.25153  1.0000
  H   H313      1.0  0.52630  0.50400  0.20406  1.0000
  C   C183      1.0  0.18970  0.24518  0.23788  1.0000
  C   C184      1.0  0.04414  0.57011  0.35165  1.0000
  H   H314      1.0  0.13996  0.44880  0.24460  1.0000
  N   N10       1.0  0.52841  0.40898  0.17575  1.0000
  C   C185      1.0  0.28040  0.25110  0.19213  1.0000
  C   C186      1.0  0.41510  0.51915  0.24611  1.0000
  H   H315      1.0  0.06610  0.32516  0.17000  1.0000
  C   C187      1.0  0.47778  0.41459  0.21921  1.0000
  H   H316      1.0  0.22856  0.34306  0.27598  1.0000
  S   S37       1.0  0.28361  0.32216  0.27912  1.0000
  H   H317      1.0  0.51564  0.48115  0.35077  1.0000
  H   H318      1.0  0.47132  0.15052  0.20019  1.0000
  H   H319      1.0  0.45676  0.12419  0.24947  1.0000
  H   H320      1.0  0.37474  0.13088  0.35142  1.0000
  H   H321      1.0  0.19232  0.23515  0.19642  1.0000
  C   C188      1.0  0.31641  0.50859  0.24468  1.0000
  C   C189      1.0  0.50150  0.12766  0.24166  1.0000
  C   C190      1.0  0.41215  0.21921  0.23914  1.0000
  C   C191      1.0  0.44357  0.20656  0.33723  1.0000
  C   C192      1.0  0.17796  0.14697  0.27154  1.0000
  H   H322      1.0  0.08879  0.23932  0.19689  1.0000
  C   C193      1.0  0.07297  0.45414  0.25436  1.0000
  H   H323      1.0  0.06622  0.49389  0.18291  1.0000
  C   C194      1.0  0.23931  0.24208  0.26139  1.0000
  H   H324      1.0  0.32976  0.22155  0.27666  1.0000
  C   C195      1.0  0.26129  0.55766  0.13830  1.0000
  H   H325      1.0  0.48229  0.60332  0.26328  1.0000
  H   H326      1.0  0.41359  0.22131  0.15220  1.0000
  H   H327      1.0  0.30636  0.61680  0.18878  1.0000
  H   H328      1.0  0.19654  0.13566  0.28433  1.0000
  N   N11       1.0  0.30353  0.47976  0.26914  1.0000
  C   C196      1.0  0.06263  0.55460  0.26219  1.0000
  H   H329      1.0  0.15875  0.13565  0.29102  1.0000
  C   C197      1.0  0.04612  0.48064  0.19305  1.0000
  H   H330      1.0  0.20920  0.19085  0.22165  1.0000
  H   H331      1.0  0.21377  0.28838  0.21930  1.0000
  C   C198      1.0  0.06430  0.22543  0.13130  1.0000
  H   H332      1.0  0.25309  0.21097  0.19486  1.0000
  S   S38       1.0  0.14764  0.38425  0.23090  1.0000
  C   C199      1.0  0.50685  0.40034  0.22040  1.0000
  C   C200      1.0  0.17927  0.18083  0.28829  1.0000
  H   H333      1.0  0.45706  0.34760  0.13128  1.0000
  H   H334      1.0  0.07081  0.23310  0.31062  1.0000
  H   H335      1.0  0.08010  0.15122  0.17216  1.0000
  Fe  Fe18      1.0  0.32494  0.31377  0.31142  1.0000
  H   H336      1.0  0.33564  0.29180  0.14507  1.0000
  H   H337      1.0  0.50908  0.37388  0.12606  1.0000
  H   H338      1.0  0.10337  0.22678  0.27559  1.0000
  H   H339      1.0  0.09701  0.20297  0.16518  1.0000
  H   H340      1.0  0.51584  0.45409  0.15691  1.0000
  H   H341      1.0  0.04680  0.52375  0.11224  1.0000
  C   C201      1.0  0.53358  0.44316  0.17403  1.0000
  C   C202      1.0  0.08970  0.56399  0.27514  1.0000
  H   H342      1.0  0.11439  0.18022  0.23256  1.0000
  S   S39       1.0  0.12925  0.31587  0.32774  1.0000
  C   C203      1.0  0.30865  0.60801  0.22790  1.0000
  H   H343      1.0  0.41591  0.49436  0.23570  1.0000
  H   H344      1.0  0.35017  0.14388  0.25908  1.0000
  C   C204      1.0  0.07963  0.21762  0.17998  1.0000
  H   H345      1.0  0.25738  0.45268  0.13616  1.0000
  Fe  Fe19      1.0  0.15608  0.56200  0.27901  1.0000
  H   H346      1.0  0.49107  0.60420  0.16052  1.0000
  H   H347      1.0  0.23678  0.16296  0.15387  1.0000
  H   H348      1.0  0.07364  0.37382  0.11389  1.0000
  C   C205      1.0  0.33545  0.60279  0.24361  1.0000
  H   H349      1.0  0.26146  0.58276  0.13399  1.0000
  C   C206      1.0  0.51904  0.57973  0.23548  1.0000
  C   C207      1.0  0.17348  0.46605  0.29179  1.0000
  H   H350      1.0  0.04632  0.18365  0.20243  1.0000
  H   H351      1.0  0.04806  0.41986  0.14094  1.0000
  N   N12       1.0  0.44299  0.18445  0.28960  1.0000
  H   H352      1.0  0.27911  0.27630  0.19331  1.0000
  H   H353      1.0  0.48261  0.56464  0.15668  1.0000
  H   H354      1.0  0.22660  0.42415  0.32805  1.0000
  H   H355      1.0  0.10637  0.41914  0.18498  1.0000
  S   S40       1.0  0.53008  0.27822  0.16003  1.0000
  C   C208      1.0  0.28499  0.60272  0.26304  1.0000
  H   H356      1.0  0.10903  0.37067  0.13282  1.0000
  H   H357      1.0  0.17764  0.18234  0.33276  1.0000
  C   C209      1.0  0.17187  0.29182  0.19625  1.0000
  C   C210      1.0  0.45952  0.30672  0.24267  1.0000
  H   H358      1.0  0.47719  0.56266  0.25679  1.0000
  H   H359      1.0  0.49353  0.27806  0.25749  1.0000
  S   S41       1.0  0.35599  0.28522  0.26343  1.0000
  C   C211      1.0  0.32600  0.46010  0.28721  1.0000
  H   H360      1.0  0.41569  0.58625  0.11827  1.0000
  C   C212      1.0  0.20787  0.42968  0.30946  1.0000
  C   C213      1.0  0.06249  0.47139  0.30680  1.0000
  H   H361      1.0  0.05572  0.61665  0.23140  1.0000
  H   H362      1.0  0.10384  0.49024  0.32581  1.0000
  C   C214      1.0  0.20648  0.33268  0.35186  1.0000
  H   H363      1.0  0.39878  0.17323  0.30577  1.0000
  H   H364      1.0  0.17668  0.28248  0.15490  1.0000
  H   H365      1.0  0.20536  0.55330  0.14898  1.0000
  Fe  Fe20      1.0  0.21571  0.58941  0.28982  1.0000
  H   H366      1.0  0.18722  0.29152  0.27407  1.0000
  N   N13       1.0  0.07282  0.18902  0.26913  1.0000
  C   C215      1.0  0.52873  0.17823  0.12914  1.0000
  H   H367      1.0  0.47598  0.16047  0.32212  1.0000
  C   C216      1.0  0.27257  0.14022  0.11385  1.0000
  S   S42       1.0  0.35588  0.35237  0.32647  1.0000
  H   H368      1.0  0.28796  0.15725  0.12983  1.0000
  H   H369      1.0  0.36006  0.53156  0.13439  1.0000
  S   S43       1.0  0.11871  0.55671  0.23011  1.0000
  H   H370      1.0  0.27684  0.44026  0.25093  1.0000
  H   H371      1.0  0.05528  0.49424  0.29904  1.0000
  H   H372      1.0  0.46340  0.22504  0.11948  1.0000
  H   H373      1.0  0.29479  0.24472  0.22222  1.0000
  H   H374      1.0  0.43928  0.12840  0.34674  1.0000
  H   H375      1.0  0.06978  0.12667  0.22678  1.0000
  H   H376      1.0  0.25399  0.55233  0.18017  1.0000
  C   C217      1.0  0.31510  0.58578  0.32923  1.0000
  C   C218      1.0  0.51754  0.39773  0.12323  1.0000
  H   H377      1.0  0.18709  0.34166  0.34142  1.0000
  C   C219      1.0  0.36066  0.12858  0.22819  1.0000
  H   H378      1.0  0.09386  0.45384  0.35519  1.0000
  H   H379      1.0  0.45753  0.38465  0.27982  1.0000
  C   C220      1.0  0.46444  0.33160  0.15793  1.0000
  S   S44       1.0  0.25209  0.61308  0.24449  1.0000
  N   N14       1.0  0.20919  0.23120  0.27394  1.0000
  H   H380      1.0  0.28890  0.18876  0.24993  1.0000
  C   C221      1.0  0.36658  0.42545  0.26326  1.0000
  H   H381      1.0  0.44810  0.30305  0.28090  1.0000
  H   H382      1.0  0.27029  0.58741  0.34121  1.0000
  H   H383      1.0  0.28314  0.55025  0.13028  1.0000
  C   C222      1.0  0.46274  0.23572  0.32996  1.0000
  H   H384      1.0  0.32371  0.41547  0.24495  1.0000
  S   S45       1.0  0.08333  0.36991  0.33668  1.0000
  H   H385      1.0  0.11422  0.58698  0.33463  1.0000
  H   H386      1.0  0.42972  0.25441  0.18581  1.0000
  H   H387      1.0  0.27157  0.46907  0.33250  1.0000
  C   C223      1.0  0.09366  0.57816  0.32518  1.0000
  H   H388      1.0  0.23682  0.43566  0.19218  1.0000
  H   H389      1.0  0.24504  0.48417  0.24636  1.0000
  H   H390      1.0  0.42035  0.53091  0.16334  1.0000
  H   H391      1.0  0.34215  0.44390  0.20519  1.0000
  C   C224      1.0  0.49933  0.29686  0.17937  1.0000
  H   H392      1.0  0.24226  0.26685  0.27169  1.0000
  C   C225      1.0  0.41889  0.16148  0.29947  1.0000
  S   S46       1.0  0.39897  0.30092  0.35862  1.0000
  H   H393      1.0  0.48482  0.23006  0.31869  1.0000
  H   H394      1.0  0.08019  0.43212  0.26726  1.0000
  H   H395      1.0  0.45528  0.24964  0.29858  1.0000
  H   H396      1.0  0.52029  0.45733  0.25741  1.0000
  H   H397      1.0  0.52495  0.55838  0.21344  1.0000
  H   H398      1.0  0.30447  0.13233  0.21452  1.0000
  H   H399      1.0  0.39294  0.20390  0.24113  1.0000
  H   H400      1.0  0.07690  0.44690  0.13514  1.0000
  N   N15       1.0  0.44678  0.59271  0.17727  1.0000
  C   C226      1.0  0.05927  0.20177  0.22277  1.0000
  H   H401      1.0  0.18448  0.50247  0.13623  1.0000
  H   H402      1.0  0.22509  0.46910  0.16299  1.0000
  H   H403      1.0  0.43143  0.57770  0.25602  1.0000
  H   H404      1.0  0.04762  0.24161  0.14317  1.0000
  H   H405      1.0  0.11691  0.19153  0.34324  1.0000
  C   C227      1.0  0.48732  0.58305  0.23721  1.0000
  C   C228      1.0  0.25516  0.32191  0.32751  1.0000
  C   C229      1.0  0.29010  0.15847  0.31519  1.0000
  C   C230      1.0  0.09909  0.20661  0.35270  1.0000
  H   H406      1.0  0.42547  0.52374  0.28404  1.0000
  C   C231      1.0  0.33667  0.19492  0.34440  1.0000
  C   C232      1.0  0.04144  0.29184  0.28584  1.0000
  H   H407      1.0  0.17742  0.14397  0.22741  1.0000
  C   C233      1.0  0.28484  0.48909  0.31789  1.0000
  H   H408      1.0  0.43746  0.18348  0.20460  1.0000
  H   H409      1.0  0.31766  0.44660  0.32227  1.0000
  C   C234      1.0  0.26015  0.47804  0.21232  1.0000
  H   H410      1.0  0.50243  0.37520  0.21972  1.0000
  S   S47       1.0  0.41696  0.34327  0.21951  1.0000
  H   H411      1.0  0.36997  0.14229  0.19473  1.0000
  C   C235      1.0  0.08610  0.47614  0.34463  1.0000
  H   H412      1.0  0.29989  0.52476  0.23774  1.0000
  H   H413      1.0  0.06013  0.15825  0.33335  1.0000
  S   S48       1.0  0.05032  0.28784  0.35153  1.0000
  H   H414      1.0  0.13018  0.13637  0.17569  1.0000
  C   C236      1.0  0.48504  0.29255  0.22945  1.0000
  S   S49       1.0  0.21396  0.48604  0.35824  1.0000
  H   H415      1.0  0.51911  0.14482  0.23461  1.0000
  H   H416      1.0  0.45766  0.21556  0.22727  1.0000
  H   H417      1.0  0.37377  0.40594  0.23691  1.0000
  C   C237      1.0  0.34611  0.53535  0.17111  1.0000
  H   H418      1.0  0.33001  0.52115  0.27299  1.0000
  C   C238      1.0  0.05206  0.31240  0.19766  1.0000
  C   C239      1.0  0.32256  0.20208  0.29990  1.0000
  H   H419      1.0  0.04493  0.45822  0.32816  1.0000
  H   H420      1.0  0.22483  0.18601  0.28181  1.0000
  C   C240      1.0  0.43896  0.58721  0.12030  1.0000
  C   C241      1.0  0.29950  0.18357  0.28483  1.0000
  H   H421      1.0  0.28934  0.24376  0.15175  1.0000
  H   H422      1.0  0.20347  0.26561  0.33753  1.0000
  H   H423      1.0  0.25340  0.23091  0.28741  1.0000
  H   H424      1.0  0.16516  0.48848  0.29760  1.0000
  C   C242      1.0  0.24397  0.45751  0.17345  1.0000
  H   H425      1.0  0.43856  0.41802  0.26853  1.0000
  H   H426      1.0  0.36940  0.18653  0.14681  1.0000
  H   H427      1.0  0.32861  0.54936  0.16123  1.0000
  C   C243      1.0  0.19354  0.40727  0.27935  1.0000
  H   H428      1.0  0.39276  0.52515  0.25255  1.0000
  H   H429      1.0  0.53808  0.42553  0.34919  1.0000
  Fe  Fe21      1.0  0.19691  0.53124  0.34454  1.0000
  H   H430      1.0  0.27008  0.50644  0.30747  1.0000
  S   S50       1.0  0.26090  0.13572  0.29721  1.0000
  Fe  Fe22      1.0  0.38772  0.32243  0.28376  1.0000
  C   C244      1.0  0.16903  0.41406  0.25601  1.0000
  H   H431      1.0  0.52555  0.57886  0.27692  1.0000
  S   S51       1.0  0.19888  0.54421  0.25900  1.0000
  C   C245      1.0  0.05937  0.30868  0.25000  1.0000
  C   C246      1.0  0.20054  0.24052  0.33115  1.0000
  H   H432      1.0  0.34359  0.47483  0.30175  1.0000
  H   H433      1.0  0.20081  0.38436  0.27578  1.0000
  C   C247      1.0  0.43023  0.53753  0.20112  1.0000
  C   C248      1.0  0.33852  0.43579  0.24645  1.0000
  C   C249      1.0  0.43895  0.20041  0.23863  1.0000
  H   H434      1.0  0.38283  0.44439  0.25974  1.0000
  H   H435      1.0  0.26745  0.49904  0.19134  1.0000
  H   H436      1.0  0.17385  0.31717  0.19559  1.0000
  H   H437      1.0  0.39210  0.24899  0.18780  1.0000
  S   S52       1.0  0.37275  0.58879  0.31487  1.0000
  H   H438      1.0  0.09230  0.46666  0.23748  1.0000
  H   H439      1.0  0.17761  0.23569  0.34010  1.0000
  H   H440      1.0  0.05937  0.54480  0.22284  1.0000
  H   H441      1.0  0.04410  0.21925  0.23743  1.0000
  H   H442      1.0  0.32335  0.49255  0.16049  1.0000
  C   C250      1.0  0.08705  0.14179  0.20915  1.0000
  C   C251      1.0  0.06495  0.43135  0.16383  1.0000
  C   C252      1.0  0.19231  0.28045  0.23431  1.0000
  C   C253      1.0  0.09293  0.38698  0.12458  1.0000
  C   C254      1.0  0.47316  0.14240  0.24111  1.0000
  H   H443      1.0  0.48790  0.18609  0.27221  1.0000
  H   H444      1.0  0.29780  0.45376  0.19465  1.0000
  C   C255      1.0  0.20697  0.19696  0.26520  1.0000
  H   H445      1.0  0.41051  0.23581  0.27362  1.0000
  C   C256      1.0  0.33877  0.59203  0.29449  1.0000
  H   H446      1.0  0.23765  0.24461  0.17346  1.0000
  H   H447      1.0  0.35354  0.60744  0.21608  1.0000
  H   H448      1.0  0.10281  0.15564  0.28454  1.0000
  H   H449      1.0  0.16067  0.19125  0.27406  1.0000
  C   C257      1.0  0.15924  0.44362  0.26147  1.0000
  C   C258      1.0  0.08638  0.40725  0.17444  1.0000
  C   C259      1.0  0.28539  0.46154  0.23143  1.0000
  Fe  Fe23      1.0  0.36452  0.26612  0.34192  1.0000
  C   C260      1.0  0.25121  0.23586  0.20279  1.0000
  H   H450      1.0  0.07908  0.31859  0.26220  1.0000
  C   C261      1.0  0.45984  0.40937  0.27154  1.0000
  H   H451      1.0  0.12309  0.59303  0.13202  1.0000
  H   H452      1.0  0.15531  0.54582  0.13211  1.0000
  C   C262      1.0  0.41202  0.23704  0.18802  1.0000
  H   H453      1.0  0.46625  0.40384  0.18591  1.0000
  N   N16       1.0  0.05224  0.44945  0.21172  1.0000
  H   H454      1.0  0.35851  0.54808  0.20105  1.0000
  H   H455      1.0  0.14983  0.28521  0.20994  1.0000
  C   C263      1.0  0.48901  0.31631  0.14361  1.0000
  H   H456      1.0  0.47963  0.43954  0.21362  1.0000
  H   H457      1.0  0.45229  0.53060  0.19671  1.0000
  C   C264      1.0  0.42798  0.57236  0.21308  1.0000
  C   C265      1.0  0.33511  0.50451  0.19214  1.0000
  H   H458      1.0  0.35387  0.49180  0.19932  1.0000
  H   H459      1.0  0.07894  0.39222  0.20754  1.0000
  H   H460      1.0  0.12608  0.24814  0.35612  1.0000
  H   H461      1.0  0.40553  0.57700  0.20944  1.0000
  H   H462      1.0  0.51519  0.40579  0.26004  1.0000
  C   C266      1.0  0.28823  0.59113  0.31345  1.0000
  C   C267      1.0  0.44910  0.32600  0.20641  1.0000
  Fe  Fe24      1.0  0.12821  0.36489  0.30681  1.0000
  C   C268      1.0  0.47070  0.16914  0.28332  1.0000
  C   C269      1.0  0.19745  0.45888  0.31674  1.0000
  C   C270      1.0  0.09543  0.16742  0.25007  1.0000
  C   C271      1.0  0.08613  0.21516  0.30058  1.0000
  H   H463      1.0  0.41652  0.14636  0.26345  1.0000
  H   H464      1.0  0.51838  0.19703  0.15291  1.0000
  C   C272      1.0  0.22994  0.33358  0.31482  1.0000
  H   H465      1.0  0.36444  0.41812  0.30536  1.0000
  H   H466      1.0  0.46947  0.42180  0.30560  1.0000
  C   C273      1.0  0.05050  0.17169  0.30326  1.0000
  H   H467      1.0  0.51246  0.16001  0.12137  1.0000
  H   H468      1.0  0.32457  0.13437  0.15329  1.0000
  H   H469      1.0  0.53049  0.59947  0.21605  1.0000
  C   C274      1.0  0.53887  0.45994  0.22834  1.0000
  H   H470      1.0  0.16528  0.44545  0.12131  1.0000
  H   H471      1.0  0.42219  0.21394  0.35002  1.0000
  H   H472      1.0  0.31424  0.52251  0.35543  1.0000
  C   C275      1.0  0.42000  0.14163  0.34904  1.0000
  H   H473      1.0  0.29665  0.31884  0.11311  1.0000
  H   H474      1.0  0.32754  0.21044  0.11768  1.0000
  C   C276      1.0  0.30416  0.15146  0.35979  1.0000
  C   C277      1.0  0.24487  0.15617  0.11270  1.0000
  H   H475      1.0  0.49930  0.41104  0.11410  1.0000
  H   H476      1.0  0.17418  0.59785  0.11387  1.0000
  H   H477      1.0  0.05475  0.20448  0.11235  1.0000
  C   C278      1.0  0.53354  0.50279  0.42008  1.0000
  H   H478      1.0  0.06057  0.15324  0.45541  1.0000
  C   C279      1.0  0.07292  0.19178  0.50681  1.0000
  C   C280      1.0  0.49674  0.15782  0.41749  1.0000
  Fe  Fe25      1.0  0.40155  0.55671  0.49546  1.0000
  S   S53       1.0  0.40387  0.13547  0.49770  1.0000
  H   H479      1.0  0.43242  0.40248  0.41849  1.0000
  H   H480      1.0  0.21152  0.48631  0.53166  1.0000
  H   H481      1.0  0.26885  0.30732  0.56509  1.0000
  C   C281      1.0  0.52145  0.17415  0.40163  1.0000
  H   H482      1.0  0.07814  0.48823  0.38210  1.0000
  H   H483      1.0  0.43165  0.20612  0.46419  1.0000
  H   H484      1.0  0.26562  0.34392  0.49333  1.0000
  H   H485      1.0  0.53346  0.19893  0.59978  1.0000
  H   H486      1.0  0.23781  0.23816  0.37684  1.0000
  H   H487      1.0  0.53464  0.36536  0.40816  1.0000
  H   H488      1.0  0.12475  0.48691  0.45664  1.0000
  S   S54       1.0  0.45549  0.48626  0.36949  1.0000
  C   C282      1.0  0.52060  0.24058  0.56906  1.0000
  C   C283      1.0  0.52633  0.38811  0.40254  1.0000
  H   H489      1.0  0.26402  0.38509  0.38885  1.0000
  H   H490      1.0  0.45053  0.19517  0.37245  1.0000
  C   C284      1.0  0.07099  0.58098  0.36356  1.0000
  C   C285      1.0  0.23061  0.39869  0.44735  1.0000
  H   H491      1.0  0.13646  0.39875  0.51359  1.0000
  C   C286      1.0  0.50971  0.31973  0.57430  1.0000
  C   C287      1.0  0.47539  0.39461  0.48693  1.0000
  H   H492      1.0  0.51681  0.19350  0.53917  1.0000
  C   C288      1.0  0.46003  0.20056  0.52639  1.0000
  C   C289      1.0  0.28637  0.33834  0.50648  1.0000
  C   C290      1.0  0.13986  0.36201  0.56600  1.0000
  C   C291      1.0  0.20088  0.22907  0.42960  1.0000
  C   C292      1.0  0.42067  0.61744  0.56803  1.0000
  C   C293      1.0  0.36730  0.13450  0.51222  1.0000
  N   N17       1.0  0.50560  0.39633  0.50102  1.0000
  H   H493      1.0  0.04937  0.30516  0.50877  1.0000
  H   H494      1.0  0.47041  0.24330  0.41438  1.0000
  H   H495      1.0  0.47596  0.43364  0.43391  1.0000
  S   S55       1.0  0.41907  0.57769  0.56923  1.0000
  H   H496      1.0  0.06989  0.25256  0.51320  1.0000
  H   H497      1.0  0.07261  0.14259  0.51823  1.0000
  C   C294      1.0  0.50019  0.52303  0.48819  1.0000
  C   C295      1.0  0.22676  0.19709  0.57516  1.0000
  H   H498      1.0  0.52091  0.43118  0.44516  1.0000
  H   H499      1.0  0.12849  0.28028  0.59168  1.0000
  C   C296      1.0  0.30914  0.13345  0.53955  1.0000
  S   S56       1.0  0.08318  0.42348  0.46467  1.0000
  C   C297      1.0  0.18102  0.39447  0.52512  1.0000
  H   H500      1.0  0.22971  0.17892  0.54357  1.0000
  H   H501      1.0  0.45695  0.51789  0.47181  1.0000
  H   H502      1.0  0.32378  0.54310  0.58854  1.0000
  Fe  Fe26      1.0  0.08548  0.32208  0.36392  1.0000
  C   C298      1.0  0.14966  0.39364  0.54648  1.0000
  H   H503      1.0  0.16249  0.26754  0.51423  1.0000
  H   H504      1.0  0.29712  0.13210  0.38340  1.0000
  H   H505      1.0  0.46315  0.23490  0.59087  1.0000
  H   H506      1.0  0.32742  0.29506  0.50784  1.0000
  C   C299      1.0  0.05259  0.30907  0.55200  1.0000
  Fe  Fe27      1.0  0.36488  0.32826  0.40007  1.0000
  H   H507      1.0  0.50512  0.38512  0.38732  1.0000
  H   H508      1.0  0.41953  0.40940  0.48758  1.0000
  H   H509      1.0  0.21623  0.40292  0.41603  1.0000
  H   H510      1.0  0.27602  0.29048  0.49932  1.0000
  H   H511      1.0  0.27267  0.24910  0.55583  1.0000
  C   C300      1.0  0.51132  0.49267  0.38921  1.0000
  H   H512      1.0  0.33851  0.16390  0.40853  1.0000
  C   C301      1.0  0.50133  0.60490  0.53994  1.0000
  C   C302      1.0  0.31346  0.29685  0.54533  1.0000
  C   C303      1.0  0.15652  0.46176  0.49165  1.0000
  S   S57       1.0  0.23235  0.15137  0.43720  1.0000
  C   C304      1.0  0.22571  0.42058  0.49708  1.0000
  H   H513      1.0  0.28714  0.20707  0.42658  1.0000
  C   C305      1.0  0.52550  0.40766  0.45553  1.0000
  C   C306      1.0  0.06033  0.15937  0.49882  1.0000
  H   H514      1.0  0.23623  0.46822  0.56934  1.0000
  C   C307      1.0  0.51746  0.45051  0.54379  1.0000
  S   S58       1.0  0.33133  0.29200  0.38833  1.0000
  H   H515      1.0  0.37165  0.39646  0.40861  1.0000
  C   C308      1.0  0.23329  0.30782  0.41421  1.0000
  H   H516      1.0  0.09542  0.29626  0.54510  1.0000
  C   C309      1.0  0.32768  0.16940  0.37390  1.0000
  H   H517      1.0  0.18544  0.17914  0.59990  1.0000
  H   H518      1.0  0.27949  0.19020  0.49080  1.0000
  C   C310      1.0  0.21685  0.22623  0.37457  1.0000
  C   C311      1.0  0.52792  0.51786  0.46980  1.0000
  Fe  Fe28      1.0  0.17207  0.59128  0.38428  1.0000
  H   H519      1.0  0.36842  0.17812  0.55474  1.0000
  H   H520      1.0  0.50483  0.24883  0.54339  1.0000
  Fe  Fe29      1.0  0.18989  0.12834  0.44762  1.0000
  H   H521      1.0  0.23717  0.41149  0.52964  1.0000
  N   N18       1.0  0.31326  0.26796  0.57641  1.0000
  H   H522      1.0  0.41940  0.15625  0.38622  1.0000
  H   H523      1.0  0.08338  0.19482  0.38052  1.0000
  C   C312      1.0  0.33433  0.44391  0.49454  1.0000
  S   S59       1.0  0.35813  0.56118  0.46898  1.0000
  C   C313      1.0  0.11064  0.23496  0.38255  1.0000
  H   H524      1.0  0.51661  0.57198  0.59230  1.0000
  H   H525      1.0  0.26070  0.22286  0.47282  1.0000
  H   H526      1.0  0.19860  0.25340  0.44186  1.0000
  S   S60       1.0  0.09867  0.33617  0.44539  1.0000
  H   H527      1.0  0.27611  0.39838  0.45254  1.0000
  H   H528      1.0  0.22695  0.37465  0.45933  1.0000
  H   H529      1.0  0.35362  0.44847  0.41451  1.0000
  S   S61       1.0  0.32274  0.48119  0.49928  1.0000
  C   C314      1.0  0.07338  0.20071  0.56738  1.0000
  H   H530      1.0  0.47814  0.16964  0.43131  1.0000
  H   H531      1.0  0.17941  0.27578  0.57532  1.0000
  C   C315      1.0  0.26080  0.40215  0.42245  1.0000
  H   H532      1.0  0.47861  0.20880  0.50096  1.0000
  N   N19       1.0  0.08598  0.23206  0.58135  1.0000
  H   H533      1.0  0.39605  0.24434  0.60141  1.0000
  S   S62       1.0  0.15091  0.15481  0.44894  1.0000
  C   C316      1.0  0.12481  0.12569  0.44614  1.0000
  Fe  Fe30      1.0  0.09968  0.38368  0.41579  1.0000
  C   C317      1.0  0.28437  0.30664  0.52996  1.0000
  C   C318      1.0  0.35511  0.38513  0.48805  1.0000
  C   C319      1.0  0.29989  0.50295  0.36669  1.0000
  H   H534      1.0  0.04585  0.25063  0.57102  1.0000
  N   N20       1.0  0.19535  0.42552  0.51618  1.0000
  H   H535      1.0  0.49786  0.58687  0.50881  1.0000
  C   C320      1.0  0.32953  0.42482  0.53805  1.0000
  H   H536      1.0  0.16323  0.48197  0.51632  1.0000
  H   H537      1.0  0.33727  0.38108  0.56924  1.0000
  H   H538      1.0  0.15150  0.35605  0.60061  1.0000
  C   C321      1.0  0.06840  0.25506  0.55756  1.0000
  C   C322      1.0  0.07575  0.28935  0.56886  1.0000
  H   H539      1.0  0.39642  0.61960  0.49923  1.0000
  H   H540      1.0  0.47550  0.27677  0.37476  1.0000
  C   C323      1.0  0.49539  0.12609  0.41261  1.0000
  H   H541      1.0  0.09333  0.24988  0.39724  1.0000
  H   H542      1.0  0.05140  0.19833  0.58552  1.0000
  S   S63       1.0  0.36590  0.21720  0.36308  1.0000
  H   H543      1.0  0.30199  0.33925  0.47132  1.0000
  H   H544      1.0  0.53964  0.45317  0.52710  1.0000
  H   H545      1.0  0.47213  0.37661  0.45515  1.0000
  H   H546      1.0  0.17448  0.23670  0.55087  1.0000
  H   H547      1.0  0.51018  0.34845  0.47791  1.0000
  H   H548      1.0  0.11678  0.24029  0.51519  1.0000
  Fe  Fe31      1.0  0.35771  0.51008  0.46002  1.0000
  H   H549      1.0  0.23444  0.29735  0.45227  1.0000
  H   H550      1.0  0.48342  0.62014  0.54095  1.0000
  C   C324      1.0  0.46342  0.42438  0.46913  1.0000
  H   H551      1.0  0.18138  0.38053  0.48705  1.0000
  H   H552      1.0  0.17568  0.42592  0.44140  1.0000
  C   C325      1.0  0.14338  0.47364  0.44319  1.0000
  H   H553      1.0  0.41032  0.45198  0.59455  1.0000
  C   C326      1.0  0.50059  0.58955  0.59380  1.0000
  H   H554      1.0  0.27585  0.29921  0.38697  1.0000
  H   H555      1.0  0.26509  0.49512  0.42670  1.0000
  H   H556      1.0  0.44046  0.26197  0.39425  1.0000
  H   H557      1.0  0.32284  0.31649  0.56844  1.0000
  C   C327      1.0  0.30364  0.23344  0.49302  1.0000
  H   H558      1.0  0.04710  0.47426  0.47197  1.0000
  H   H559      1.0  0.52184  0.49276  0.59109  1.0000
  H   H560      1.0  0.05976  0.20692  0.48599  1.0000
  C   C328      1.0  0.28127  0.21205  0.46961  1.0000
  H   H561      1.0  0.50414  0.46110  0.51623  1.0000
  H   H562      1.0  0.04907  0.55779  0.59961  1.0000
  H   H563      1.0  0.46273  0.44170  0.50253  1.0000
  H   H564      1.0  0.13991  0.44892  0.51558  1.0000
  H   H565      1.0  0.52739  0.58515  0.43841  1.0000
  S   S64       1.0  0.14448  0.38299  0.38373  1.0000
  H   H566      1.0  0.23682  0.44274  0.48679  1.0000
  H   H567      1.0  0.13650  0.45442  0.41636  1.0000
  C   C329      1.0  0.34281  0.25722  0.57510  1.0000
  C   C330      1.0  0.51346  0.36443  0.51263  1.0000
  H   H568      1.0  0.53628  0.36437  0.51925  1.0000
  H   H569      1.0  0.35179  0.25485  0.53287  1.0000
  S   S65       1.0  0.36735  0.34807  0.48354  1.0000
  C   C331      1.0  0.11608  0.23431  0.55808  1.0000
  Fe  Fe32      1.0  0.37874  0.56020  0.38518  1.0000
  C   C332      1.0  0.27868  0.51445  0.41075  1.0000
  C   C333      1.0  0.29506  0.24290  0.55215  1.0000
  C   C334      1.0  0.04787  0.42607  0.45224  1.0000
  C   C335      1.0  0.46309  0.20954  0.58611  1.0000
  C   C336      1.0  0.35528  0.15889  0.54180  1.0000
  H   H570      1.0  0.26496  0.42534  0.40647  1.0000
  H   H571      1.0  0.49699  0.30893  0.60803  1.0000
  H   H572      1.0  0.21242  0.21808  0.45979  1.0000
  H   H573      1.0  0.29244  0.35580  0.53722  1.0000
  H   H574      1.0  0.08514  0.18259  0.58452  1.0000
  H   H575      1.0  0.40008  0.27171  0.54853  1.0000
  H   H576      1.0  0.31805  0.43285  0.57435  1.0000
  C   C337      1.0  0.34963  0.43370  0.44799  1.0000
  S   S66       1.0  0.27300  0.13325  0.55870  1.0000
  C   C338      1.0  0.18204  0.44220  0.47366  1.0000
  S   S67       1.0  0.21605  0.57557  0.37480  1.0000
  H   H577      1.0  0.11709  0.36187  0.57907  1.0000
  S   S68       1.0  0.42228  0.56097  0.41291  1.0000
  H   H578      1.0  0.28998  0.52538  0.44411  1.0000
  H   H579      1.0  0.15877  0.48869  0.42021  1.0000
  C   C339      1.0  0.35966  0.40416  0.44447  1.0000
  H   H580      1.0  0.33275  0.59750  0.60900  1.0000
  C   C340      1.0  0.43423  0.21432  0.50608  1.0000
  Fe  Fe33      1.0  0.14242  0.33436  0.40702  1.0000
  H   H581      1.0  0.36301  0.30228  0.59428  1.0000
  H   H582      1.0  0.51015  0.30375  0.53885  1.0000
  H   H583      1.0  0.49560  0.53398  0.52702  1.0000
  C   C341      1.0  0.13653  0.25707  0.58656  1.0000
  H   H584      1.0  0.19294  0.38166  0.55289  1.0000
  C   C342      1.0  0.25681  0.30899  0.37727  1.0000
  H   H585      1.0  0.12147  0.22797  0.41748  1.0000
  H   H586      1.0  0.41490  0.20710  0.53064  1.0000
  H   H587      1.0  0.47958  0.57820  0.60284  1.0000
  H   H588      1.0  0.43668  0.23961  0.50694  1.0000
  H   H589      1.0  0.46131  0.38731  0.52200  1.0000
  H   H590      1.0  0.31229  0.48563  0.38422  1.0000
  H   H591      1.0  0.04662  0.41680  0.57442  1.0000
  Fe  Fe34      1.0  0.41783  0.51005  0.40684  1.0000
  H   H592      1.0  0.17361  0.44920  0.58369  1.0000
  H   H593      1.0  0.21973  0.21773  0.55684  1.0000
  S   S69       1.0  0.39978  0.50578  0.49149  1.0000
  H   H594      1.0  0.51972  0.25425  0.60722  1.0000
  C   C343      1.0  0.36387  0.27813  0.60523  1.0000
  H   H595      1.0  0.48660  0.15313  0.56887  1.0000
  H   H596      1.0  0.09453  0.19265  0.48699  1.0000
  H   H597      1.0  0.17971  0.21749  0.42908  1.0000
  H   H598      1.0  0.45736  0.17542  0.52080  1.0000
  S   S70       1.0  0.37545  0.50930  0.37427  1.0000
  H   H599      1.0  0.30656  0.25342  0.46750  1.0000
  S   S71       1.0  0.15441  0.62208  0.45029  1.0000
  S   S72       1.0  0.52213  0.21397  0.40773  1.0000
  C   C344      1.0  0.20808  0.31951  0.40137  1.0000
  H   H600      1.0  0.26534  0.53165  0.39521  1.0000
  H   H601      1.0  0.12572  0.21162  0.55772  1.0000
  H   H602      1.0  0.05847  0.33360  0.55936  1.0000
  C   C345      1.0  0.48356  0.49819  0.40767  1.0000
  C   C346      1.0  0.19522  0.44341  0.56886  1.0000
  H   H603      1.0  0.19772  0.45822  0.45335  1.0000
  C   C347      1.0  0.34048  0.39565  0.53521  1.0000
  H   H604      1.0  0.34299  0.23394  0.59135  1.0000
  H   H605      1.0  0.07435  0.59145  0.40253  1.0000
  H   H606      1.0  0.32360  0.22125  0.49003  1.0000
  H   H607      1.0  0.42461  0.44053  0.44273  1.0000
  C   C348      1.0  0.32640  0.15799  0.55645  1.0000
  H   H608      1.0  0.47469  0.34370  0.55195  1.0000
  C   C349      1.0  0.47815  0.51348  0.45707  1.0000
  C   C350      1.0  0.50919  0.41618  0.55119  1.0000
  H   H609      1.0  0.20251  0.42917  0.60048  1.0000
  C   C351      1.0  0.46221  0.25561  0.38150  1.0000
  C   C352      1.0  0.43320  0.41871  0.45358  1.0000
  C   C353      1.0  0.16502  0.25935  0.55478  1.0000
  S   S73       1.0  0.17821  0.31589  0.44582  1.0000
  H   H610      1.0  0.29557  0.22171  0.57465  1.0000
  C   C354      1.0  0.21373  0.47348  0.56831  1.0000
  C   C355      1.0  0.51524  0.20599  0.57882  1.0000
  H   H611      1.0  0.48979  0.41458  0.57876  1.0000
  C   C356      1.0  0.51506  0.46852  0.59721  1.0000
  C   C357      1.0  0.39399  0.26854  0.59169  1.0000
  H   H612      1.0  0.14544  0.40998  0.58055  1.0000
  H   H613      1.0  0.52623  0.40772  0.57417  1.0000
  H   H614      1.0  0.31741  0.17636  0.58093  1.0000
  H   H615      1.0  0.53146  0.32435  0.58648  1.0000
  C   C358      1.0  0.49675  0.34938  0.56112  1.0000
  H   H616      1.0  0.14303  0.34439  0.53340  1.0000
  H   H617      1.0  0.31755  0.57789  0.36890  1.0000
  H   H618      1.0  0.44001  0.47890  0.59479  1.0000
  H   H619      1.0  0.07827  0.29493  0.61164  1.0000
  H   H620      1.0  0.24720  0.20281  0.59216  1.0000
  H   H621      1.0  0.44314  0.20130  0.60766  1.0000
  N   N21       1.0  0.48805  0.19723  0.61046  1.0000
  C   C359      1.0  0.48471  0.16286  0.61063  1.0000
  H   H622      1.0  0.04205  0.37825  0.43080  1.0000
  H   H623      1.0  0.11021  0.13996  0.37249  1.0000
  H   H624      1.0  0.22029  0.20172  0.36620  1.0000
  H   H625      1.0  0.44389  0.43930  0.61039  1.0000
  H   H626      1.0  0.49642  0.36439  0.59758  1.0000
  H   H627      1.0  0.36148  0.54048  0.58903  1.0000
  S   S74       1.0  0.15272  0.54536  0.36281  1.0000
  H   H628      1.0  0.23243  0.09856  0.65670  1.0000
  H   H629      1.0  0.19881  0.02456  0.78882  1.0000
  H   H630      1.0  0.38021  0.64964  0.84952  1.0000
  C   C360      1.0  0.17621  0.74301  0.72986  1.0000
  H   H631      1.0  0.49752  0.65873  0.64373  1.0000
  S   S75       1.0  0.22816  0.87489  0.62226  1.0000
  S   S76       1.0  0.35401  0.90324  0.61691  1.0000
  C   C361      1.0  0.48714  0.67476  0.77733  1.0000
  H   H632      1.0  0.24320  0.74998  0.62506  1.0000
  S   S77       1.0  0.16593  0.63921  0.85916  1.0000
  C   C362      1.0  0.04240  0.91273  0.76769  1.0000
  H   H633      1.0  0.38107  0.99701  0.62956  1.0000
  H   H634      1.0  0.39099  0.08508  0.68758  1.0000
  H   H635      1.0  0.33160  0.70534  0.62878  1.0000
  C   C363      1.0  0.47167  0.04848  0.78842  1.0000
  H   H636      1.0  0.26467  0.97239  0.78064  1.0000
  H   H637      1.0  0.18189  0.81031  0.64417  1.0000
  H   H638      1.0  0.04442  0.93440  0.78899  1.0000
  C   C364      1.0  0.50130  0.82748  0.63916  1.0000
  H   H639      1.0  0.16188  0.10245  0.74485  1.0000
  C   C365      1.0  0.17128  0.91306  0.73853  1.0000
  C   C366      1.0  0.32762  0.00205  0.61337  1.0000
  C   C367      1.0  0.12391  0.75047  0.74310  1.0000
  H   H640      1.0  0.35009  0.00848  0.74050  1.0000
  H   H641      1.0  0.23853  0.75170  0.75618  1.0000
  H   H642      1.0  0.39119  0.81131  0.61552  1.0000
  H   H643      1.0  0.06834  0.73766  0.67367  1.0000
  H   H644      1.0  0.10814  0.94072  0.70760  1.0000
  H   H645      1.0  0.47432  0.95284  0.63672  1.0000
  C   C368      1.0  0.27213  0.71432  0.62063  1.0000
  C   C369      1.0  0.35840  0.63778  0.77804  1.0000
  H   H646      1.0  0.19049  0.86496  0.79994  1.0000
  H   H647      1.0  0.14496  0.87243  0.76592  1.0000
  C   C370      1.0  0.53046  0.66845  0.69683  1.0000
  C   C371      1.0  0.06590  0.72767  0.71378  1.0000
  Fe  Fe35      1.0  0.08048  0.03456  0.79481  1.0000
  H   H648      1.0  0.30667  0.65692  0.76496  1.0000
  H   H649      1.0  0.38587  0.02971  0.67361  1.0000
  H   H650      1.0  0.04161  0.88165  0.64148  1.0000
  H   H651      1.0  0.39466  0.96369  0.70377  1.0000
  C   C372      1.0  0.51566  0.85577  0.64216  1.0000
  Fe  Fe36      1.0  0.43213  0.77955  0.75514  1.0000
  S   S78       1.0  0.33395  0.72227  0.77192  1.0000
  C   C373      1.0  0.28082  0.73818  0.76014  1.0000
  H   H652      1.0  0.25519  0.64038  0.70176  1.0000
  H   H653      1.0  0.47893  0.10497  0.64618  1.0000
  H   H654      1.0  0.38536  0.83666  0.83411  1.0000
  H   H655      1.0  0.17730  0.73408  0.77055  1.0000
  H   H656      1.0  0.11465  0.90184  0.71488  1.0000
  H   H657      1.0  0.37386  0.65094  0.64896  1.0000
  H   H658      1.0  0.34538  0.97418  0.70102  1.0000
  H   H659      1.0  0.44716  0.67914  0.63679  1.0000
  H   H660      1.0  0.22743  0.71175  0.62158  1.0000
  H   H661      1.0  0.30984  0.00251  0.78419  1.0000
  C   C374      1.0  0.50010  0.02626  0.62785  1.0000
  H   H662      1.0  0.12139  0.80717  0.79315  1.0000
  C   C375      1.0  0.36736  0.83528  0.80857  1.0000
  Fe  Fe37      1.0  0.25163  0.91863  0.64111  1.0000
  C   C376      1.0  0.29841  0.00147  0.69987  1.0000
  S   S79       1.0  0.46432  0.03411  0.63669  1.0000
  H   H663      1.0  0.27995  0.00893  0.68049  1.0000
  S   S80       1.0  0.05451  0.09441  0.63992  1.0000
  H   H664      1.0  0.45600  0.88919  0.65482  1.0000
  C   C377      1.0  0.17689  0.98126  0.77345  1.0000
  H   H665      1.0  0.11836  0.97838  0.81003  1.0000
  H   H666      1.0  0.19644  0.96870  0.77474  1.0000
  H   H667      1.0  0.20376  0.12155  0.76505  1.0000
  H   H668      1.0  0.46975  0.79745  0.67596  1.0000
  H   H669      1.0  0.43436  0.06229  0.83466  1.0000
  H   H670      1.0  0.35450  0.92601  0.83470  1.0000
  H   H671      1.0  0.18344  0.83552  0.75012  1.0000
  Fe  Fe38      1.0  0.05250  0.05899  0.70255  1.0000
  H   H672      1.0  0.18478  0.91737  0.70107  1.0000
  H   H673      1.0  0.06193  0.64069  0.76945  1.0000
  S   S81       1.0  0.04715  0.99749  0.80953  1.0000
  C   C378      1.0  0.21949  0.09526  0.69493  1.0000
  S   S82       1.0  0.28032  0.89659  0.69338  1.0000
  S   S83       1.0  0.11877  0.03800  0.84127  1.0000
  H   H674      1.0  0.53953  0.73467  0.69586  1.0000
  H   H675      1.0  0.11215  0.09194  0.73054  1.0000
  C   C379      1.0  0.26586  0.64388  0.73952  1.0000
  H   H676      1.0  0.10878  0.75627  0.85333  1.0000
  H   H677      1.0  0.52219  0.76704  0.67331  1.0000
  Fe  Fe39      1.0  0.30802  0.89102  0.61753  1.0000
  H   H678      1.0  0.45866  0.95663  0.80022  1.0000
  H   H679      1.0  0.15399  0.77499  0.68931  1.0000
  H   H680      1.0  0.26111  0.62369  0.76440  1.0000
  H   H681      1.0  0.07358  0.73775  0.79577  1.0000
  H   H682      1.0  0.30729  0.10150  0.71784  1.0000
  H   H683      1.0  0.25729  0.66418  0.76182  1.0000
  N   N22       1.0  0.32574  0.01304  0.67155  1.0000
  S   S84       1.0  0.04681  0.94482  0.67493  1.0000
  C   C380      1.0  0.18530  0.01400  0.75847  1.0000
  C   C381      1.0  0.16371  0.87823  0.73899  1.0000
  C   C382      1.0  0.15314  0.76594  0.72998  1.0000
  H   H684      1.0  0.51380  0.10058  0.66593  1.0000
  H   H685      1.0  0.51789  0.74866  0.78575  1.0000
  S   S85       1.0  0.40312  0.69835  0.72121  1.0000
  C   C383      1.0  0.13300  0.93171  0.79986  1.0000
  H   H686      1.0  0.42797  0.83893  0.65351  1.0000
  Fe  Fe40      1.0  0.42335  0.73216  0.66454  1.0000
  H   H687      1.0  0.42555  0.09567  0.65944  1.0000
  H   H688      1.0  0.09198  0.83350  0.62440  1.0000
  S   S86       1.0  0.45145  0.82598  0.77659  1.0000
  C   C384      1.0  0.37946  0.00510  0.67202  1.0000
  H   H689      1.0  0.27446  0.71692  0.77903  1.0000
  S   S87       1.0  0.41037  0.74984  0.81805  1.0000
  H   H690      1.0  0.40316  0.64086  0.79118  1.0000
  C   C385      1.0  0.10156  0.79300  0.79694  1.0000
  H   H691      1.0  0.15468  0.63232  0.74091  1.0000
  S   S88       1.0  0.10679  0.68038  0.80393  1.0000
  C   C386      1.0  0.39319  0.12173  0.63261  1.0000
  H   H692      1.0  0.15938  0.86982  0.69805  1.0000
  H   H693      1.0  0.27062  0.71041  0.66420  1.0000
  H   H694      1.0  0.17040  0.96632  0.69319  1.0000
  H   H695      1.0  0.42072  0.95247  0.80839  1.0000
  H   H696      1.0  0.48970  0.05862  0.76344  1.0000
  H   H697      1.0  0.32897  0.11050  0.65751  1.0000
  H   H698      1.0  0.48923  0.87963  0.76642  1.0000
  N   N23       1.0  0.41630  0.11043  0.77603  1.0000
  H   H699      1.0  0.13368  0.08347  0.67024  1.0000
  N   N24       1.0  0.52817  0.78708  0.83932  1.0000
  H   H700      1.0  0.39255  0.09060  0.84421  1.0000
  H   H701      1.0  0.09778  0.09972  0.84555  1.0000
  H   H702      1.0  0.42177  0.99038  0.67894  1.0000
  H   H703      1.0  0.17243  0.72362  0.70103  1.0000
  C   C387      1.0  0.52328  0.77360  0.78401  1.0000
  C   C388      1.0  0.34031  0.82515  0.84082  1.0000
  H   H704      1.0  0.24776  0.00620  0.76290  1.0000
  S   S89       1.0  0.45963  0.68235  0.82455  1.0000
  H   H705      1.0  0.47990  0.03772  0.82310  1.0000
  H   H706      1.0  0.15811  0.78452  0.75944  1.0000
  C   C389      1.0  0.51503  0.67916  0.78996  1.0000
  H   H707      1.0  0.22310  0.07113  0.76842  1.0000
  H   H708      1.0  0.25607  0.08543  0.73737  1.0000
  C   C390      1.0  0.32959  0.04733  0.67626  1.0000
  C   C391      1.0  0.11242  0.81974  0.69412  1.0000
  H   H709      1.0  0.32320  0.82409  0.81307  1.0000
  H   H710      1.0  0.52254  0.89656  0.69110  1.0000
  H   H711      1.0  0.19956  0.75991  0.62102  1.0000
  C   C392      1.0  0.41851  0.86017  0.64284  1.0000
  H   H712      1.0  0.37369  0.97864  0.81831  1.0000
  C   C393      1.0  0.30930  0.74637  0.75060  1.0000
  C   C394      1.0  0.29349  0.01100  0.76015  1.0000
  H   H713      1.0  0.52903  0.88306  0.85081  1.0000
  C   C395      1.0  0.07272  0.75131  0.75939  1.0000
  C   C396      1.0  0.30890  0.09945  0.67342  1.0000
  H   H714      1.0  0.45794  0.10148  0.73971  1.0000
  H   H715      1.0  0.17541  0.11727  0.64533  1.0000
  H   H716      1.0  0.18532  0.91860  0.77149  1.0000
  H   H717      1.0  0.30053  0.66753  0.69892  1.0000
  Fe  Fe41      1.0  0.04936  0.99015  0.72043  1.0000
  C   C397      1.0  0.53671  0.67615  0.74951  1.0000
  H   H718      1.0  0.13422  0.81946  0.70582  1.0000
  C   C398      1.0  0.39115  0.09206  0.80020  1.0000
  C   C399      1.0  0.29757  0.64879  0.72743  1.0000
  H   H719      1.0  0.09217  0.95103  0.78976  1.0000
  C   C400      1.0  0.50251  0.66408  0.68451  1.0000
  H   H720      1.0  0.29245  0.77814  0.84162  1.0000
  H   H721      1.0  0.12545  0.85277  0.63376  1.0000
  C   C401      1.0  0.40536  0.10476  0.67666  1.0000
  C   C402      1.0  0.09672  0.78805  0.69879  1.0000
  H   H722      1.0  0.42315  0.90859  0.66475  1.0000
  H   H723      1.0  0.20788  0.86691  0.73380  1.0000
  C   C403      1.0  0.43960  0.96431  0.82419  1.0000
  H   H724      1.0  0.12109  0.73306  0.71034  1.0000
  H   H725      1.0  0.31760  0.09129  0.81502  1.0000
  C   C404      1.0  0.30672  0.06605  0.65398  1.0000
  H   H726      1.0  0.12260  0.90884  0.80617  1.0000
  H   H727      1.0  0.36496  0.85821  0.79262  1.0000
  S   S90       1.0  0.23189  0.96317  0.66333  1.0000
  H   H728      1.0  0.50188  0.00783  0.70592  1.0000
  H   H729      1.0  0.39641  0.85963  0.66030  1.0000
  H   H730      1.0  0.39127  0.06787  0.78478  1.0000
  C   C405      1.0  0.43367  0.88707  0.67060  1.0000
  H   H731      1.0  0.45923  0.66361  0.71580  1.0000
  C   C406      1.0  0.07229  0.67407  0.83073  1.0000
  H   H732      1.0  0.47580  0.74650  0.83850  1.0000
  C   C407      1.0  0.15116  0.11926  0.72261  1.0000
  H   H733      1.0  0.43297  0.88337  0.71430  1.0000
  H   H734      1.0  0.30330  0.81648  0.69992  1.0000
  H   H735      1.0  0.34963  0.05516  0.65453  1.0000
  H   H736      1.0  0.43800  0.98922  0.81965  1.0000
  C   C408      1.0  0.13598  0.92233  0.64457  1.0000
  C   C409      1.0  0.11351  0.83056  0.63674  1.0000
  C   C410      1.0  0.50142  0.11177  0.63713  1.0000
  C   C411      1.0  0.48089  0.66721  0.72485  1.0000
  C   C412      1.0  0.12523  0.92424  0.70459  1.0000
  H   H737      1.0  0.23818  0.05232  0.70854  1.0000
  H   H738      1.0  0.19671  0.75460  0.71772  1.0000
  H   H739      1.0  0.07429  0.79258  0.69378  1.0000
  C   C413      1.0  0.49274  0.86494  0.73109  1.0000
  H   H740      1.0  0.33941  0.78106  0.72149  1.0000
  C   C414      1.0  0.33876  0.08450  0.82422  1.0000
  H   H741      1.0  0.26242  0.00485  0.82696  1.0000
  C   C415      1.0  0.18786  0.86038  0.75670  1.0000
  C   C416      1.0  0.51357  0.01332  0.66863  1.0000
  H   H742      1.0  0.09818  0.93768  0.61277  1.0000
  C   C417      1.0  0.12632  0.10220  0.69820  1.0000
  C   C418      1.0  0.23518  0.07480  0.72940  1.0000
  C   C419      1.0  0.36139  0.10288  0.79116  1.0000
  C   C420      1.0  0.38280  0.63439  0.81320  1.0000
  H   H743      1.0  0.37193  0.81900  0.77437  1.0000
  S   S91       1.0  0.24248  0.81148  0.71401  1.0000
  S   S92       1.0  0.45885  0.74265  0.71724  1.0000
  C   C421      1.0  0.26531  0.99774  0.78392  1.0000
  C   C422      1.0  0.11000  0.95483  0.81523  1.0000
  H   H744      1.0  0.34403  0.77657  0.83172  1.0000
  C   C423      1.0  0.43988  0.08909  0.76139  1.0000
  H   H745      1.0  0.43287  0.07037  0.73344  1.0000
  C   C424      1.0  0.05467  0.65229  0.80641  1.0000
  H   H746      1.0  0.50478  0.78385  0.76829  1.0000
  S   S93       1.0  0.04970  0.07101  0.79065  1.0000
  H   H747      1.0  0.08464  0.80967  0.79773  1.0000
  N   N25       1.0  0.14680  0.93369  0.74370  1.0000
  H   H748      1.0  0.19721  0.01430  0.71864  1.0000
  H   H749      1.0  0.07996  0.70823  0.71359  1.0000
  H   H750      1.0  0.40261  0.99857  0.74210  1.0000
  H   H751      1.0  0.23690  0.02401  0.62319  1.0000
  Fe  Fe42      1.0  0.37915  0.73727  0.75736  1.0000
  C   C425      1.0  0.26846  0.78628  0.72591  1.0000
  C   C426      1.0  0.26046  0.75799  0.74743  1.0000
  H   H752      1.0  0.10128  0.83694  0.72057  1.0000
  Fe  Fe43      1.0  0.43544  0.71280  0.77765  1.0000
  H   H753      1.0  0.34026  0.05962  0.81513  1.0000
  H   H754      1.0  0.19949  0.08288  0.68613  1.0000
  H   H755      1.0  0.46357  0.08987  0.83299  1.0000
  H   H756      1.0  0.09796  0.89694  0.62114  1.0000
  H   H757      1.0  0.51982  0.68592  0.83031  1.0000
  C   C427      1.0  0.51180  0.87442  0.68864  1.0000
  C   C428      1.0  0.04316  0.91138  0.71183  1.0000
  Fe  Fe44      1.0  0.25929  0.85203  0.66774  1.0000
  S   S94       1.0  0.39809  0.77083  0.69861  1.0000
  H   H758      1.0  0.33171  0.05463  0.71872  1.0000
  C   C429      1.0  0.31745  0.77435  0.72789  1.0000
  H   H759      1.0  0.34747  0.66969  0.68845  1.0000
  H   H760      1.0  0.46066  0.03053  0.76428  1.0000
  H   H761      1.0  0.14904  0.93414  0.83002  1.0000
  C   C430      1.0  0.13456  0.07418  0.85368  1.0000
  H   H762      1.0  0.29317  0.03621  0.76568  1.0000
  H   H763      1.0  0.10369  0.77364  0.66305  1.0000
  H   H764      1.0  0.12524  0.73733  0.77941  1.0000
  H   H765      1.0  0.23937  0.77588  0.84587  1.0000
  C   C431      1.0  0.09911  0.77867  0.85309  1.0000
  H   H766      1.0  0.35697  0.09959  0.74857  1.0000
  H   H767      1.0  0.13999  0.98093  0.72748  1.0000
  N   N26       1.0  0.09931  0.77098  0.74946  1.0000
  C   C432      1.0  0.45152  0.07311  0.80860  1.0000
  H   H768      1.0  0.05442  0.76612  0.76778  1.0000
  H   H769      1.0  0.14748  0.94358  0.63171  1.0000
  H   H770      1.0  0.35855  0.66183  0.76712  1.0000
  H   H771      1.0  0.16624  0.98228  0.81419  1.0000
  H   H772      1.0  0.35538  0.76685  0.61938  1.0000
  C   C433      1.0  0.47738  0.83705  0.72662  1.0000
  C   C434      1.0  0.53759  0.82018  0.83280  1.0000
  H   H773      1.0  0.15032  0.90334  0.63624  1.0000
  H   H774      1.0  0.28532  0.05718  0.66637  1.0000
  H   H775      1.0  0.48506  0.79942  0.85444  1.0000
  C   C435      1.0  0.35073  0.65019  0.65956  1.0000
  S   S95       1.0  0.08525  0.02447  0.70624  1.0000
  C   C436      1.0  0.40082  0.98837  0.70115  1.0000
  H   H776      1.0  0.16646  0.02779  0.75750  1.0000
  C   C437      1.0  0.11950  0.10083  0.85502  1.0000
  H   H777      1.0  0.52298  0.83133  0.80770  1.0000
  C   C438      1.0  0.48198  0.81838  0.68079  1.0000
  C   C439      1.0  0.15767  0.96582  0.73219  1.0000
  H   H778      1.0  0.29676  0.97601  0.69632  1.0000
  H   H779      1.0  0.33875  0.63276  0.80268  1.0000
  H   H780      1.0  0.11422  0.11799  0.67620  1.0000
  H   H781      1.0  0.29148  0.11199  0.65898  1.0000
  C   C440      1.0  0.29699  0.79440  0.71565  1.0000
  C   C441      1.0  0.34928  0.99942  0.69853  1.0000
  C   C442      1.0  0.36610  0.97246  0.85830  1.0000
  H   H782      1.0  0.07003  0.12281  0.73956  1.0000
  C   C443      1.0  0.28664  0.01597  0.96775  1.0000
  S   S96       1.0  0.17664  0.64976  0.98618  1.0000
  H   H783      1.0  0.07628  0.09099  0.06800  1.0000
  H   H784      1.0  0.42831  0.81983  0.97594  1.0000
  H   H785      1.0  0.36311  0.90582  0.03748  1.0000
  H   H786      1.0  0.31818  0.70205  0.06411  1.0000
  H   H787      1.0  0.52241  0.66427  0.03495  1.0000
  C   C444      1.0  0.40877  0.91016  0.03735  1.0000
  H   H788      1.0  0.09679  0.01296  0.03695  1.0000
  N   N27       1.0  0.14261  0.81866  0.10056  1.0000
  C   C445      1.0  0.17520  0.10360  0.88273  1.0000
  C   C446      1.0  0.15295  0.91121  0.98797  1.0000
  H   H789      1.0  0.18296  0.08190  0.98538  1.0000
  H   H790      1.0  0.53653  0.78266  0.07403  1.0000
  C   C447      1.0  0.23364  0.73294  0.05555  1.0000
  H   H791      1.0  0.12226  0.92576  0.05029  1.0000
  S   S97       1.0  0.06887  0.90799  0.01457  1.0000
  H   H792      1.0  0.29707  0.66370  0.89663  1.0000
  S   S98       1.0  0.23921  0.67895  0.89549  1.0000
  C   C448      1.0  0.18318  0.01743  0.97261  1.0000
  H   H793      1.0  0.34796  0.69561  0.89363  1.0000
  H   H794      1.0  0.24088  0.07166  0.00221  1.0000
  H   H795      1.0  0.17392  0.78991  0.94571  1.0000
  C   C449      1.0  0.25485  0.63321  0.03564  1.0000
  H   H796      1.0  0.40076  0.86333  0.95312  1.0000
  C   C450      1.0  0.28488  0.64316  0.88648  1.0000
  C   C451      1.0  0.34924  0.74012  0.93567  1.0000
  C   C452      1.0  0.50810  0.01669  0.05970  1.0000
  H   H797      1.0  0.11587  0.95266  0.90073  1.0000
  H   H798      1.0  0.39564  0.91406  0.95679  1.0000
  C   C453      1.0  0.34618  0.83157  0.03135  1.0000
  H   H799      1.0  0.44693  0.82055  0.91020  1.0000
  C   C454      1.0  0.50028  0.78493  0.87195  1.0000
  C   C455      1.0  0.34553  0.95653  0.96138  1.0000
  N   N28       1.0  0.31957  0.78442  0.90676  1.0000
  C   C456      1.0  0.04869  0.75431  0.06030  1.0000
  H   H800      1.0  0.38659  0.63020  0.01284  1.0000
  H   H801      1.0  0.35037  0.09263  0.99277  1.0000
  S   S99       1.0  0.04952  0.82749  0.95076  1.0000
  C   C457      1.0  0.54010  0.84046  0.88436  1.0000
  Fe  Fe45      1.0  0.44273  0.03757  0.04811  1.0000
  N   N29       1.0  0.25696  0.68520  0.08933  1.0000
  C   C458      1.0  0.42691  0.82564  0.93347  1.0000
  C   C459      1.0  0.49481  0.92573  0.94892  1.0000
  C   C460      1.0  0.21258  0.74145  0.01638  1.0000
  H   H802      1.0  0.34096  0.08881  0.86774  1.0000
  H   H803      1.0  0.33165  0.69563  0.96130  1.0000
  H   H804      1.0  0.10483  0.82253  0.89534  1.0000
  H   H805      1.0  0.34914  0.09794  0.08930  1.0000
  C   C461      1.0  0.44529  0.88003  0.94950  1.0000
  H   H806      1.0  0.23661  0.80881  0.89074  1.0000
  Fe  Fe46      1.0  0.24869  0.86400  0.05505  1.0000
  C   C462      1.0  0.27276  0.65867  0.06374  1.0000
  H   H807      1.0  0.50189  0.73496  0.88028  1.0000
  C   C463      1.0  0.36776  0.99391  0.90088  1.0000
  C   C464      1.0  0.51696  0.94578  0.97597  1.0000
  H   H808      1.0  0.07655  0.70618  0.89719  1.0000
  H   H809      1.0  0.26389  0.78340  0.95630  1.0000
  C   C465      1.0  0.49885  0.88295  0.08956  1.0000
  C   C466      1.0  0.33202  0.08188  0.01588  1.0000
  S   S100      1.0  0.50340  0.09655  0.91021  1.0000
  H   H810      1.0  0.52441  0.62601  0.86885  1.0000
  C   C467      1.0  0.05698  0.10163  0.08158  1.0000
  Fe  Fe47      1.0  0.19254  0.67066  0.90902  1.0000
  C   C468      1.0  0.15976  0.82645  0.00119  1.0000
  H   H811      1.0  0.13907  0.82782  0.98440  1.0000
  C   C469      1.0  0.06418  0.74631  0.01255  1.0000
  C   C470      1.0  0.06289  0.68934  0.87828  1.0000
  H   H812      1.0  0.12759  0.00261  0.95766  1.0000
  H   H813      1.0  0.28848  0.81317  0.87815  1.0000
  H   H814      1.0  0.31648  0.73706  0.88021  1.0000
  S   S101      1.0  0.11350  0.65388  0.94683  1.0000
  C   C471      1.0  0.44131  0.95791  0.88337  1.0000
  H   H815      1.0  0.07653  0.77513  0.86688  1.0000
  H   H816      1.0  0.41046  0.88509  0.03803  1.0000
  H   H817      1.0  0.05316  0.67463  0.04526  1.0000
  H   H818      1.0  0.18018  0.82787  0.92088  1.0000
  C   C472      1.0  0.45242  0.84181  0.08701  1.0000
  H   H819      1.0  0.15004  0.10984  0.08382  1.0000
  H   H820      1.0  0.13692  0.04136  0.94812  1.0000
  H   H821      1.0  0.52106  0.63570  0.08577  1.0000
  C   C473      1.0  0.10480  0.03256  0.01270  1.0000
  C   C474      1.0  0.25239  0.05127  0.00540  1.0000
  H   H822      1.0  0.35829  0.00284  0.98466  1.0000
  H   H823      1.0  0.30184  0.00916  0.93572  1.0000
  S   S102      1.0  0.25874  0.93355  0.96460  1.0000
  N   N30       1.0  0.44116  0.91388  0.94960  1.0000
  C   C475      1.0  0.05941  0.74959  0.10950  1.0000
  H   H824      1.0  0.21999  0.77244  0.90924  1.0000
  H   H825      1.0  0.33617  0.75427  0.06738  1.0000
  C   C476      1.0  0.40019  0.67496  0.04195  1.0000
  H   H826      1.0  0.18652  0.03682  0.94541  1.0000
  C   C477      1.0  0.46411  0.74994  0.92292  1.0000
  H   H827      1.0  0.13622  0.80124  0.88399  1.0000
  C   C478      1.0  0.34288  0.79367  0.86560  1.0000
  H   H828      1.0  0.46576  0.92229  0.01814  1.0000
  C   C479      1.0  0.53721  0.01323  0.05318  1.0000
  H   H829      1.0  0.17060  0.92128  0.00760  1.0000
  H   H830      1.0  0.20173  0.81499  0.97062  1.0000
  C   C480      1.0  0.26519  0.77501  0.91383  1.0000
  S   S103      1.0  0.39855  0.05234  0.04537  1.0000
  S   S104      1.0  0.25569  0.85955  0.96587  1.0000
  H   H831      1.0  0.47352  0.75575  0.96146  1.0000
  C   C481      1.0  0.35522  0.94272  0.86757  1.0000
  H   H832      1.0  0.45504  0.72616  0.92453  1.0000
  H   H833      1.0  0.04459  0.01045  0.09910  1.0000
  H   H834      1.0  0.16754  0.84985  0.01236  1.0000
  C   C482      1.0  0.34943  0.70524  0.93509  1.0000
  C   C483      1.0  0.15723  0.89638  0.93786  1.0000
  C   C484      1.0  0.51116  0.63085  0.90619  1.0000
  H   H835      1.0  0.41234  0.94732  0.98363  1.0000
  S   S105      1.0  0.16158  0.70787  0.91504  1.0000
  C   C485      1.0  0.18252  0.98808  0.93620  1.0000
  H   H836      1.0  0.16513  0.98802  0.90936  1.0000
  S   S106      1.0  0.53351  0.84434  0.02883  1.0000
  C   C486      1.0  0.23874  0.78371  0.88842  1.0000
  H   H837      1.0  0.49870  0.03351  0.03727  1.0000
  H   H838      1.0  0.08516  0.97170  0.88540  1.0000
  C   C487      1.0  0.18014  0.81391  0.95688  1.0000
  H   H839      1.0  0.36373  0.79354  0.88206  1.0000
  C   C488      1.0  0.28164  0.99808  0.01264  1.0000
  H   H840      1.0  0.14699  0.78338  0.03769  1.0000
  Fe  Fe48      1.0  0.46590  0.08115  0.96279  1.0000
  H   H841      1.0  0.29426  0.72413  0.03235  1.0000
  H   H842      1.0  0.30271  0.76785  0.09366  1.0000
  C   C489      1.0  0.12569  0.91402  0.01179  1.0000
  H   H843      1.0  0.25158  0.69650  0.00742  1.0000
  C   C490      1.0  0.41382  0.92209  0.97974  1.0000
  C   C491      1.0  0.32126  0.75086  0.91701  1.0000
  H   H844      1.0  0.30872  0.79088  0.99192  1.0000
  H   H845      1.0  0.17932  0.80056  0.05754  1.0000
  H   H846      1.0  0.26502  0.74966  0.91236  1.0000
  C   C492      1.0  0.09852  0.95221  0.87355  1.0000
  Fe  Fe49      1.0  0.28882  0.89705  0.97443  1.0000
  H   H847      1.0  0.08899  0.05988  0.95154  1.0000
  Fe  Fe50      1.0  0.14391  0.68472  0.98934  1.0000
  Fe  Fe51      1.0  0.25232  0.93365  0.05434  1.0000
  H   H848      1.0  0.10186  0.72592  0.97753  1.0000
  H   H849      1.0  0.29326  0.97777  0.01549  1.0000
  H   H850      1.0  0.45787  0.91301  0.86639  1.0000
  H   H851      1.0  0.10929  0.78968  0.93465  1.0000
  S   S107      1.0  0.19113  0.89388  0.90667  1.0000
  C   C493      1.0  0.08206  0.03992  0.97601  1.0000
  C   C494      1.0  0.16251  0.07577  0.86665  1.0000
  Fe  Fe52      1.0  0.40773  0.05051  0.95585  1.0000
  H   H852      1.0  0.19434  0.97603  0.04796  1.0000
  H   H853      1.0  0.43451  0.82583  0.08561  1.0000
  S   S108      1.0  0.33147  0.89739  0.93035  1.0000
  H   H854      1.0  0.49603  0.93153  0.90613  1.0000
  H   H855      1.0  0.33722  0.95050  0.00106  1.0000
  C   C495      1.0  0.30645  0.07901  0.10870  1.0000
  H   H856      1.0  0.28920  0.07055  0.08398  1.0000
  H   H857      1.0  0.22820  0.98595  0.92592  1.0000
  H   H858      1.0  0.21125  0.76660  0.01699  1.0000
  C   C496      1.0  0.16472  0.08114  0.01544  1.0000
  H   H859      1.0  0.17423  0.05526  0.86527  1.0000
  C   C497      1.0  0.38238  0.64858  0.04184  1.0000
  H   H860      1.0  0.44979  0.87297  0.99001  1.0000
  H   H861      1.0  0.23103  0.03880  0.08105  1.0000
  H   H862      1.0  0.46425  0.87409  0.92326  1.0000
  C   C498      1.0  0.44045  0.92310  0.89229  1.0000
  H   H863      1.0  0.40986  0.81109  0.91660  1.0000
  H   H864      1.0  0.41828  0.67673  0.01329  1.0000
  H   H865      1.0  0.15177  0.86747  0.09860  1.0000
  S   S109      1.0  0.27626  0.06180  0.90400  1.0000
  C   C499      1.0  0.32843  0.09699  0.07190  1.0000
  C   C500      1.0  0.16853  0.10844  0.05433  1.0000
  H   H866      1.0  0.36766  0.74803  0.90968  1.0000
  H   H867      1.0  0.41812  0.86338  0.88678  1.0000
  H   H868      1.0  0.36414  0.99336  0.07277  1.0000
  H   H869      1.0  0.06258  0.04578  0.00048  1.0000
  H   H870      1.0  0.42337  0.96875  0.90611  1.0000
  H   H871      1.0  0.22006  0.68526  0.04466  1.0000
  S   S110      1.0  0.13232  0.70970  0.06700  1.0000
  H   H872      1.0  0.24438  0.64244  0.00207  1.0000
  H   H873      1.0  0.13749  0.87198  0.87354  1.0000
  H   H874      1.0  0.44679  0.76526  0.91801  1.0000
  H   H875      1.0  0.20250  0.01759  0.99439  1.0000
  C   C501      1.0  0.42083  0.85926  0.92942  1.0000
  C   C502      1.0  0.20995  0.98585  0.90094  1.0000
  H   H876      1.0  0.33216  0.97359  0.09906  1.0000
  H   H877      1.0  0.36729  0.83975  0.04312  1.0000
  C   C503      1.0  0.35942  0.64597  0.07971  1.0000
  H   H878      1.0  0.51009  0.65596  0.91297  1.0000
  H   H879      1.0  0.50158  0.79453  0.91309  1.0000
  Fe  Fe53      1.0  0.22506  0.89656  0.96450  1.0000
  C   C504      1.0  0.08508  0.73581  0.11128  1.0000
  Fe  Fe54      1.0  0.41815  0.10006  0.04311  1.0000
  H   H880      1.0  0.42418  0.92123  0.06381  1.0000
  S   S111      1.0  0.42375  0.09936  0.95351  1.0000
  C   C505      1.0  0.31989  0.80354  0.95835  1.0000
  H   H881      1.0  0.18155  0.84607  0.10504  1.0000
  H   H882      1.0  0.36937  0.69813  0.94995  1.0000
  C   C506      1.0  0.46503  0.93024  0.97667  1.0000
  C   C507      1.0  0.11322  0.79940  0.89432  1.0000
  N   N31       1.0  0.15783  0.02198  0.01126  1.0000
  H   H883      1.0  0.30491  0.74360  0.94832  1.0000
  H   H884      1.0  0.17997  0.96738  0.96015  1.0000
  C   C508      1.0  0.10268  0.90188  0.98574  1.0000
  C   C509      1.0  0.48631  0.75236  0.87580  1.0000
  C   C510      1.0  0.26078  0.00548  0.05228  1.0000
  H   H885      1.0  0.36370  0.79684  0.97788  1.0000
  C   C511      1.0  0.47787  0.83481  0.05871  1.0000
  H   H886      1.0  0.51270  0.97027  0.97290  1.0000
  H   H887      1.0  0.21285  0.00539  0.87392  1.0000
  C   C512      1.0  0.15262  0.99545  0.04772  1.0000
  H   H888      1.0  0.19622  0.10407  0.89561  1.0000
  H   H889      1.0  0.33670  0.81576  0.06191  1.0000
  S   S112      1.0  0.38290  0.03049  0.88914  1.0000
  S   S113      1.0  0.23591  0.82177  0.09999  1.0000
  C   C513      1.0  0.34897  0.81537  0.97619  1.0000
  H   H890      1.0  0.52998  0.73324  0.95257  1.0000
  H   H891      1.0  0.07731  0.02004  0.94880  1.0000
  C   C514      1.0  0.13419  0.88369  0.91213  1.0000
  C   C515      1.0  0.27157  0.04211  0.96344  1.0000
  H   H892      1.0  0.46152  0.95513  0.98198  1.0000
  C   C516      1.0  0.35760  0.98591  0.95241  1.0000
  H   H893      1.0  0.10251  0.80509  0.07009  1.0000
  H   H894      1.0  0.35860  0.83229  0.94776  1.0000
  H   H895      1.0  0.21929  0.73346  0.97498  1.0000
  H   H896      1.0  0.14535  0.08443  0.99499  1.0000
  H   H897      1.0  0.33541  0.05710  0.01782  1.0000
  H   H898      1.0  0.33535  0.84269  0.87245  1.0000
  H   H899      1.0  0.35192  0.74839  0.97732  1.0000
  S   S114      1.0  0.45048  0.03236  0.95922  1.0000
  H   H900      1.0  0.14733  0.05229  0.07984  1.0000
  H   H901      1.0  0.05588  0.74993  0.97441  1.0000
  C   C517      1.0  0.53311  0.65567  0.06877  1.0000
  C   C518      1.0  0.17828  0.98610  0.07691  1.0000
  H   H902      1.0  0.14456  0.97497  0.02522  1.0000
  C   C519      1.0  0.10688  0.88622  0.93630  1.0000
  C   C520      1.0  0.11335  0.82588  0.08745  1.0000
  H   H903      1.0  0.52037  0.83994  0.91060  1.0000
  C   C521      1.0  0.34461  0.93482  0.91902  1.0000
  C   C522      1.0  0.30217  0.71949  0.07143  1.0000
  H   H904      1.0  0.50068  0.90168  0.95168  1.0000
  H   H905      1.0  0.06456  0.85672  0.08296  1.0000
  C   C523      1.0  0.29194  0.78850  0.88272  1.0000
  H   H906      1.0  0.31314  0.08505  0.99388  1.0000
  C   C524      1.0  0.09002  0.73251  0.01432  1.0000
  C   C525      1.0  0.39481  0.69883  0.07950  1.0000
  S   S115      1.0  0.41838  0.73060  0.08251  1.0000
  Fe  Fe55      1.0  0.26740  0.11127  0.90902  1.0000
  C   C526      1.0  0.13243  0.02449  0.97975  1.0000
  H   H907      1.0  0.08908  0.87717  0.91565  1.0000
  H   H908      1.0  0.30787  0.82448  0.95555  1.0000
  H   H909      1.0  0.19146  0.73101  0.02787  1.0000
  S   S116      1.0  0.21628  0.89912  0.05357  1.0000
  H   H910      1.0  0.46110  0.96921  0.89609  1.0000
  H   H911      1.0  0.18785  0.10656  0.07575  1.0000
  S   S117      1.0  0.46170  0.08517  0.05225  1.0000
  H   H912      1.0  0.47955  0.81329  0.03626  1.0000
  H   H913      1.0  0.33289  0.85162  0.03040  1.0000
  C   C527      1.0  0.24685  0.03274  0.04989  1.0000
  C   C528      1.0  0.16323  0.05062  0.04511  1.0000
  H   H914      1.0  0.11412  0.84341  0.05643  1.0000
  H   H915      1.0  0.32259  0.12067  0.06705  1.0000
  C   C529      1.0  0.15742  0.80561  0.05004  1.0000
  C   C530      1.0  0.24028  0.69867  0.04791  1.0000
  H   H916      1.0  0.13564  0.00061  0.07911  1.0000
  H   H917      1.0  0.25294  0.74763  0.04762  1.0000
  H   H918      1.0  0.28860  0.66660  0.03187  1.0000
  H   H919      1.0  0.37681  0.94217  0.06355  1.0000
  C   C531      1.0  0.37942  0.91721  0.06168  1.0000
  S   S118      1.0  0.28420  0.89878  0.06409  1.0000
  H   H920      1.0  0.51893  0.10864  0.07320  1.0000
  H   H921      1.0  0.10782  0.05269  0.03995  1.0000
  C   C532      1.0  0.50132  0.85502  0.06093  1.0000
  C   C533      1.0  0.10033  0.72709  0.06377  1.0000
  H   H922      1.0  0.18363  0.04973  0.06332  1.0000
  H   H923      1.0  0.28484  0.64792  0.09392  1.0000
  H   H924      1.0  0.18824  0.00590  0.09803  1.0000
  H   H925      1.0  0.07031  0.96378  0.07165  1.0000
  C   C534      1.0  0.31689  0.74853  0.09313  1.0000
  C   C535      1.0  0.54099  0.10160  0.06866  1.0000
  C   C536      1.0  0.25585  0.64423  0.88340  1.0000
  H   H926      1.0  0.33107  0.01160  0.07541  1.0000
  H   H927      1.0  0.22490  0.73897  0.09645  1.0000
  H   H928      1.0  0.37642  0.90870  0.10297  1.0000
  H   H929      1.0  0.53972  0.78932  0.94560  1.0000
  S   S119      1.0  0.45471  0.00121  0.10118  1.0000
  H   H930      1.0  0.20951  0.96427  0.87624  1.0000
  S   S120      1.0  0.25014  0.97863  0.10058  1.0000
  H   H931      1.0  0.16063  0.94136  0.10021  1.0000
  C   C537      1.0  0.27820  0.70777  0.11178  1.0000
  C   C538      1.0  0.34381  0.99609  0.09653  1.0000
  C   C539      1.0  0.49125  0.99789  0.09416  1.0000
  H   H932      1.0  0.51708  0.94019  0.01877  1.0000
  H   H933      1.0  0.08539  0.93081  0.87838  1.0000
  H   H934      1.0  0.51654  0.89914  0.08995  1.0000
  H   H935      1.0  0.53763  0.07850  0.99262  1.0000
  H   H936      1.0  0.44130  0.63309  0.08719  1.0000
  H   H937      1.0  0.53812  0.94170  0.95620  1.0000
  H   H938      1.0  0.05448  0.81921  0.10736  1.0000
  H   H939      1.0  0.42090  0.91348  0.87525  1.0000
  Fe  Fe56      1.0  0.13353  0.67419  0.87190  1.0000
  C   C540      1.0  0.04601  0.12295  0.04973  1.0000
  C   C541      1.0  0.21939  0.69553  0.16842  1.0000
  H   H940      1.0  0.39919  0.62647  0.22717  1.0000
  H   H941      1.0  0.25189  0.03546  0.27056  1.0000
  H   H942      1.0  0.33714  0.66569  0.26273  1.0000
  H   H943      1.0  0.39646  0.10070  0.32242  1.0000
  H   H944      1.0  0.09200  0.63888  0.17809  1.0000
  H   H945      1.0  0.09727  0.68101  0.27909  1.0000
  H   H946      1.0  0.04226  0.68770  0.11239  1.0000
  N   N32       1.0  0.52907  0.82154  0.25439  1.0000
  C   C542      1.0  0.30043  0.69028  0.25254  1.0000
  C   C543      1.0  0.41272  0.67144  0.20480  1.0000
  H   H947      1.0  0.37028  0.65497  0.31665  1.0000
  C   C544      1.0  0.53907  0.00874  0.23940  1.0000
  H   H948      1.0  0.45256  0.86561  0.24569  1.0000
  C   C545      1.0  0.29397  0.78867  0.21897  1.0000
  H   H949      1.0  0.49570  0.83820  0.21068  1.0000
  H   H950      1.0  0.40369  0.63151  0.15613  1.0000
  H   H951      1.0  0.39458  0.89938  0.28981  1.0000
  H   H952      1.0  0.05119  0.85249  0.15157  1.0000
  H   H953      1.0  0.30395  0.05770  0.20734  1.0000
  H   H954      1.0  0.47157  0.91117  0.14107  1.0000
  C   C546      1.0  0.31539  0.11792  0.18293  1.0000
  H   H955      1.0  0.08095  0.92681  0.22733  1.0000
  C   C547      1.0  0.53199  0.80840  0.30848  1.0000
  H   H956      1.0  0.35925  0.03242  0.14774  1.0000
  C   C548      1.0  0.16997  0.88699  0.19154  1.0000
  C   C549      1.0  0.44310  0.62553  0.19557  1.0000
  C   C550      1.0  0.53008  0.80304  0.15410  1.0000
  H   H957      1.0  0.26667  0.03729  0.14898  1.0000
  C   C551      1.0  0.14034  0.79407  0.14136  1.0000
  C   C552      1.0  0.48844  0.73595  0.34541  1.0000
  H   H958      1.0  0.52354  0.77489  0.22328  1.0000
  H   H959      1.0  0.09222  0.82370  0.16903  1.0000
  H   H960      1.0  0.35547  0.97906  0.34738  1.0000
  N   N33       1.0  0.05514  0.66234  0.26756  1.0000
  H   H961      1.0  0.33287  0.01711  0.26110  1.0000
  H   H962      1.0  0.15417  0.94708  0.33793  1.0000
  H   H963      1.0  0.50339  0.11721  0.28086  1.0000
  H   H964      1.0  0.10622  0.10484  0.16143  1.0000
  H   H965      1.0  0.13841  0.63926  0.21571  1.0000
  H   H966      1.0  0.29274  0.84141  0.12290  1.0000
  H   H967      1.0  0.41783  0.63526  0.31683  1.0000
  H   H968      1.0  0.10106  0.96534  0.14508  1.0000
  H   H969      1.0  0.14007  0.66044  0.15516  1.0000
  H   H970      1.0  0.13994  0.68069  0.21897  1.0000
  C   C553      1.0  0.50368  0.97611  0.12279  1.0000
  H   H971      1.0  0.24755  0.72410  0.35742  1.0000
  S   S121      1.0  0.04661  0.01439  0.28706  1.0000
  H   H972      1.0  0.49080  0.96195  0.15019  1.0000
  C   C554      1.0  0.53566  0.79650  0.21269  1.0000
  H   H973      1.0  0.21010  0.81416  0.26493  1.0000
  H   H974      1.0  0.36667  0.75239  0.34793  1.0000
  H   H975      1.0  0.09392  0.64036  0.27845  1.0000
  H   H976      1.0  0.53721  0.87138  0.32227  1.0000
  H   H977      1.0  0.05190  0.63426  0.33642  1.0000
  H   H978      1.0  0.44415  0.83603  0.29331  1.0000
  C   C555      1.0  0.31008  0.91493  0.19185  1.0000
  H   H979      1.0  0.31073  0.86534  0.25594  1.0000
  C   C556      1.0  0.42401  0.65254  0.34766  1.0000
  C   C557      1.0  0.08677  0.66088  0.25919  1.0000
  H   H980      1.0  0.39264  0.03577  0.28203  1.0000
  H   H981      1.0  0.33239  0.97691  0.26242  1.0000
  H   H982      1.0  0.31575  0.71481  0.34574  1.0000
  S   S122      1.0  0.39066  0.74689  0.23463  1.0000
  H   H983      1.0  0.40618  0.93272  0.32828  1.0000
  H   H984      1.0  0.24156  0.06065  0.18706  1.0000
  C   C558      1.0  0.49887  0.82939  0.25075  1.0000
  C   C559      1.0  0.46347  0.72996  0.26487  1.0000
  H   H985      1.0  0.26074  0.76315  0.35205  1.0000
  H   H986      1.0  0.20245  0.70261  0.14418  1.0000
  H   H987      1.0  0.33243  0.09109  0.24454  1.0000
  S   S123      1.0  0.51684  0.66200  0.26107  1.0000
  H   H988      1.0  0.32818  0.01148  0.17428  1.0000
  C   C560      1.0  0.08318  0.98072  0.14709  1.0000
  H   H989      1.0  0.45790  0.64108  0.17186  1.0000
  H   H990      1.0  0.44382  0.07240  0.18192  1.0000
  Fe  Fe57      1.0  0.40563  0.82903  0.18686  1.0000
  C   C561      1.0  0.25458  0.92384  0.34187  1.0000
  H   H991      1.0  0.44815  0.73739  0.23943  1.0000
  Fe  Fe58      1.0  0.36068  0.78425  0.23203  1.0000
  H   H992      1.0  0.38035  0.93223  0.21985  1.0000
  H   H993      1.0  0.15671  0.90395  0.17515  1.0000
  C   C562      1.0  0.06163  0.91789  0.24749  1.0000
  C   C563      1.0  0.35392  0.66993  0.11692  1.0000
  S   S124      1.0  0.09046  0.86768  0.26198  1.0000
  S   S125      1.0  0.41961  0.87550  0.15893  1.0000
  C   C564      1.0  0.25703  0.02470  0.23031  1.0000
  H   H994      1.0  0.05265  0.69569  0.20679  1.0000
  C   C565      1.0  0.16487  0.76131  0.20284  1.0000
  H   H995      1.0  0.50717  0.80322  0.14932  1.0000
  C   C566      1.0  0.25844  0.80988  0.14605  1.0000
  H   H996      1.0  0.19788  0.70143  0.33613  1.0000
  C   C567      1.0  0.40298  0.92338  0.28726  1.0000
  C   C568      1.0  0.06018  0.88853  0.26720  1.0000
  H   H997      1.0  0.30796  0.65816  0.31114  1.0000
  C   C569      1.0  0.09935  0.65986  0.20006  1.0000
  H   H998      1.0  0.52724  0.82498  0.34182  1.0000
  H   H999      1.0  0.05984  0.71179  0.27007  1.0000
  H   H1000     1.0  0.51599  0.78941  0.31533  1.0000
  H   H1001     1.0  0.19042  0.69659  0.23951  1.0000
  S   S126      1.0  0.44754  0.77647  0.33395  1.0000
  H   H1002     1.0  0.40843  0.03177  0.16016  1.0000
  C   C570      1.0  0.37632  0.67544  0.34151  1.0000
  H   H1003     1.0  0.30126  0.92885  0.16166  1.0000
  C   C571      1.0  0.23798  0.67269  0.13515  1.0000
  H   H1004     1.0  0.47513  0.69245  0.21128  1.0000
  C   C572      1.0  0.45029  0.86905  0.11768  1.0000
  C   C573      1.0  0.16804  0.77899  0.15131  1.0000
  H   H1005     1.0  0.29186  0.82579  0.31572  1.0000
  H   H1006     1.0  0.42816  0.07562  0.24956  1.0000
  H   H1007     1.0  0.37088  0.04716  0.23314  1.0000
  H   H1008     1.0  0.24018  0.87505  0.27073  1.0000
  H   H1009     1.0  0.36128  0.01982  0.34508  1.0000
  H   H1010     1.0  0.16971  0.89122  0.23557  1.0000
  H   H1011     1.0  0.04797  0.75682  0.14625  1.0000
  C   C574      1.0  0.50463  0.71104  0.32821  1.0000
  C   C575      1.0  0.26850  0.11161  0.14835  1.0000
  H   H1012     1.0  0.45847  0.96260  0.31804  1.0000
  H   H1013     1.0  0.18549  0.79629  0.15424  1.0000
  C   C576      1.0  0.04277  0.09364  0.13021  1.0000
  S   S127      1.0  0.05592  0.06476  0.16634  1.0000
  C   C577      1.0  0.32020  0.67625  0.28887  1.0000
  C   C578      1.0  0.47330  0.88997  0.11788  1.0000
  H   H1014     1.0  0.18474  0.75037  0.20909  1.0000
  H   H1015     1.0  0.36682  0.71506  0.14470  1.0000
  N   N34       1.0  0.37316  0.99807  0.23796  1.0000
  H   H1016     1.0  0.26791  0.72796  0.13075  1.0000
  H   H1017     1.0  0.53328  0.02039  0.27863  1.0000
  H   H1018     1.0  0.28297  0.70137  0.27654  1.0000
  H   H1019     1.0  0.27573  0.88185  0.20035  1.0000
  H   H1020     1.0  0.35682  0.96539  0.18013  1.0000
  C   C579      1.0  0.49919  0.69489  0.28055  1.0000
  C   C580      1.0  0.13141  0.66004  0.19755  1.0000
  H   H1021     1.0  0.42403  0.68342  0.17077  1.0000
  H   H1022     1.0  0.22111  0.67505  0.24602  1.0000
  C   C581      1.0  0.39459  0.11906  0.35399  1.0000
  S   S128      1.0  0.08565  0.78049  0.30777  1.0000
  C   C582      1.0  0.26162  0.04900  0.18801  1.0000
  H   H1023     1.0  0.28003  0.08342  0.24016  1.0000
  H   H1024     1.0  0.48934  0.84801  0.33336  1.0000
  H   H1025     1.0  0.15446  0.97175  0.15021  1.0000
  H   H1026     1.0  0.18873  0.95628  0.13868  1.0000
  C   C583      1.0  0.11207  0.12212  0.19264  1.0000
  C   C584      1.0  0.34732  0.00024  0.33303  1.0000
  H   H1027     1.0  0.51089  0.68739  0.12362  1.0000
  C   C585      1.0  0.30325  0.81257  0.18561  1.0000
  C   C586      1.0  0.26908  0.89557  0.35962  1.0000
  N   N35       1.0  0.29456  0.09534  0.15907  1.0000
  H   H1028     1.0  0.13676  0.85265  0.19850  1.0000
  C   C587      1.0  0.24914  0.78631  0.17995  1.0000
  C   C588      1.0  0.38637  0.03002  0.24082  1.0000
  H   H1029     1.0  0.25771  0.84065  0.25947  1.0000
  C   C589      1.0  0.28544  0.82325  0.14913  1.0000
  H   H1030     1.0  0.48506  0.80831  0.25496  1.0000
  H   H1031     1.0  0.15992  0.77710  0.23764  1.0000
  C   C590      1.0  0.20518  0.68064  0.21823  1.0000
  H   H1032     1.0  0.29123  0.67202  0.22646  1.0000
  H   H1033     1.0  0.19316  0.65933  0.20711  1.0000
  H   H1034     1.0  0.09087  0.00346  0.13279  1.0000
  H   H1035     1.0  0.23692  0.82144  0.34753  1.0000
  C   C591      1.0  0.42390  0.06936  0.20747  1.0000
  H   H1036     1.0  0.07507  0.98354  0.18947  1.0000
  C   C592      1.0  0.47523  0.94741  0.32755  1.0000
  C   C593      1.0  0.46781  0.74535  0.31364  1.0000
  H   H1037     1.0  0.38717  0.69139  0.31250  1.0000
  H   H1038     1.0  0.10207  0.86187  0.14663  1.0000
  H   H1039     1.0  0.19203  0.84870  0.28506  1.0000
  C   C594      1.0  0.15823  0.85467  0.17954  1.0000
  H   H1040     1.0  0.14598  0.03091  0.27593  1.0000
  H   H1041     1.0  0.17105  0.83864  0.19921  1.0000
  H   H1042     1.0  0.33620  0.66787  0.14630  1.0000
  Fe  Fe59      1.0  0.08908  0.83117  0.32158  1.0000
  C   C595      1.0  0.29003  0.84605  0.34361  1.0000
  H   H1043     1.0  0.18856  0.90942  0.35396  1.0000
  H   H1044     1.0  0.53297  0.02283  0.20658  1.0000
  H   H1045     1.0  0.49786  0.87650  0.28329  1.0000
  H   H1046     1.0  0.14785  0.74321  0.20079  1.0000
  H   H1047     1.0  0.10837  0.02506  0.28215  1.0000
  H   H1048     1.0  0.38774  0.98532  0.15623  1.0000
  S   S129      1.0  0.15918  0.74924  0.34036  1.0000
  C   C596      1.0  0.41295  0.03617  0.20253  1.0000
  H   H1049     1.0  0.52702  0.98650  0.23736  1.0000
  H   H1050     1.0  0.39755  0.73270  0.36174  1.0000
  H   H1051     1.0  0.54055  0.86187  0.20985  1.0000
  H   H1052     1.0  0.10421  0.96355  0.32760  1.0000
  H   H1053     1.0  0.19195  0.88997  0.17398  1.0000
  H   H1054     1.0  0.09364  0.67987  0.17835  1.0000
  C   C597      1.0  0.39313  0.97633  0.25825  1.0000
  C   C598      1.0  0.22842  0.84143  0.32953  1.0000
  H   H1055     1.0  0.40854  0.08486  0.19334  1.0000
  S   S130      1.0  0.38841  0.81972  0.27079  1.0000
  C   C599      1.0  0.53272  0.97240  0.11563  1.0000
  H   H1056     1.0  0.44783  0.87501  0.31640  1.0000
  H   H1057     1.0  0.34576  0.71663  0.30044  1.0000
  H   H1058     1.0  0.27074  0.91650  0.23877  1.0000
  H   H1059     1.0  0.42284  0.67833  0.24192  1.0000
  H   H1060     1.0  0.50328  0.10945  0.20968  1.0000
  H   H1061     1.0  0.17379  0.76255  0.11783  1.0000
  H   H1062     1.0  0.46983  0.92397  0.31248  1.0000
  H   H1063     1.0  0.32301  0.93037  0.21695  1.0000
  C   C600      1.0  0.28626  0.89929  0.22628  1.0000
  H   H1064     1.0  0.27008  0.93874  0.31867  1.0000
  H   H1065     1.0  0.05353  0.94426  0.12862  1.0000
  C   C601      1.0  0.33296  0.70082  0.32697  1.0000
  C   C602      1.0  0.13016  0.00480  0.34440  1.0000
  H   H1066     1.0  0.25072  0.66109  0.16320  1.0000
  C   C603      1.0  0.20329  0.82943  0.29943  1.0000
  H   H1067     1.0  0.28851  0.69738  0.14448  1.0000
  H   H1068     1.0  0.32367  0.89766  0.17083  1.0000
  H   H1069     1.0  0.13032  0.99396  0.25858  1.0000
  C   C604      1.0  0.12850  0.01413  0.28663  1.0000
  C   C605      1.0  0.45601  0.85790  0.28619  1.0000
  H   H1070     1.0  0.31690  0.05813  0.11852  1.0000
  C   C606      1.0  0.25105  0.85771  0.29148  1.0000
  H   H1071     1.0  0.39956  0.98422  0.29853  1.0000
  H   H1072     1.0  0.23922  0.00883  0.22021  1.0000
  H   H1073     1.0  0.36170  0.93987  0.28378  1.0000
  C   C607      1.0  0.09399  0.83872  0.13435  1.0000
  S   S131      1.0  0.37505  0.79669  0.14795  1.0000
  H   H1074     1.0  0.43019  0.02165  0.21184  1.0000
  C   C608      1.0  0.04722  0.69321  0.25032  1.0000
  C   C609      1.0  0.29782  0.88402  0.27455  1.0000
  C   C610      1.0  0.28599  0.07193  0.20079  1.0000
  H   H1075     1.0  0.44901  0.62940  0.23737  1.0000
  H   H1076     1.0  0.39067  0.67849  0.20949  1.0000
  S   S132      1.0  0.31630  0.77430  0.26299  1.0000
  C   C611      1.0  0.26675  0.77591  0.21677  1.0000
  C   C612      1.0  0.34007  0.10391  0.20856  1.0000
  N   N36       1.0  0.27664  0.87147  0.31699  1.0000
  Fe  Fe60      1.0  0.40714  0.76172  0.15318  1.0000
  C   C613      1.0  0.34903  0.00934  0.15225  1.0000
  H   H1077     1.0  0.23671  0.91747  0.31747  1.0000
  H   H1078     1.0  0.27603  0.01117  0.23132  1.0000
  C   C614      1.0  0.53285  0.68109  0.11226  1.0000
  H   H1079     1.0  0.25947  0.75753  0.24266  1.0000
  C   C615      1.0  0.47885  0.70452  0.24872  1.0000
  H   H1080     1.0  0.25722  0.11870  0.18708  1.0000
  C   C616      1.0  0.34550  0.99781  0.27150  1.0000
  C   C617      1.0  0.48717  0.85402  0.29141  1.0000
  Fe  Fe61      1.0  0.41982  0.78323  0.26734  1.0000
  H   H1081     1.0  0.41299  0.97618  0.23199  1.0000
  H   H1082     1.0  0.43694  0.67137  0.32845  1.0000
  H   H1083     1.0  0.32309  0.74538  0.13435  1.0000
  H   H1084     1.0  0.22340  0.75476  0.35785  1.0000
  H   H1085     1.0  0.31213  0.70740  0.22686  1.0000
  H   H1086     1.0  0.23157  0.71596  0.18248  1.0000
  H   H1087     1.0  0.22833  0.77592  0.17764  1.0000
  S   S133      1.0  0.43895  0.79486  0.18623  1.0000
  H   H1088     1.0  0.32407  0.82296  0.18805  1.0000
  H   H1089     1.0  0.49532  0.95566  0.30660  1.0000
  H   H1090     1.0  0.13073  0.80242  0.18052  1.0000
  C   C618      1.0  0.38236  0.94239  0.26076  1.0000
  H   H1091     1.0  0.35145  0.08834  0.17944  1.0000
  H   H1092     1.0  0.18849  0.81605  0.32682  1.0000
  H   H1093     1.0  0.53873  0.91267  0.25754  1.0000
  H   H1094     1.0  0.42347  0.92338  0.26308  1.0000
  H   H1095     1.0  0.31292  0.90053  0.29333  1.0000
  H   H1096     1.0  0.12579  0.77531  0.12856  1.0000
  H   H1097     1.0  0.09319  0.73208  0.14952  1.0000
  C   C619      1.0  0.36765  0.98831  0.18121  1.0000
  H   H1098     1.0  0.37772  0.11743  0.24607  1.0000
  H   H1099     1.0  0.22040  0.85733  0.36198  1.0000
  C   C620      1.0  0.41297  0.63699  0.19476  1.0000
  H   H1100     1.0  0.11840  0.10996  0.22759  1.0000
  H   H1101     1.0  0.33541  0.85858  0.33039  1.0000
  H   H1102     1.0  0.15141  0.99652  0.34801  1.0000
  H   H1103     1.0  0.30955  0.02604  0.35132  1.0000
  C   C621      1.0  0.37129  0.69657  0.11614  1.0000
  H   H1104     1.0  0.15443  0.89143  0.34624  1.0000
  Fe  Fe62      1.0  0.12168  0.77786  0.35931  1.0000
  H   H1105     1.0  0.30365  0.98491  0.35233  1.0000
  H   H1106     1.0  0.54007  0.82528  0.14189  1.0000
  H   H1107     1.0  0.52059  0.70365  0.35265  1.0000
  C   C622      1.0  0.16981  0.96243  0.11899  1.0000
  H   H1108     1.0  0.53231  0.75543  0.12628  1.0000
  C   C623      1.0  0.06423  0.84192  0.11783  1.0000
  C   C624      1.0  0.15889  0.84722  0.11848  1.0000
  C   C625      1.0  0.04705  0.65773  0.32619  1.0000
  H   H1109     1.0  0.25355  0.09592  0.12747  1.0000
  C   C626      1.0  0.06035  0.96689  0.11267  1.0000
  H   H1110     1.0  0.05955  0.70390  0.35697  1.0000
  C   C627      1.0  0.04212  0.63672  0.23397  1.0000
  H   H1111     1.0  0.22282  0.65492  0.12060  1.0000
  H   H1112     1.0  0.05659  0.95229  0.36205  1.0000
  C   C628      1.0  0.10635  0.98079  0.36112  1.0000
  H   H1113     1.0  0.11705  0.72001  0.41384  1.0000
  H   H1114     1.0  0.43707  0.64117  0.37505  1.0000
  C   C629      1.0  0.39399  0.85151  0.50074  1.0000
  H   H1115     1.0  0.36833  0.70795  0.44104  1.0000
  C   C630      1.0  0.13469  0.70568  0.40742  1.0000
  H   H1116     1.0  0.33451  0.90642  0.51050  1.0000
  H   H1117     1.0  0.21499  0.81369  0.60591  1.0000
  C   C631      1.0  0.46574  0.77895  0.53715  1.0000
  H   H1118     1.0  0.28556  0.99444  0.50433  1.0000
  H   H1119     1.0  0.05222  0.65127  0.43515  1.0000
  C   C632      1.0  0.47095  0.67752  0.45122  1.0000
  H   H1120     1.0  0.23288  0.96310  0.37688  1.0000
  H   H1121     1.0  0.39660  0.78557  0.40059  1.0000
  H   H1122     1.0  0.45437  0.81577  0.59141  1.0000
  C   C633      1.0  0.37739  0.74147  0.37943  1.0000
  C   C634      1.0  0.13414  0.67784  0.43323  1.0000
  C   C635      1.0  0.10330  0.07851  0.48012  1.0000
  S   S134      1.0  0.06043  0.83231  0.39639  1.0000
  C   C636      1.0  0.16348  0.82834  0.46931  1.0000
  H   H1123     1.0  0.14409  0.99346  0.43801  1.0000
  H   H1124     1.0  0.50462  0.81286  0.60372  1.0000
  H   H1125     1.0  0.16878  0.76441  0.58637  1.0000
  H   H1126     1.0  0.31950  0.87322  0.39302  1.0000
  S   S135      1.0  0.11514  0.85565  0.50622  1.0000
  C   C637      1.0  0.08659  0.07573  0.43659  1.0000
  H   H1127     1.0  0.12807  0.02577  0.37060  1.0000
  H   H1128     1.0  0.06866  0.97851  0.45153  1.0000
  C   C638      1.0  0.48739  0.93554  0.49965  1.0000
  C   C639      1.0  0.15389  0.93824  0.37881  1.0000
  H   H1129     1.0  0.06011  0.69106  0.45153  1.0000
  H   H1130     1.0  0.28785  0.62650  0.42999  1.0000
  H   H1131     1.0  0.51363  0.69195  0.46238  1.0000
  C   C640      1.0  0.24482  0.72701  0.60511  1.0000
  H   H1132     1.0  0.34360  0.01632  0.58965  1.0000
  S   S136      1.0  0.19785  0.09454  0.37950  1.0000
  C   C641      1.0  0.32102  0.10913  0.50928  1.0000
  H   H1133     1.0  0.20143  0.80805  0.43619  1.0000
  N   N37       1.0  0.21725  0.73386  0.52080  1.0000
  C   C642      1.0  0.04929  0.01854  0.56686  1.0000
  H   H1134     1.0  0.38884  0.64640  0.40464  1.0000
  C   C643      1.0  0.38443  0.76649  0.42057  1.0000
  C   C644      1.0  0.49492  0.94202  0.55843  1.0000
  H   H1135     1.0  0.49191  0.74786  0.38314  1.0000
  H   H1136     1.0  0.42841  0.78479  0.58987  1.0000
  H   H1137     1.0  0.47289  0.67979  0.40719  1.0000
  H   H1138     1.0  0.33241  0.76204  0.56586  1.0000
  C   C645      1.0  0.39815  0.66498  0.37921  1.0000
  H   H1139     1.0  0.45657  0.94142  0.40756  1.0000
  H   H1140     1.0  0.46269  0.69890  0.47021  1.0000
  C   C646      1.0  0.33441  0.66516  0.40183  1.0000
  C   C647      1.0  0.51194  0.64242  0.44479  1.0000
  H   H1141     1.0  0.38764  0.83301  0.47187  1.0000
  H   H1142     1.0  0.04370  0.99923  0.59362  1.0000
  H   H1143     1.0  0.19672  0.65202  0.38073  1.0000
  H   H1144     1.0  0.34644  0.65946  0.43617  1.0000
  H   H1145     1.0  0.33894  0.72696  0.42290  1.0000
  H   H1146     1.0  0.48980  0.90280  0.40472  1.0000
  N   N38       1.0  0.53680  0.63082  0.47028  1.0000
  H   H1147     1.0  0.18272  0.81934  0.57466  1.0000
  H   H1148     1.0  0.20100  0.73304  0.44248  1.0000
  H   H1149     1.0  0.47520  0.76552  0.56732  1.0000
  C   C648      1.0  0.38569  0.95996  0.47465  1.0000
  C   C649      1.0  0.46891  0.95031  0.59437  1.0000
  H   H1150     1.0  0.12433  0.81406  0.60840  1.0000
  C   C650      1.0  0.35820  0.71582  0.40575  1.0000
  C   C651      1.0  0.32975  0.82638  0.39279  1.0000
  H   H1151     1.0  0.18090  0.66098  0.60776  1.0000
  H   H1152     1.0  0.18542  0.63175  0.55558  1.0000
  H   H1153     1.0  0.41538  0.89800  0.39332  1.0000
  H   H1154     1.0  0.51666  0.92526  0.37159  1.0000
  H   H1155     1.0  0.37428  0.86299  0.51453  1.0000
  C   C652      1.0  0.12267  0.10328  0.48454  1.0000
  H   H1156     1.0  0.44579  0.82942  0.50116  1.0000
  H   H1157     1.0  0.51776  0.64794  0.40231  1.0000
  H   H1158     1.0  0.26933  0.65338  0.47408  1.0000
  H   H1159     1.0  0.45203  0.93224  0.59115  1.0000
  C   C653      1.0  0.35237  0.92223  0.51403  1.0000
  H   H1160     1.0  0.32035  0.00518  0.40608  1.0000
  H   H1161     1.0  0.20550  0.93505  0.57427  1.0000
  H   H1162     1.0  0.16736  0.95337  0.40368  1.0000
  C   C654      1.0  0.07893  0.95722  0.43676  1.0000
  H   H1163     1.0  0.40569  0.68412  0.40538  1.0000
  C   C655      1.0  0.21120  0.00046  0.50449  1.0000
  Fe  Fe63      1.0  0.25962  0.86930  0.55211  1.0000
  H   H1164     1.0  0.04321  0.62764  0.52526  1.0000
  H   H1165     1.0  0.34627  0.64362  0.57329  1.0000
  S   S137      1.0  0.39772  0.98275  0.42124  1.0000
  H   H1166     1.0  0.53776  0.91362  0.51204  1.0000
  H   H1167     1.0  0.30310  0.64114  0.49043  1.0000
  Fe  Fe64      1.0  0.09930  0.82645  0.43890  1.0000
  Fe  Fe65      1.0  0.21393  0.06496  0.44049  1.0000
  H   H1168     1.0  0.33235  0.64333  0.37793  1.0000
  N   N39       1.0  0.10841  0.96497  0.41333  1.0000
  H   H1169     1.0  0.45622  0.76273  0.50775  1.0000
  N   N40       1.0  0.51184  0.93414  0.45769  1.0000
  H   H1170     1.0  0.22720  0.70628  0.44839  1.0000
  C   C656      1.0  0.30474  0.67349  0.42606  1.0000
  H   H1171     1.0  0.30610  0.69354  0.45426  1.0000
  C   C657      1.0  0.04929  0.67503  0.42358  1.0000
  C   C658      1.0  0.38320  0.82144  0.58025  1.0000
  Fe  Fe66      1.0  0.05907  0.78117  0.38563  1.0000
  H   H1172     1.0  0.27648  0.83814  0.37869  1.0000
  C   C659      1.0  0.19470  0.71061  0.53985  1.0000
  H   H1173     1.0  0.25515  0.70931  0.52388  1.0000
  H   H1174     1.0  0.45581  0.65831  0.46143  1.0000
  H   H1175     1.0  0.40877  0.88530  0.57685  1.0000
  H   H1176     1.0  0.05724  0.00943  0.52708  1.0000
  H   H1177     1.0  0.33515  0.97830  0.60949  1.0000
  H   H1178     1.0  0.30948  0.06574  0.60954  1.0000
  S   S138      1.0  0.51748  0.07036  0.39695  1.0000
  Fe  Fe67      1.0  0.45069  0.04443  0.55603  1.0000
  H   H1179     1.0  0.31536  0.82119  0.42859  1.0000
  H   H1180     1.0  0.08690  0.99391  0.36301  1.0000
  H   H1181     1.0  0.50319  0.92140  0.57475  1.0000
  C   C660      1.0  0.34063  0.69083  0.59505  1.0000
  C   C661      1.0  0.52967  0.90865  0.47212  1.0000
  H   H1182     1.0  0.14052  0.95589  0.50726  1.0000
  H   H1183     1.0  0.33024  0.69532  0.55818  1.0000
  C   C662      1.0  0.12338  0.93552  0.40411  1.0000
  H   H1184     1.0  0.27610  0.69208  0.59940  1.0000
  H   H1185     1.0  0.16748  0.89667  0.41202  1.0000
  C   C663      1.0  0.51918  0.11023  0.39488  1.0000
  H   H1186     1.0  0.50823  0.10320  0.59616  1.0000
  H   H1187     1.0  0.49493  0.62423  0.44284  1.0000
  C   C664      1.0  0.15626  0.65824  0.42288  1.0000
  C   C665      1.0  0.17937  0.66696  0.38829  1.0000
  H   H1188     1.0  0.47313  0.95356  0.49068  1.0000
  Fe  Fe68      1.0  0.24598  0.11736  0.49303  1.0000
  H   H1189     1.0  0.26011  0.74917  0.53347  1.0000
  C   C666      1.0  0.40262  0.87933  0.41322  1.0000
  H   H1190     1.0  0.36483  0.77556  0.44017  1.0000
  C   C667      1.0  0.41308  0.87517  0.46845  1.0000
  H   H1191     1.0  0.41317  0.89772  0.49005  1.0000
  S   S139      1.0  0.25847  0.08343  0.42753  1.0000
  H   H1192     1.0  0.29081  0.67877  0.39452  1.0000
  H   H1193     1.0  0.39702  0.67647  0.50219  1.0000
  C   C668      1.0  0.05865  0.93987  0.39913  1.0000
  Fe  Fe69      1.0  0.42253  0.08950  0.49009  1.0000
  H   H1194     1.0  0.35191  0.93782  0.43343  1.0000
  H   H1195     1.0  0.39736  0.75721  0.45064  1.0000
  S   S140      1.0  0.46543  0.08833  0.51975  1.0000
  H   H1196     1.0  0.38830  0.10530  0.59949  1.0000
  Fe  Fe70      1.0  0.42170  0.02248  0.45706  1.0000
  S   S141      1.0  0.24643  0.84657  0.47609  1.0000
  H   H1197     1.0  0.26526  0.74616  0.44288  1.0000
  S   S142      1.0  0.20403  0.01438  0.44234  1.0000
  C   C669      1.0  0.40737  0.63257  0.52946  1.0000
  H   H1198     1.0  0.06595  0.91673  0.38761  1.0000
  H   H1199     1.0  0.38026  0.88541  0.41663  1.0000
  H   H1200     1.0  0.31897  0.01526  0.50694  1.0000
  C   C670      1.0  0.42196  0.68121  0.57024  1.0000
  C   C671      1.0  0.12242  0.98639  0.45302  1.0000
  H   H1201     1.0  0.11186  0.91974  0.37672  1.0000
  H   H1202     1.0  0.12337  0.92317  0.44216  1.0000
  H   H1203     1.0  0.39337  0.10836  0.39342  1.0000
  C   C672      1.0  0.36585  0.92486  0.56181  1.0000
  H   H1204     1.0  0.11084  0.00790  0.45806  1.0000
  C   C673      1.0  0.36241  0.93968  0.47025  1.0000
  H   H1205     1.0  0.17526  0.71328  0.51868  1.0000
  H   H1206     1.0  0.48264  0.97205  0.40089  1.0000
  C   C674      1.0  0.24397  0.75155  0.43212  1.0000
  C   C675      1.0  0.33661  0.65706  0.60785  1.0000
  C   C676      1.0  0.34502  0.77909  0.58891  1.0000
  Fe  Fe71      1.0  0.24130  0.11600  0.37275  1.0000
  C   C677      1.0  0.47756  0.94812  0.38809  1.0000
  C   C678      1.0  0.51527  0.03270  0.57934  1.0000
  H   H1207     1.0  0.51664  0.88693  0.47568  1.0000
  C   C679      1.0  0.08890  0.09804  0.39789  1.0000
  S   S143      1.0  0.46465  0.01640  0.48314  1.0000
  S   S144      1.0  0.43445  0.06465  0.41221  1.0000
  H   H1208     1.0  0.15919  0.65953  0.55144  1.0000
  C   C680      1.0  0.38960  0.94444  0.56543  1.0000
  C   C681      1.0  0.13552  0.99980  0.54763  1.0000
  H   H1209     1.0  0.33062  0.79566  0.60944  1.0000
  C   C682      1.0  0.22126  0.72989  0.46048  1.0000
  H   H1210     1.0  0.16091  0.89732  0.53578  1.0000
  C   C683      1.0  0.19266  0.80594  0.60407  1.0000
  Fe  Fe72      1.0  0.47647  0.06062  0.44471  1.0000
  C   C684      1.0  0.35022  0.10939  0.49645  1.0000
  H   H1211     1.0  0.41732  0.97777  0.52587  1.0000
  H   H1212     1.0  0.43518  0.86863  0.46216  1.0000
  H   H1213     1.0  0.24053  0.77584  0.44323  1.0000
  C   C685      1.0  0.16681  0.90699  0.37252  1.0000
  H   H1214     1.0  0.36745  0.83799  0.59665  1.0000
  H   H1215     1.0  0.50531  0.04307  0.54791  1.0000
  H   H1216     1.0  0.06642  0.03285  0.58406  1.0000
  H   H1217     1.0  0.51480  0.98339  0.47110  1.0000
  H   H1218     1.0  0.49630  0.67046  0.51588  1.0000
  C   C686      1.0  0.24319  0.94291  0.39046  1.0000
  H   H1219     1.0  0.41996  0.79988  0.49543  1.0000
  H   H1220     1.0  0.28807  0.90477  0.37873  1.0000
  H   H1221     1.0  0.40485  0.85804  0.38802  1.0000
  C   C687      1.0  0.22775  0.00891  0.59349  1.0000
  H   H1222     1.0  0.11610  0.67097  0.45949  1.0000
  C   C688      1.0  0.42871  0.81676  0.52461  1.0000
  H   H1223     1.0  0.13595  0.10500  0.51773  1.0000
  H   H1224     1.0  0.14016  0.99020  0.58614  1.0000
  C   C689      1.0  0.43577  0.66603  0.60752  1.0000
  C   C690      1.0  0.19124  0.77201  0.58842  1.0000
  H   H1225     1.0  0.08441  0.67526  0.36560  1.0000
  C   C691      1.0  0.19261  0.82735  0.45847  1.0000
  C   C692      1.0  0.39928  0.96229  0.52223  1.0000
  H   H1226     1.0  0.11913  0.01681  0.55600  1.0000
  H   H1227     1.0  0.10149  0.06138  0.51023  1.0000
  S   S145      1.0  0.28970  0.84459  0.59660  1.0000
  H   H1228     1.0  0.44189  0.86897  0.56640  1.0000
  H   H1229     1.0  0.35553  0.80444  0.51864  1.0000
  C   C693      1.0  0.31964  0.85347  0.36408  1.0000
  C   C694      1.0  0.41962  0.86386  0.58110  1.0000
  C   C695      1.0  0.44351  0.79923  0.56527  1.0000
  C   C696      1.0  0.24511  0.72966  0.54356  1.0000
  C   C697      1.0  0.12521  0.97425  0.50958  1.0000
  H   H1230     1.0  0.19552  0.95464  0.48620  1.0000
  H   H1231     1.0  0.07935  0.94255  0.47185  1.0000
  H   H1232     1.0  0.30782  0.08982  0.49703  1.0000
  C   C698      1.0  0.24384  0.74805  0.37117  1.0000
  C   C699      1.0  0.30005  0.00057  0.58409  1.0000
  S   S146      1.0  0.06362  0.04376  0.43053  1.0000
  H   H1233     1.0  0.40028  0.94613  0.60204  1.0000
  H   H1234     1.0  0.15015  0.80932  0.45649  1.0000
  H   H1235     1.0  0.15490  0.01164  0.53013  1.0000
  H   H1236     1.0  0.22736  0.92926  0.41540  1.0000
  C   C700      1.0  0.11124  0.91739  0.60940  1.0000
  H   H1237     1.0  0.47565  0.11405  0.42223  1.0000
  H   H1238     1.0  0.51086  0.96109  0.56173  1.0000
  H   H1239     1.0  0.28813  0.02144  0.59099  1.0000
  S   S147      1.0  0.09493  0.77539  0.43658  1.0000
  H   H1240     1.0  0.35109  0.83193  0.40601  1.0000
  S   S148      1.0  0.28044  0.91534  0.56641  1.0000
  C   C701      1.0  0.21047  0.95862  0.56531  1.0000
  H   H1241     1.0  0.47434  0.91378  0.49886  1.0000
  H   H1242     1.0  0.46098  0.97227  0.58268  1.0000
  C   C702      1.0  0.22222  0.97806  0.60389  1.0000
  C   C703      1.0  0.43487  0.63417  0.60700  1.0000
  H   H1243     1.0  0.26042  0.95110  0.41557  1.0000
  C   C704      1.0  0.30580  0.99584  0.52364  1.0000
  C   C705      1.0  0.18060  0.65607  0.56396  1.0000
  C   C706      1.0  0.15764  0.71427  0.37231  1.0000
  H   H1244     1.0  0.35946  0.09037  0.47398  1.0000
  H   H1245     1.0  0.25558  0.88534  0.39276  1.0000
  H   H1246     1.0  0.10490  0.96534  0.52818  1.0000
  C   C707      1.0  0.21019  0.85055  0.47878  1.0000
  H   H1247     1.0  0.31661  0.97427  0.51426  1.0000
  C   C708      1.0  0.22272  0.01997  0.54348  1.0000
  H   H1248     1.0  0.11883  0.91432  0.56682  1.0000
  S   S149      1.0  0.42063  0.72083  0.57660  1.0000
  C   C709      1.0  0.06172  0.67974  0.36635  1.0000
  C   C710      1.0  0.15178  0.85350  0.49732  1.0000
  C   C711      1.0  0.29048  0.64697  0.45708  1.0000
  C   C712      1.0  0.19865  0.87586  0.50597  1.0000
  N   N41       1.0  0.40663  0.83808  0.54755  1.0000
  H   H1249     1.0  0.22563  0.78271  0.52908  1.0000
  C   C713      1.0  0.49987  0.92626  0.40448  1.0000
  S   S150      1.0  0.20226  0.09720  0.50969  1.0000
  C   C714      1.0  0.16948  0.87739  0.51545  1.0000
  H   H1250     1.0  0.19282  0.77205  0.50350  1.0000
  C   C715      1.0  0.20482  0.96978  0.51571  1.0000
  H   H1251     1.0  0.20304  0.66898  0.49025  1.0000
  H   H1252     1.0  0.21243  0.89425  0.51948  1.0000
  H   H1253     1.0  0.48273  0.79305  0.51601  1.0000
  C   C716      1.0  0.20238  0.67662  0.53300  1.0000
  C   C717      1.0  0.49942  0.67177  0.47174  1.0000
  H   H1254     1.0  0.22817  0.04351  0.53496  1.0000
  S   S151      1.0  0.40648  0.04749  0.53307  1.0000
  C   C718      1.0  0.20750  0.76580  0.53331  1.0000
  H   H1255     1.0  0.38146  0.77777  0.53450  1.0000
  C   C719      1.0  0.40788  0.66460  0.53080  1.0000
  H   H1256     1.0  0.22303  0.67265  0.54814  1.0000
  C   C720      1.0  0.36694  0.79528  0.55098  1.0000
  H   H1257     1.0  0.52835  0.64488  0.55388  1.0000
  H   H1258     1.0  0.36326  0.69735  0.58850  1.0000
  H   H1259     1.0  0.18805  0.71448  0.58278  1.0000
  C   C721      1.0  0.52856  0.96429  0.45834  1.0000
  S   S152      1.0  0.53584  0.86802  0.58490  1.0000
  H   H1260     1.0  0.52953  0.98056  0.37604  1.0000
  H   H1261     1.0  0.28626  0.98110  0.59866  1.0000
  H   H1262     1.0  0.31377  0.65095  0.61154  1.0000
  H   H1263     1.0  0.07655  0.09564  0.36363  1.0000
  N   N42       1.0  0.35045  0.68927  0.36897  1.0000
  C   C722      1.0  0.10789  0.12315  0.40290  1.0000
  H   H1264     1.0  0.33079  0.80583  0.36549  1.0000
  S   S153      1.0  0.12790  0.82861  0.36424  1.0000
  C   C723      1.0  0.52933  0.62366  0.52818  1.0000
  H   H1265     1.0  0.28994  0.73093  0.61137  1.0000
  C   C724      1.0  0.18004  0.69490  0.36302  1.0000
  C   C725      1.0  0.31837  0.00432  0.36217  1.0000
  C   C726      1.0  0.69528  0.53464  0.68094  1.0000
  H   H1266     1.0  0.87019  0.51320  0.85703  1.0000
  H   H1267     1.0  0.99945  0.44421  0.73693  1.0000
  H   H1268     1.0  0.75207  0.54815  0.67295  1.0000
  C   C727      1.0  0.96957  0.47405  0.67109  1.0000
  S   S154      1.0  0.59441  0.18747  0.69392  1.0000
  C   C728      1.0  0.84040  0.54778  0.84613  1.0000
  H   H1269     1.0  0.92902  0.12723  0.81588  1.0000
  H   H1270     1.0  0.88191  0.40866  0.66082  1.0000
  H   H1271     1.0  0.96796  0.15194  0.77406  1.0000
  C   C729      1.0  0.64412  0.17457  0.63950  1.0000
  H   H1272     1.0  0.04023  0.45371  0.78018  1.0000
  Fe  Fe73      1.0  0.58311  0.23003  0.74109  1.0000
  H   H1273     1.0  0.61185  0.57746  0.69187  1.0000
  C   C730      1.0  0.97300  0.13065  0.79312  1.0000
  C   C731      1.0  0.64068  0.39263  0.68238  1.0000
  H   H1274     1.0  0.84195  0.13909  0.67745  1.0000
  C   C732      1.0  0.92592  0.14136  0.62682  1.0000
  H   H1275     1.0  0.60219  0.41460  0.82926  1.0000
  C   C733      1.0  0.79311  0.55864  0.78207  1.0000
  H   H1276     1.0  0.74639  0.49881  0.61630  1.0000
  H   H1277     1.0  0.83622  0.19207  0.72161  1.0000
  H   H1278     1.0  0.60948  0.23989  0.62984  1.0000
  C   C734      1.0  0.62323  0.19577  0.64888  1.0000
  H   H1279     1.0  0.61676  0.54474  0.81340  1.0000
  H   H1280     1.0  0.68772  0.22864  0.68154  1.0000
  C   C735      1.0  0.58926  0.13130  0.81581  1.0000
  H   H1281     1.0  0.74823  0.55105  0.77224  1.0000
  H   H1282     1.0  0.88611  0.36979  0.67978  1.0000
  H   H1283     1.0  0.78951  0.55491  0.67205  1.0000
  H   H1284     1.0  0.79323  0.53365  0.78854  1.0000
  C   C736      1.0  0.89971  0.33136  0.80414  1.0000
  C   C737      1.0  0.85104  0.54315  0.64567  1.0000
  C   C738      1.0  0.56572  0.50268  0.70285  1.0000
  C   C739      1.0  0.74200  0.30447  0.67767  1.0000
  S   S155      1.0  0.01304  0.21155  0.76646  1.0000
  C   C740      1.0  0.85004  0.31732  0.81186  1.0000
  C   C741      1.0  0.03891  0.34990  0.84283  1.0000
  H   H1285     1.0  0.96092  0.15460  0.67461  1.0000
  H   H1286     1.0  0.61254  0.42568  0.65768  1.0000
  N   N43       1.0  0.57495  0.55947  0.73722  1.0000
  C   C742      1.0  0.58875  0.57671  0.69063  1.0000
  C   C743      1.0  0.95732  0.14498  0.63397  1.0000
  H   H1287     1.0  0.59477  0.54310  0.62446  1.0000
  Fe  Fe74      1.0  0.74573  0.14065  0.63681  1.0000
  H   H1288     1.0  0.67421  0.14576  0.79595  1.0000
  C   C744      1.0  0.03502  0.33588  0.68811  1.0000
  H   H1289     1.0  0.69981  0.30747  0.76044  1.0000
  H   H1290     1.0  0.01570  0.45404  0.61907  1.0000
  H   H1291     1.0  0.60463  0.13889  0.78293  1.0000
  H   H1292     1.0  0.65860  0.38020  0.66276  1.0000
  H   H1293     1.0  0.77317  0.52062  0.70037  1.0000
  H   H1294     1.0  0.65313  0.31812  0.80459  1.0000
  H   H1295     1.0  0.58327  0.60113  0.69413  1.0000
  H   H1296     1.0  0.56570  0.50821  0.66026  1.0000
  N   N44       1.0  0.64836  0.38491  0.78204  1.0000
  H   H1297     1.0  0.62590  0.61361  0.83447  1.0000
  H   H1298     1.0  0.91708  0.12652  0.70734  1.0000
  H   H1299     1.0  0.97994  0.53497  0.70820  1.0000
  C   C745      1.0  0.86529  0.56622  0.67456  1.0000
  Fe  Fe75      1.0  0.82130  0.42098  0.79130  1.0000
  H   H1300     1.0  0.66691  0.20416  0.80478  1.0000
  H   H1301     1.0  0.54961  0.39622  0.67343  1.0000
  H   H1302     1.0  0.57915  0.15179  0.83432  1.0000
  H   H1303     1.0  0.91034  0.60907  0.62451  1.0000
  H   H1304     1.0  0.99134  0.48243  0.67900  1.0000
  H   H1305     1.0  0.54355  0.50087  0.71952  1.0000
  S   S156      1.0  0.67717  0.61862  0.74253  1.0000
  S   S157      1.0  0.88475  0.27097  0.78299  1.0000
  H   H1306     1.0  0.97948  0.22303  0.85970  1.0000
  H   H1307     1.0  0.96222  0.53386  0.64659  1.0000
  S   S158      1.0  0.76533  0.45140  0.70535  1.0000
  H   H1308     1.0  0.68257  0.25615  0.79576  1.0000
  C   C746      1.0  0.77074  0.54539  0.69558  1.0000
  H   H1309     1.0  0.74177  0.25558  0.66527  1.0000
  H   H1310     1.0  0.99322  0.13559  0.81101  1.0000
  H   H1311     1.0  0.62225  0.37640  0.68666  1.0000
  C   C747      1.0  0.86505  0.14349  0.67622  1.0000
  H   H1312     1.0  0.78357  0.16820  0.75511  1.0000
  C   C748      1.0  0.58310  0.56416  0.63380  1.0000
  C   C749      1.0  0.86907  0.50523  0.69999  1.0000
  H   H1313     1.0  0.93041  0.39120  0.63644  1.0000
  C   C750      1.0  0.85894  0.19354  0.72821  1.0000
  S   S159      1.0  0.73029  0.18756  0.65304  1.0000
  Fe  Fe76      1.0  0.77114  0.46200  0.79185  1.0000
  S   S160      1.0  0.57882  0.22734  0.82990  1.0000
  C   C751      1.0  0.95966  0.52990  0.69021  1.0000
  S   S161      1.0  0.54235  0.25253  0.73682  1.0000
  S   S162      1.0  0.00177  0.33968  0.66392  1.0000
  H   H1314     1.0  0.64269  0.15353  0.66089  1.0000
  C   C752      1.0  0.01929  0.17472  0.67626  1.0000
  H   H1315     1.0  0.96861  0.62254  0.69394  1.0000
  C   C753      1.0  0.02686  0.48254  0.84782  1.0000
  H   H1316     1.0  0.79673  0.62073  0.74996  1.0000
  H   H1317     1.0  0.01228  0.40416  0.79921  1.0000
  H   H1318     1.0  0.87045  0.48163  0.71015  1.0000
  C   C754      1.0  0.93372  0.43275  0.68851  1.0000
  H   H1319     1.0  0.86997  0.15900  0.64248  1.0000
  Fe  Fe77      1.0  0.77522  0.20357  0.64768  1.0000
  H   H1320     1.0  0.02792  0.58252  0.64429  1.0000
  H   H1321     1.0  0.89604  0.52239  0.76029  1.0000
  Fe  Fe78      1.0  0.94811  0.23833  0.62534  1.0000
  S   S163      1.0  0.60949  0.27357  0.74392  1.0000
  Fe  Fe79      1.0  0.98145  0.23542  0.72400  1.0000
  Fe  Fe80      1.0  0.92481  0.26504  0.73202  1.0000
  H   H1322     1.0  0.98543  0.42278  0.84230  1.0000
  C   C755      1.0  0.57748  0.47107  0.70572  1.0000
  H   H1323     1.0  0.71484  0.24682  0.75728  1.0000
  H   H1324     1.0  0.61291  0.35442  0.76320  1.0000
  C   C756      1.0  0.78689  0.17672  0.79649  1.0000
  H   H1325     1.0  0.70735  0.51585  0.69133  1.0000
  C   C757      1.0  0.02920  0.14887  0.64751  1.0000
  H   H1326     1.0  0.02900  0.54657  0.71741  1.0000
  H   H1327     1.0  0.79483  0.34785  0.73009  1.0000
  C   C758      1.0  0.77951  0.27308  0.69983  1.0000
  S   S164      1.0  0.97269  0.58166  0.80519  1.0000
  S   S165      1.0  0.93825  0.21804  0.70573  1.0000
  C   C759      1.0  0.78319  0.32789  0.71576  1.0000
  C   C760      1.0  0.79442  0.29914  0.71764  1.0000
  H   H1328     1.0  0.97844  0.38736  0.73562  1.0000
  H   H1329     1.0  0.93394  0.38291  0.70437  1.0000
  H   H1330     1.0  0.66423  0.46949  0.74280  1.0000
  C   C761      1.0  0.84376  0.34795  0.82190  1.0000
  N   N45       1.0  0.70890  0.20072  0.83120  1.0000
  H   H1331     1.0  0.92355  0.44070  0.72786  1.0000
  Fe  Fe81      1.0  0.97580  0.29626  0.67446  1.0000
  C   C762      1.0  0.92444  0.39864  0.67838  1.0000
  H   H1332     1.0  0.66021  0.34646  0.72958  1.0000
  H   H1333     1.0  0.96766  0.47651  0.62736  1.0000
  C   C763      1.0  0.85269  0.51269  0.65882  1.0000
  C   C764      1.0  0.58317  0.52658  0.73553  1.0000
  Fe  Fe82      1.0  0.60167  0.27301  0.83318  1.0000
  C   C765      1.0  0.67709  0.24174  0.71513  1.0000
  H   H1334     1.0  0.56080  0.12459  0.68132  1.0000
  N   N46       1.0  0.79487  0.57652  0.83484  1.0000
  C   C766      1.0  0.61566  0.56840  0.80035  1.0000
  H   H1335     1.0  0.80081  0.16097  0.81420  1.0000
  H   H1336     1.0  0.70592  0.44552  0.62173  1.0000
  H   H1337     1.0  0.58411  0.60015  0.78627  1.0000
  Fe  Fe83      1.0  0.92618  0.57252  0.81496  1.0000
  S   S166      1.0  0.81877  0.40721  0.70441  1.0000
  H   H1338     1.0  0.60042  0.47213  0.69431  1.0000
  S   S167      1.0  0.77503  0.41312  0.81279  1.0000
  H   H1339     1.0  0.83842  0.33391  0.64877  1.0000
  S   S168      1.0  0.74327  0.36649  0.69121  1.0000
  H   H1340     1.0  0.75190  0.59153  0.83692  1.0000
  H   H1341     1.0  0.83829  0.54891  0.61397  1.0000
  H   H1342     1.0  0.64760  0.58391  0.85302  1.0000
  H   H1343     1.0  0.72137  0.30647  0.66368  1.0000
  C   C767      1.0  0.75706  0.33059  0.69539  1.0000
  H   H1344     1.0  0.92130  0.32510  0.79657  1.0000
  H   H1345     1.0  0.62866  0.30784  0.62382  1.0000
  C   C768      1.0  0.61904  0.37147  0.79466  1.0000
  Fe  Fe84      1.0  0.81201  0.45641  0.69258  1.0000
  C   C769      1.0  0.62545  0.22327  0.62211  1.0000
  C   C770      1.0  0.59569  0.39505  0.80304  1.0000
  H   H1346     1.0  0.91706  0.16423  0.63302  1.0000
  H   H1347     1.0  0.00505  0.18915  0.65872  1.0000
  H   H1348     1.0  0.71148  0.14373  0.78261  1.0000
  H   H1349     1.0  0.94202  0.18485  0.82628  1.0000
  H   H1350     1.0  0.83946  0.53793  0.80503  1.0000
  S   S169      1.0  0.00625  0.50378  0.80850  1.0000
  C   C771      1.0  0.64892  0.40675  0.73704  1.0000
  C   C772      1.0  0.65374  0.49367  0.81733  1.0000
  H   H1351     1.0  0.58094  0.51787  0.77687  1.0000
  C   C773      1.0  0.65770  0.40239  0.83139  1.0000
  C   C774      1.0  0.98004  0.42186  0.64222  1.0000
  H   H1352     1.0  0.94416  0.54580  0.70904  1.0000
  H   H1353     1.0  0.02371  0.42587  0.66538  1.0000
  C   C775      1.0  0.89259  0.39413  0.68749  1.0000
  H   H1354     1.0  0.56044  0.55932  0.62940  1.0000
  H   H1355     1.0  0.91385  0.53630  0.61227  1.0000
  H   H1356     1.0  0.76247  0.58594  0.74408  1.0000
  C   C776      1.0  0.97232  0.40605  0.76436  1.0000
  H   H1357     1.0  0.98408  0.38178  0.83192  1.0000
  H   H1358     1.0  0.94543  0.23856  0.85590  1.0000
  H   H1359     1.0  0.65512  0.23258  0.72176  1.0000
  H   H1360     1.0  0.74900  0.22268  0.80412  1.0000
  H   H1361     1.0  0.83323  0.30007  0.81085  1.0000
  S   S170      1.0  0.61828  0.48073  0.82221  1.0000
  C   C777      1.0  0.56829  0.38121  0.82898  1.0000
  S   S171      1.0  0.83276  0.48416  0.62652  1.0000
  C   C778      1.0  0.73858  0.19940  0.80533  1.0000
  H   H1362     1.0  0.83169  0.60351  0.80649  1.0000
  H   H1363     1.0  0.86330  0.58973  0.66521  1.0000
  H   H1364     1.0  0.68879  0.36925  0.75108  1.0000
  C   C779      1.0  0.66582  0.55691  0.62022  1.0000
  H   H1365     1.0  0.73825  0.19181  0.76263  1.0000
  H   H1366     1.0  0.71525  0.47226  0.75363  1.0000
  C   C780      1.0  0.69431  0.14386  0.81499  1.0000
  H   H1367     1.0  0.56706  0.45458  0.67808  1.0000
  H   H1368     1.0  0.94755  0.49410  0.74438  1.0000
  S   S172      1.0  0.99252  0.25214  0.64184  1.0000
  C   C781      1.0  0.88179  0.55881  0.71565  1.0000
  H   H1369     1.0  0.96720  0.45401  0.76962  1.0000
  N   N47       1.0  0.96492  0.44095  0.68574  1.0000
  H   H1370     1.0  0.65415  0.60245  0.64133  1.0000
  S   S173      1.0  0.79364  0.23745  0.70459  1.0000
  H   H1371     1.0  0.97827  0.39734  0.65138  1.0000
  H   H1372     1.0  0.64949  0.43639  0.64379  1.0000
  H   H1373     1.0  0.92822  0.49381  0.68563  1.0000
  S   S174      1.0  0.96712  0.28035  0.75782  1.0000
  C   C782      1.0  0.68982  0.40913  0.83338  1.0000
  H   H1374     1.0  0.81502  0.29705  0.73155  1.0000
  H   H1375     1.0  0.82211  0.35431  0.82781  1.0000
  H   H1376     1.0  0.59107  0.40388  0.76380  1.0000
  H   H1377     1.0  0.89311  0.16484  0.73537  1.0000
  S   S175      1.0  0.81750  0.47063  0.77782  1.0000
  C   C783      1.0  0.75338  0.27570  0.67921  1.0000
  S   S176      1.0  0.90006  0.58796  0.75033  1.0000
  H   H1378     1.0  0.79770  0.19959  0.79483  1.0000
  H   H1379     1.0  0.67039  0.41736  0.72961  1.0000
  H   H1380     1.0  0.75025  0.15398  0.83057  1.0000
  H   H1381     1.0  0.92364  0.44499  0.65755  1.0000
  S   S177      1.0  0.93212  0.28450  0.65018  1.0000
  Fe  Fe85      1.0  0.77216  0.40306  0.72463  1.0000
  C   C784      1.0  0.54339  0.56067  0.73992  1.0000
  C   C785      1.0  0.81038  0.60688  0.82653  1.0000
  H   H1382     1.0  0.02696  0.28911  0.71025  1.0000
  H   H1383     1.0  0.85941  0.14997  0.76344  1.0000
  H   H1384     1.0  0.57391  0.46257  0.74698  1.0000
  H   H1385     1.0  0.70556  0.40888  0.65078  1.0000
  C   C786      1.0  0.69242  0.23974  0.76605  1.0000
  H   H1386     1.0  0.86178  0.20600  0.76693  1.0000
  Fe  Fe86      1.0  0.97633  0.53774  0.84682  1.0000
  H   H1387     1.0  0.63076  0.57121  0.76514  1.0000
  H   H1388     1.0  0.67685  0.26589  0.70355  1.0000
  S   S178      1.0  0.92987  0.52679  0.85033  1.0000
  H   H1389     1.0  0.91026  0.37899  0.82053  1.0000
  C   C787      1.0  0.89350  0.36179  0.81758  1.0000
  C   C788      1.0  0.69347  0.56080  0.71485  1.0000
  C   C789      1.0  0.02704  0.18113  0.72833  1.0000
  S   S179      1.0  0.56742  0.33680  0.69489  1.0000
  C   C790      1.0  0.87049  0.16166  0.72890  1.0000
  H   H1390     1.0  0.66885  0.34554  0.84926  1.0000
  C   C791      1.0  0.71181  0.49975  0.82661  1.0000
  C   C792      1.0  0.67225  0.48167  0.77696  1.0000
  C   C793      1.0  0.58513  0.57487  0.78785  1.0000
  H   H1391     1.0  0.61849  0.35800  0.83127  1.0000
  S   S180      1.0  0.79089  0.15645  0.63849  1.0000
  C   C794      1.0  0.69838  0.32003  0.79968  1.0000
  H   H1392     1.0  0.63527  0.42615  0.74844  1.0000
  C   C795      1.0  0.88365  0.52829  0.72830  1.0000
  H   H1393     1.0  0.81208  0.56394  0.75470  1.0000
  H   H1394     1.0  0.94997  0.40255  0.77896  1.0000
  C   C796      1.0  0.94945  0.49700  0.70053  1.0000
  Fe  Fe87      1.0  0.56841  0.29611  0.74541  1.0000
  C   C797      1.0  0.67889  0.58565  0.70028  1.0000
  C   C798      1.0  0.66766  0.35959  0.76510  1.0000
  H   H1395     1.0  0.88569  0.40053  0.72947  1.0000
  H   H1396     1.0  0.60580  0.52497  0.72131  1.0000
  H   H1397     1.0  0.64772  0.42482  0.83595  1.0000
  C   C799      1.0  0.76692  0.56189  0.75031  1.0000
  C   C800      1.0  0.01184  0.42992  0.63020  1.0000
  H   H1398     1.0  0.87023  0.20709  0.69607  1.0000
  C   C801      1.0  0.68130  0.53263  0.63384  1.0000
  C   C802      1.0  0.87788  0.30907  0.80107  1.0000
  H   H1399     1.0  0.70327  0.56177  0.75237  1.0000
  C   C803      1.0  0.98961  0.40376  0.81257  1.0000
  C   C804      1.0  0.68923  0.20734  0.78885  1.0000
  H   H1400     1.0  0.56018  0.36202  0.80368  1.0000
  C   C805      1.0  0.97671  0.43766  0.73929  1.0000
  H   H1401     1.0  0.69175  0.19076  0.75420  1.0000
  C   C806      1.0  0.03341  0.55851  0.63475  1.0000
  C   C807      1.0  0.66535  0.58363  0.65271  1.0000
  C   C808      1.0  0.70127  0.48377  0.78259  1.0000
  H   H1402     1.0  0.69853  0.42161  0.79783  1.0000
  S   S181      1.0  0.74695  0.49697  0.84149  1.0000
  C   C809      1.0  0.63348  0.41713  0.64481  1.0000
  H   H1403     1.0  0.70128  0.38785  0.83452  1.0000
  H   H1404     1.0  0.81373  0.59918  0.62158  1.0000
  C   C810      1.0  0.67044  0.33567  0.80791  1.0000
  S   S182      1.0  0.56218  0.29857  0.83506  1.0000
  C   C811      1.0  0.86551  0.37021  0.82488  1.0000
  C   C812      1.0  0.62577  0.58933  0.84558  1.0000
  S   S183      1.0  0.85792  0.40868  0.83628  1.0000
  H   H1405     1.0  0.82698  0.25298  0.85413  1.0000
  C   C813      1.0  0.75881  0.17786  0.82992  1.0000
  H   H1406     1.0  0.57124  0.56787  0.82349  1.0000
  H   H1407     1.0  0.69990  0.30376  0.83204  1.0000
  H   H1408     1.0  0.01418  0.54527  0.62378  1.0000
  H   H1409     1.0  0.79182  0.26741  0.85734  1.0000
  H   H1410     1.0  0.85599  0.56740  0.84477  1.0000
  H   H1411     1.0  0.85207  0.19544  0.85759  1.0000
  H   H1412     1.0  0.71635  0.33700  0.80113  1.0000
  H   H1413     1.0  0.55223  0.39881  0.83324  1.0000
  H   H1414     1.0  0.02863  0.33502  0.81249  1.0000
  H   H1415     1.0  0.71257  0.24857  0.85646  1.0000
  C   C814      1.0  0.66438  0.51243  0.85817  1.0000
  C   C815      1.0  0.69840  0.17106  0.85571  1.0000
  H   H1416     1.0  0.73668  0.42324  0.61239  1.0000
  C   C816      1.0  0.71336  0.42206  0.61538  1.0000
  C   C817      1.0  0.69348  0.51604  0.86205  1.0000
  C   C818      1.0  0.74886  0.40902  0.10454  1.0000
  H   H1417     1.0  0.57146  0.37309  0.86937  1.0000
  H   H1418     1.0  0.72498  0.20180  0.93790  1.0000
  H   H1419     1.0  0.03898  0.56762  0.89482  1.0000
  H   H1420     1.0  0.60301  0.18141  0.89794  1.0000
  H   H1421     1.0  0.98822  0.33927  0.93969  1.0000
  C   C819      1.0  0.55404  0.59150  0.03438  1.0000
  C   C820      1.0  0.56516  0.58221  0.08766  1.0000
  H   H1422     1.0  0.90527  0.14495  0.88982  1.0000
  N   N48       1.0  0.81860  0.30472  0.00159  1.0000
  H   H1423     1.0  0.92256  0.19107  0.88945  1.0000
  S   S184      1.0  0.76194  0.18981  0.02617  1.0000
  H   H1424     1.0  0.76291  0.18513  0.87150  1.0000
  S   S185      1.0  0.64612  0.55111  0.03915  1.0000
  H   H1425     1.0  0.57586  0.19173  0.98272  1.0000
  H   H1426     1.0  0.63465  0.20393  0.88128  1.0000
  H   H1427     1.0  0.54305  0.22712  0.98442  1.0000
  C   C821      1.0  0.72581  0.22458  0.92058  1.0000
  H   H1428     1.0  0.01629  0.20523  0.93358  1.0000
  S   S186      1.0  0.64080  0.47384  0.96363  1.0000
  S   S187      1.0  0.63639  0.28161  0.88907  1.0000
  C   C822      1.0  0.59180  0.20796  0.99959  1.0000
  C   C823      1.0  0.83454  0.29052  0.09415  1.0000
  C   C824      1.0  0.70671  0.22602  0.87377  1.0000
  H   H1429     1.0  0.84019  0.40758  0.95505  1.0000
  C   C825      1.0  0.88722  0.13321  0.07564  1.0000
  H   H1430     1.0  0.58623  0.27237  0.08376  1.0000
  C   C826      1.0  0.84851  0.18799  0.99243  1.0000
  C   C827      1.0  0.73427  0.59814  0.94243  1.0000
  H   H1431     1.0  0.95684  0.22888  0.91955  1.0000
  C   C828      1.0  0.84260  0.18233  0.93897  1.0000
  H   H1432     1.0  0.82201  0.35534  0.93344  1.0000
  C   C829      1.0  0.96085  0.16569  0.89496  1.0000
  H   H1433     1.0  0.96249  0.17283  0.93791  1.0000
  H   H1434     1.0  0.81066  0.30798  0.91760  1.0000
  C   C830      1.0  0.84542  0.55040  0.02213  1.0000
  H   H1435     1.0  0.72652  0.57449  0.95162  1.0000
  H   H1436     1.0  0.68537  0.44987  0.88506  1.0000
  H   H1437     1.0  0.01185  0.51385  0.09257  1.0000
  C   C831      1.0  0.85691  0.19944  0.89876  1.0000
  H   H1438     1.0  0.81426  0.61839  0.86583  1.0000
  H   H1439     1.0  0.85838  0.33012  0.99102  1.0000
  S   S188      1.0  0.00594  0.16048  0.02319  1.0000
  H   H1440     1.0  0.00840  0.13311  0.91006  1.0000
  H   H1441     1.0  0.92719  0.45092  0.96127  1.0000
  H   H1442     1.0  0.91789  0.14645  0.95479  1.0000
  H   H1443     1.0  0.77537  0.33887  0.96156  1.0000
  H   H1444     1.0  0.54738  0.42279  0.06741  1.0000
  H   H1445     1.0  0.90709  0.38286  0.01050  1.0000
  C   C832      1.0  0.56574  0.21476  0.08547  1.0000
  H   H1446     1.0  0.92278  0.38406  0.91912  1.0000
  H   H1447     1.0  0.78845  0.32580  0.05850  1.0000
  H   H1448     1.0  0.56861  0.30961  0.03728  1.0000
  H   H1449     1.0  0.63613  0.13209  0.03963  1.0000
  H   H1450     1.0  0.58160  0.12986  0.92856  1.0000
  Fe  Fe88      1.0  0.98701  0.26288  0.10216  1.0000
  H   H1451     1.0  0.88679  0.23669  0.88087  1.0000
  H   H1452     1.0  0.01751  0.50692  0.92296  1.0000
  H   H1453     1.0  0.83966  0.44715  0.05776  1.0000
  S   S189      1.0  0.67886  0.17508  0.00109  1.0000
  H   H1454     1.0  0.85306  0.27662  0.01637  1.0000
  C   C833      1.0  0.54204  0.18997  0.07609  1.0000
  H   H1455     1.0  0.85776  0.53281  0.91781  1.0000
  C   C834      1.0  0.61259  0.33443  0.93045  1.0000
  H   H1456     1.0  0.69902  0.42940  0.09946  1.0000
  C   C835      1.0  0.02090  0.13666  0.06663  1.0000
  S   S190      1.0  0.98246  0.24126  0.02123  1.0000
  H   H1457     1.0  0.55310  0.32266  0.98004  1.0000
  C   C836      1.0  0.94155  0.36168  0.07776  1.0000
  C   C837      1.0  0.91897  0.13318  0.91578  1.0000
  Fe  Fe89      1.0  0.72169  0.16204  0.01816  1.0000
  H   H1458     1.0  0.71227  0.16419  0.88624  1.0000
  C   C838      1.0  0.91687  0.43147  0.93940  1.0000
  C   C839      1.0  0.64356  0.56319  0.10672  1.0000
  H   H1459     1.0  0.67061  0.60304  0.09177  1.0000
  H   H1460     1.0  0.84113  0.52600  0.01928  1.0000
  C   C840      1.0  0.84846  0.38759  0.97359  1.0000
  H   H1461     1.0  0.89983  0.60311  0.00993  1.0000
  N   N49       1.0  0.94889  0.13327  0.89095  1.0000
  H   H1462     1.0  0.59820  0.23467  0.92869  1.0000
  C   C841      1.0  0.90545  0.45357  0.10623  1.0000
  C   C842      1.0  0.96029  0.30717  0.90254  1.0000
  C   C843      1.0  0.87643  0.22286  0.91200  1.0000
  H   H1463     1.0  0.62246  0.12945  0.86840  1.0000
  Fe  Fe90      1.0  0.96866  0.60324  0.88755  1.0000
  C   C844      1.0  0.92914  0.39170  0.00418  1.0000
  H   H1464     1.0  0.89510  0.35485  0.07589  1.0000
  H   H1465     1.0  0.85082  0.30913  0.09842  1.0000
  H   H1466     1.0  0.03721  0.25883  0.95767  1.0000
  S   S191      1.0  0.78815  0.12669  0.06395  1.0000
  C   C845      1.0  0.63439  0.31438  0.93186  1.0000
  H   H1467     1.0  0.55072  0.17028  0.05232  1.0000
  H   H1468     1.0  0.73149  0.27438  0.11024  1.0000
  C   C846      1.0  0.80781  0.26000  0.93506  1.0000
  H   H1469     1.0  0.98912  0.61626  0.07355  1.0000
  C   C847      1.0  0.87847  0.59389  0.01577  1.0000
  H   H1470     1.0  0.88258  0.15517  0.05855  1.0000
  H   H1471     1.0  0.72137  0.45679  0.02742  1.0000
  C   C848      1.0  0.82624  0.36148  0.97539  1.0000
  C   C849      1.0  0.94392  0.19000  0.86953  1.0000
  C   C850      1.0  0.96561  0.33761  0.93254  1.0000
  H   H1472     1.0  0.84307  0.29250  0.92814  1.0000
  C   C851      1.0  0.62099  0.19428  0.91478  1.0000
  S   S192      1.0  0.63184  0.39986  0.04222  1.0000
  H   H1473     1.0  0.96135  0.35594  0.90582  1.0000
  C   C852      1.0  0.81132  0.55821  0.87062  1.0000
  H   H1474     1.0  0.95427  0.40690  0.93059  1.0000
  H   H1475     1.0  0.92499  0.33404  0.97743  1.0000
  C   C853      1.0  0.85153  0.52303  0.87898  1.0000
  C   C854      1.0  0.88305  0.22796  0.96510  1.0000
  H   H1476     1.0  0.63667  0.23237  0.05163  1.0000
  C   C855      1.0  0.94728  0.33938  0.98624  1.0000
  H   H1477     1.0  0.73358  0.61208  0.98047  1.0000
  H   H1478     1.0  0.58240  0.20285  0.10404  1.0000
  H   H1479     1.0  0.59505  0.37641  0.96204  1.0000
  S   S193      1.0  0.74222  0.12369  0.97166  1.0000
  S   S194      1.0  0.81720  0.15425  0.92170  1.0000
  H   H1480     1.0  0.68446  0.22738  0.89059  1.0000
  H   H1481     1.0  0.71746  0.27106  0.94968  1.0000
  C   C856      1.0  0.86925  0.21031  0.00533  1.0000
  H   H1482     1.0  0.81913  0.25969  0.03421  1.0000
  H   H1483     1.0  0.74783  0.23045  0.90621  1.0000
  H   H1484     1.0  0.91359  0.32040  0.06946  1.0000
  S   S195      1.0  0.92200  0.59671  0.89519  1.0000
  H   H1485     1.0  0.72483  0.33430  0.98551  1.0000
  H   H1486     1.0  0.00086  0.36783  0.08294  1.0000
  H   H1487     1.0  0.99965  0.34073  0.02743  1.0000
  H   H1488     1.0  0.77723  0.58798  0.94632  1.0000
  H   H1489     1.0  0.03085  0.30279  0.90837  1.0000
  S   S196      1.0  0.58634  0.51593  0.95847  1.0000
  H   H1490     1.0  0.79849  0.53739  0.88313  1.0000
  C   C857      1.0  0.85622  0.61363  0.02615  1.0000
  H   H1491     1.0  0.83555  0.50409  0.88599  1.0000
  H   H1492     1.0  0.59630  0.32965  0.90368  1.0000
  N   N50       1.0  0.94941  0.36872  0.01973  1.0000
  C   C858      1.0  0.95739  0.22200  0.87650  1.0000
  C   C859      1.0  0.61191  0.36100  0.96355  1.0000
  H   H1493     1.0  0.97137  0.56463  0.04855  1.0000
  C   C860      1.0  0.61045  0.22028  0.95199  1.0000
  C   C861      1.0  0.95848  0.57963  0.07622  1.0000
  H   H1494     1.0  0.93815  0.30466  0.89156  1.0000
  H   H1495     1.0  0.03394  0.37464  0.97340  1.0000
  C   C862      1.0  0.87304  0.56222  0.01377  1.0000
  C   C863      1.0  0.96662  0.61311  0.06590  1.0000
  H   H1496     1.0  0.85417  0.39464  0.01451  1.0000
  H   H1497     1.0  0.72004  0.60788  0.91510  1.0000
  Fe  Fe91      1.0  0.60599  0.47759  0.91004  1.0000
  S   S197      1.0  0.93288  0.19626  0.07727  1.0000
  H   H1498     1.0  0.58824  0.58045  0.08425  1.0000
  H   H1499     1.0  0.69586  0.24176  0.98349  1.0000
  Fe  Fe92      1.0  0.92888  0.55204  0.93014  1.0000
  H   H1500     1.0  0.61212  0.58570  0.88281  1.0000
  H   H1501     1.0  0.93603  0.57454  0.06945  1.0000
  H   H1502     1.0  0.93061  0.41246  0.03109  1.0000
  H   H1503     1.0  0.68926  0.41535  0.92030  1.0000
  H   H1504     1.0  0.67780  0.17396  0.87871  1.0000
  S   S198      1.0  0.90808  0.25693  0.98066  1.0000
  Fe  Fe93      1.0  0.76434  0.16532  0.10271  1.0000
  C   C864      1.0  0.55259  0.30377  0.00838  1.0000
  H   H1505     1.0  0.83653  0.34282  0.04757  1.0000
  H   H1506     1.0  0.86747  0.38045  0.94886  1.0000
  H   H1507     1.0  0.55838  0.53322  0.07305  1.0000
  C   C865      1.0  0.82324  0.57006  0.03182  1.0000
  H   H1508     1.0  0.77193  0.62231  0.91195  1.0000
  S   S199      1.0  0.57912  0.44065  0.95086  1.0000
  H   H1509     1.0  0.98561  0.38934  0.97463  1.0000
  H   H1510     1.0  0.65907  0.45589  0.10547  1.0000
  H   H1511     1.0  0.98263  0.16775  0.87679  1.0000
  H   H1512     1.0  0.75552  0.55734  0.86937  1.0000
  H   H1513     1.0  0.67020  0.35132  0.02969  1.0000
  C   C866      1.0  0.55314  0.24471  0.01097  1.0000
  H   H1514     1.0  0.97852  0.40625  0.03879  1.0000
  C   C867      1.0  0.65956  0.17256  0.06301  1.0000
  N   N51       1.0  0.57753  0.23141  0.03639  1.0000
  Fe  Fe94      1.0  0.56211  0.47894  0.00416  1.0000
  H   H1515     1.0  0.65064  0.61207  0.94427  1.0000
  H   H1516     1.0  0.73220  0.24776  0.99736  1.0000
  H   H1517     1.0  0.63307  0.17847  0.93651  1.0000
  H   H1518     1.0  0.67220  0.30530  0.96888  1.0000
  H   H1519     1.0  0.91739  0.43689  0.89636  1.0000
  C   C868      1.0  0.78868  0.30895  0.02403  1.0000
  C   C869      1.0  0.00193  0.36540  0.03850  1.0000
  H   H1520     1.0  0.56568  0.61338  0.92511  1.0000
  C   C870      1.0  0.62384  0.24689  0.07995  1.0000
  C   C871      1.0  0.03119  0.37728  0.01773  1.0000
  C   C872      1.0  0.55854  0.27378  0.97692  1.0000
  C   C873      1.0  0.69623  0.42807  0.88378  1.0000
  C   C874      1.0  0.63267  0.36715  0.99944  1.0000
  C   C875      1.0  0.97859  0.38375  0.01641  1.0000
  Fe  Fe95      1.0  0.97973  0.19694  0.06293  1.0000
  C   C876      1.0  0.76446  0.59820  0.91715  1.0000
  H   H1521     1.0  0.71270  0.48351  0.94751  1.0000
  H   H1522     1.0  0.70157  0.52976  0.89464  1.0000
  S   S200      1.0  0.59422  0.47624  0.06438  1.0000
  H   H1523     1.0  0.81371  0.47474  0.05039  1.0000
  H   H1524     1.0  0.96393  0.61693  0.02310  1.0000
  C   C877      1.0  0.70636  0.47539  0.03211  1.0000
  H   H1525     1.0  0.73497  0.50739  0.98794  1.0000
  H   H1526     1.0  0.65023  0.39049  0.86865  1.0000
  C   C878      1.0  0.71349  0.49674  0.98599  1.0000
  C   C879      1.0  0.83611  0.33421  0.00530  1.0000
  C   C880      1.0  0.59755  0.25680  0.05420  1.0000
  C   C881      1.0  0.65524  0.32066  0.96755  1.0000
  C   C882      1.0  0.93220  0.40210  0.94547  1.0000
  S   S201      1.0  0.90035  0.53703  0.00048  1.0000
  S   S202      1.0  0.97570  0.56010  0.92906  1.0000
  H   H1527     1.0  0.68100  0.21156  0.09890  1.0000
  H   H1528     1.0  0.74021  0.40363  0.06516  1.0000
  Fe  Fe96      1.0  0.61271  0.44014  0.00863  1.0000
  H   H1529     1.0  0.60577  0.27095  0.02029  1.0000
  C   C883      1.0  0.65415  0.34673  0.00183  1.0000
  H   H1530     1.0  0.83731  0.17497  0.02373  1.0000
  S   S203      1.0  0.72265  0.14077  0.09733  1.0000
  N   N52       1.0  0.56687  0.62066  0.01106  1.0000
  C   C884      1.0  0.71729  0.24775  0.96545  1.0000
  H   H1531     1.0  0.68502  0.46502  0.02836  1.0000
  H   H1532     1.0  0.60870  0.61684  0.03809  1.0000
  H   H1533     1.0  0.95335  0.31979  0.00931  1.0000
  H   H1534     1.0  0.60193  0.59354  0.98054  1.0000
  C   C885      1.0  0.76745  0.31893  0.98465  1.0000
  H   H1535     1.0  0.65113  0.28676  0.06069  1.0000
  C   C886      1.0  0.83170  0.28170  0.03436  1.0000
  H   H1536     1.0  0.96467  0.28783  0.92750  1.0000
  H   H1537     1.0  0.54374  0.27203  0.94476  1.0000
  C   C887      1.0  0.55256  0.55102  0.10407  1.0000
  C   C888      1.0  0.02885  0.48851  0.90283  1.0000
  C   C889      1.0  0.80579  0.25193  0.87576  1.0000
  Fe  Fe97      1.0  0.93612  0.24234  0.04147  1.0000
  H   H1538     1.0  0.81572  0.57130  0.90819  1.0000
  H   H1539     1.0  0.03461  0.40178  0.02956  1.0000
  H   H1540     1.0  0.57954  0.27582  0.95566  1.0000
  H   H1541     1.0  0.72973  0.30720  0.03580  1.0000
  H   H1542     1.0  0.69802  0.51493  0.98697  1.0000
  H   H1543     1.0  0.62900  0.23379  0.96530  1.0000
  C   C890      1.0  0.73954  0.32714  0.01445  1.0000
  H   H1544     1.0  0.78668  0.25695  0.95617  1.0000
  H   H1545     1.0  0.89725  0.45375  0.06714  1.0000
  C   C891      1.0  0.82060  0.29276  0.94415  1.0000
  H   H1546     1.0  0.65021  0.52314  0.88815  1.0000
  H   H1547     1.0  0.80701  0.37044  0.99702  1.0000
  H   H1548     1.0  0.82138  0.24313  0.95053  1.0000
  H   H1549     1.0  0.73039  0.50138  0.08943  1.0000
  H   H1550     1.0  0.60526  0.19375  0.02213  1.0000
  H   H1551     1.0  0.55720  0.57223  0.00451  1.0000
  H   H1552     1.0  0.80187  0.56076  0.03731  1.0000
  C   C892      1.0  0.63927  0.14891  0.07115  1.0000
  H   H1553     1.0  0.79711  0.22823  0.87179  1.0000
  H   H1554     1.0  0.74282  0.34626  0.04401  1.0000
  H   H1555     1.0  0.95746  0.34744  0.09356  1.0000
  Fe  Fe98      1.0  0.78285  0.14923  0.98694  1.0000
  C   C893      1.0  0.82857  0.60167  0.03398  1.0000
  H   H1556     1.0  0.90971  0.12874  0.06529  1.0000
  H   H1557     1.0  0.87401  0.21439  0.04656  1.0000
  Fe  Fe99      1.0  0.61978  0.51012  0.01461  1.0000
  H   H1558     1.0  0.77936  0.28738  0.04124  1.0000
  H   H1559     1.0  0.89458  0.42907  0.95511  1.0000
  H   H1560     1.0  0.76290  0.30022  0.95516  1.0000
  H   H1561     1.0  0.71919  0.43342  0.88365  1.0000
  C   C894      1.0  0.66489  0.19356  0.10484  1.0000
  H   H1562     1.0  0.77203  0.40765  0.09892  1.0000
  C   C895      1.0  0.82472  0.46253  0.08007  1.0000
  C   C896      1.0  0.59809  0.61643  0.99993  1.0000
  C   C897      1.0  0.70821  0.49283  0.08670  1.0000
  H   H1563     1.0  0.55680  0.38438  0.07743  1.0000
  C   C898      1.0  0.91320  0.34338  0.08959  1.0000
  H   H1564     1.0  0.75129  0.45751  0.09684  1.0000
  H   H1565     1.0  0.80927  0.44836  0.10474  1.0000
  C   C899      1.0  0.64249  0.27439  0.09646  1.0000
  H   H1566     1.0  0.93231  0.49394  0.09337  1.0000
  H   H1567     1.0  0.85767  0.49653  0.08976  1.0000
  H   H1568     1.0  0.94129  0.38319  0.10313  1.0000
  H   H1569     1.0  0.69617  0.51393  0.08511  1.0000
  C   C900      1.0  0.03557  0.20163  0.90693  1.0000
  H   H1570     1.0  0.02998  0.18605  0.87313  1.0000
  H   H1571     1.0  0.02288  0.35739  0.87427  1.0000
  H   H1572     1.0  0.97443  0.30613  0.86538  1.0000
  H   H1573     1.0  0.03100  0.24187  0.86365  1.0000
  H   H1574     1.0  0.86520  0.25736  0.10980  1.0000
  H   H1575     1.0  0.81329  0.52117  0.11040  1.0000
  H   H1576     1.0  0.03718  0.46781  0.10894  1.0000
  C   C901      1.0  0.76591  0.58017  0.86251  1.0000
  C   C902      1.0  0.84366  0.26362  0.12466  1.0000
  H   H1577     1.0  0.63046  0.29034  0.12395  1.0000
  H   H1578     1.0  0.83272  0.16197  0.31106  1.0000
  H   H1579     1.0  0.56366  0.49840  0.19408  1.0000
  H   H1580     1.0  0.96241  0.57404  0.11777  1.0000
  H   H1581     1.0  0.55724  0.45109  0.24625  1.0000
  H   H1582     1.0  0.98900  0.27294  0.20493  1.0000
  H   H1583     1.0  0.98734  0.13969  0.12797  1.0000
  H   H1584     1.0  0.91434  0.31358  0.33899  1.0000
  C   C903      1.0  0.69786  0.16520  0.23986  1.0000
  C   C904      1.0  0.69824  0.52495  0.19359  1.0000
  S   S204      1.0  0.60855  0.16527  0.22311  1.0000
  H   H1585     1.0  0.55938  0.59908  0.12031  1.0000
  C   C905      1.0  0.64846  0.19211  0.15357  1.0000
  H   H1586     1.0  0.01033  0.43044  0.20052  1.0000
  H   H1587     1.0  0.96824  0.12648  0.27183  1.0000
  H   H1588     1.0  0.85632  0.14015  0.22994  1.0000
  S   S205      1.0  0.98731  0.21831  0.14310  1.0000
  S   S206      1.0  0.75452  0.32779  0.16398  1.0000
  C   C906      1.0  0.01631  0.27848  0.26918  1.0000
  H   H1589     1.0  0.54768  0.50576  0.26056  1.0000
  H   H1590     1.0  0.55774  0.23121  0.11685  1.0000
  H   H1591     1.0  0.83571  0.46961  0.23290  1.0000
  C   C907      1.0  0.74597  0.26722  0.13790  1.0000
  C   C908      1.0  0.65125  0.46167  0.19144  1.0000
  C   C909      1.0  0.62574  0.55707  0.19931  1.0000
  C   C910      1.0  0.88072  0.13494  0.13628  1.0000
  H   H1592     1.0  0.69093  0.52405  0.28041  1.0000
  C   C911      1.0  0.68836  0.26571  0.24861  1.0000
  C   C912      1.0  0.94858  0.31907  0.28029  1.0000
  H   H1593     1.0  0.74052  0.39164  0.13345  1.0000
  C   C913      1.0  0.89066  0.26510  0.23748  1.0000
  C   C914      1.0  0.88412  0.23509  0.31657  1.0000
  H   H1594     1.0  0.65705  0.49409  0.12821  1.0000
  C   C915      1.0  0.62381  0.14652  0.12066  1.0000
  H   H1595     1.0  0.68453  0.31230  0.28640  1.0000
  H   H1596     1.0  0.66034  0.26648  0.11735  1.0000
  H   H1597     1.0  0.65169  0.20918  0.18496  1.0000
  C   C916      1.0  0.70651  0.44358  0.30018  1.0000
  H   H1598     1.0  0.99889  0.61165  0.17396  1.0000
  Fe  Fe100     1.0  0.79960  0.40623  0.29152  1.0000
  C   C917      1.0  0.72887  0.28155  0.35225  1.0000
  C   C918      1.0  0.90746  0.33888  0.14967  1.0000
  H   H1599     1.0  0.84376  0.27011  0.16789  1.0000
  C   C919      1.0  0.02482  0.43443  0.23305  1.0000
  H   H1600     1.0  0.77925  0.60363  0.21935  1.0000
  H   H1601     1.0  0.89891  0.26799  0.19689  1.0000
  S   S207      1.0  0.77622  0.18794  0.18007  1.0000
  C   C920      1.0  0.68515  0.21564  0.28759  1.0000
  C   C921      1.0  0.87456  0.28793  0.26343  1.0000
  S   S208      1.0  0.91852  0.48903  0.33486  1.0000
  H   H1602     1.0  0.68867  0.34020  0.20316  1.0000
  H   H1603     1.0  0.97973  0.14996  0.21677  1.0000
  Fe  Fe101     1.0  0.55013  0.25843  0.22793  1.0000
  H   H1604     1.0  0.85809  0.13984  0.14312  1.0000
  H   H1605     1.0  0.82889  0.24348  0.12036  1.0000
  H   H1606     1.0  0.67414  0.28461  0.35288  1.0000
  H   H1607     1.0  0.67549  0.52618  0.18942  1.0000
  H   H1608     1.0  0.72635  0.53616  0.25710  1.0000
  H   H1609     1.0  0.98299  0.38774  0.25175  1.0000
  C   C922      1.0  0.65655  0.60060  0.17524  1.0000
  H   H1610     1.0  0.01388  0.61084  0.29115  1.0000
  Fe  Fe102     1.0  0.82948  0.34685  0.29155  1.0000
  H   H1611     1.0  0.56100  0.54494  0.14210  1.0000
  H   H1612     1.0  0.72726  0.20204  0.25646  1.0000
  H   H1613     1.0  0.85830  0.46466  0.31595  1.0000
  H   H1614     1.0  0.59329  0.35637  0.22622  1.0000
  H   H1615     1.0  0.68604  0.20256  0.32424  1.0000
  H   H1616     1.0  0.95305  0.16286  0.26505  1.0000
  C   C923      1.0  0.70799  0.49183  0.18420  1.0000
  H   H1617     1.0  0.66665  0.26102  0.23579  1.0000
  C   C924      1.0  0.66608  0.47221  0.13749  1.0000
  H   H1618     1.0  0.74772  0.58315  0.20024  1.0000
  C   C925      1.0  0.83016  0.51885  0.23972  1.0000
  C   C926      1.0  0.70865  0.44326  0.13218  1.0000
  S   S209      1.0  0.95729  0.50710  0.19305  1.0000
  H   H1619     1.0  0.70268  0.25709  0.21521  1.0000
  S   S210      1.0  0.78507  0.44370  0.34868  1.0000
  C   C927      1.0  0.62700  0.54683  0.14534  1.0000
  S   S211      1.0  0.62565  0.31466  0.31297  1.0000
  C   C928      1.0  0.96118  0.14235  0.24278  1.0000
  H   H1620     1.0  0.63514  0.37698  0.34348  1.0000
  H   H1621     1.0  0.89710  0.58845  0.31891  1.0000
  Fe  Fe103     1.0  0.94047  0.22205  0.15453  1.0000
  S   S212      1.0  0.91702  0.21043  0.23306  1.0000
  H   H1622     1.0  0.91963  0.58527  0.21539  1.0000
  C   C929      1.0  0.93864  0.12635  0.20972  1.0000
  H   H1623     1.0  0.69013  0.36517  0.32421  1.0000
  N   N53       1.0  0.83343  0.53124  0.18428  1.0000
  C   C930      1.0  0.61982  0.45519  0.18743  1.0000
  C   C931      1.0  0.64059  0.58399  0.21416  1.0000
  H   H1624     1.0  0.71490  0.15377  0.21528  1.0000
  H   H1625     1.0  0.54492  0.16870  0.15253  1.0000
  C   C932      1.0  0.58471  0.34797  0.18805  1.0000
  C   C933      1.0  0.00102  0.60045  0.21223  1.0000
  H   H1626     1.0  0.61608  0.43725  0.15592  1.0000
  C   C934      1.0  0.77074  0.58621  0.19079  1.0000
  H   H1627     1.0  0.87175  0.30871  0.24349  1.0000
  C   C935      1.0  0.72150  0.25304  0.31644  1.0000
  H   H1628     1.0  0.70424  0.20864  0.20479  1.0000
  H   H1629     1.0  0.61028  0.44704  0.22641  1.0000
  H   H1630     1.0  0.85076  0.47192  0.14541  1.0000
  Fe  Fe104     1.0  0.78507  0.35447  0.21276  1.0000
  Fe  Fe105     1.0  0.95310  0.51124  0.28238  1.0000
  C   C936      1.0  0.92603  0.45392  0.20764  1.0000
  C   C937      1.0  0.02690  0.29906  0.18104  1.0000
  H   H1631     1.0  0.03385  0.38581  0.22858  1.0000
  H   H1632     1.0  0.54718  0.55838  0.35628  1.0000
  C   C938      1.0  0.99793  0.39198  0.28340  1.0000
  H   H1633     1.0  0.64922  0.25893  0.32583  1.0000
  S   S213      1.0  0.55037  0.28028  0.31000  1.0000
  C   C939      1.0  0.75063  0.23615  0.14181  1.0000
  C   C940      1.0  0.00706  0.12950  0.11602  1.0000
  C   C941      1.0  0.84682  0.49040  0.24908  1.0000
  C   C942      1.0  0.81711  0.56000  0.18484  1.0000
  H   H1634     1.0  0.59914  0.35563  0.15378  1.0000
  C   C943      1.0  0.75980  0.28888  0.17011  1.0000
  H   H1635     1.0  0.03925  0.15432  0.27814  1.0000
  C   C944      1.0  0.55526  0.35942  0.18379  1.0000
  H   H1636     1.0  0.77889  0.54763  0.23592  1.0000
  Fe  Fe106     1.0  0.84093  0.38979  0.19725  1.0000
  H   H1637     1.0  0.82151  0.57166  0.14610  1.0000
  H   H1638     1.0  0.01531  0.20265  0.30447  1.0000
  S   S214      1.0  0.63631  0.59963  0.27938  1.0000
  C   C945      1.0  0.54597  0.40321  0.35926  1.0000
  H   H1639     1.0  0.67809  0.16108  0.21984  1.0000
  C   C946      1.0  0.89509  0.43182  0.14301  1.0000
  Fe  Fe107     1.0  0.59083  0.20965  0.25286  1.0000
  H   H1640     1.0  0.65362  0.47975  0.22321  1.0000
  S   S215      1.0  0.78403  0.35776  0.30226  1.0000
  C   C947      1.0  0.93510  0.47683  0.17221  1.0000
  H   H1641     1.0  0.77446  0.59458  0.14942  1.0000
  H   H1642     1.0  0.01367  0.44996  0.26274  1.0000
  C   C948      1.0  0.87953  0.56044  0.20923  1.0000
  C   C949      1.0  0.54450  0.49413  0.22113  1.0000
  S   S216      1.0  0.84517  0.39576  0.28562  1.0000
  H   H1643     1.0  0.70158  0.47889  0.22046  1.0000
  H   H1644     1.0  0.88363  0.54687  0.24415  1.0000
  S   S217      1.0  0.94884  0.55730  0.32291  1.0000
  H   H1645     1.0  0.73661  0.25326  0.28052  1.0000
  C   C950      1.0  0.68310  0.31532  0.20201  1.0000
  H   H1646     1.0  0.69478  0.43240  0.26921  1.0000
  H   H1647     1.0  0.92039  0.55338  0.16771  1.0000
  H   H1648     1.0  0.86518  0.55166  0.12897  1.0000
  H   H1649     1.0  0.97460  0.29921  0.36141  1.0000
  H   H1650     1.0  0.92507  0.32759  0.16605  1.0000
  H   H1651     1.0  0.58374  0.32262  0.18732  1.0000
  H   H1652     1.0  0.93781  0.33658  0.25962  1.0000
  H   H1653     1.0  0.54741  0.34941  0.14617  1.0000
  H   H1654     1.0  0.72082  0.61699  0.14440  1.0000
  C   C951      1.0  0.78466  0.55587  0.19509  1.0000
  H   H1655     1.0  0.90446  0.36113  0.17147  1.0000
  H   H1656     1.0  0.61510  0.52647  0.13367  1.0000
  C   C952      1.0  0.70382  0.53737  0.24982  1.0000
  H   H1657     1.0  0.87010  0.16664  0.31675  1.0000
  C   C953      1.0  0.84884  0.48665  0.30899  1.0000
  C   C954      1.0  0.02668  0.40330  0.25906  1.0000
  C   C955      1.0  0.82116  0.50880  0.14385  1.0000
  Fe  Fe108     1.0  0.59667  0.27458  0.29983  1.0000
  H   H1658     1.0  0.66002  0.44054  0.20455  1.0000
  C   C956      1.0  0.90564  0.43172  0.19345  1.0000
  H   H1659     1.0  0.88834  0.21510  0.33797  1.0000
  C   C957      1.0  0.84084  0.48505  0.11587  1.0000
  H   H1660     1.0  0.71714  0.30585  0.24878  1.0000
  H   H1661     1.0  0.98004  0.59099  0.22722  1.0000
  H   H1662     1.0  0.94466  0.29651  0.25984  1.0000
  C   C958      1.0  0.69280  0.46217  0.33956  1.0000
  H   H1663     1.0  0.98921  0.40898  0.31346  1.0000
  H   H1664     1.0  0.65986  0.31222  0.20304  1.0000
  C   C959      1.0  0.65831  0.59002  0.12177  1.0000
  H   H1665     1.0  0.60963  0.47635  0.17829  1.0000
  H   H1666     1.0  0.76450  0.14871  0.28553  1.0000
  H   H1667     1.0  0.01901  0.54993  0.29048  1.0000
  H   H1668     1.0  0.66322  0.21202  0.27542  1.0000
  C   C960      1.0  0.02808  0.48119  0.14395  1.0000
  H   H1669     1.0  0.89321  0.15430  0.15378  1.0000
  C   C961      1.0  0.02751  0.19118  0.33323  1.0000
  C   C962      1.0  0.55575  0.39487  0.18516  1.0000
  H   H1670     1.0  0.89642  0.40124  0.34549  1.0000
  C   C963      1.0  0.69421  0.30075  0.25021  1.0000
  Fe  Fe109     1.0  0.54884  0.23250  0.33906  1.0000
  H   H1671     1.0  0.00241  0.26537  0.29655  1.0000
  H   H1672     1.0  0.74544  0.42352  0.27219  1.0000
  C   C964      1.0  0.90779  0.57258  0.18445  1.0000
  H   H1673     1.0  0.80580  0.57654  0.32387  1.0000
  H   H1674     1.0  0.90378  0.14786  0.25069  1.0000
  C   C965      1.0  0.86723  0.25751  0.34188  1.0000
  H   H1675     1.0  0.97148  0.32497  0.27704  1.0000
  H   H1676     1.0  0.73135  0.49329  0.18233  1.0000
  H   H1677     1.0  0.77545  0.53949  0.16567  1.0000
  H   H1678     1.0  0.03456  0.49401  0.22552  1.0000
  C   C966      1.0  0.00890  0.28244  0.21701  1.0000
  H   H1679     1.0  0.88810  0.32424  0.15669  1.0000
  C   C967      1.0  0.70528  0.19943  0.24507  1.0000
  S   S218      1.0  0.86827  0.40561  0.12605  1.0000
  H   H1680     1.0  0.70956  0.54023  0.16400  1.0000
  H   H1681     1.0  0.72662  0.23302  0.33921  1.0000
  H   H1682     1.0  0.72595  0.30297  0.33220  1.0000
  H   H1683     1.0  0.70173  0.43089  0.16907  1.0000
  H   H1684     1.0  0.80782  0.51216  0.25106  1.0000
  N   N54       1.0  0.69783  0.47508  0.13520  1.0000
  H   H1685     1.0  0.61774  0.23404  0.11613  1.0000
  H   H1686     1.0  0.78773  0.29572  0.23360  1.0000
  S   S219      1.0  0.98727  0.49764  0.33134  1.0000
  H   H1687     1.0  0.69523  0.15465  0.27939  1.0000
  N   N55       1.0  0.69184  0.24920  0.29934  1.0000
  H   H1688     1.0  0.71922  0.38571  0.35303  1.0000
  H   H1689     1.0  0.90448  0.58818  0.15193  1.0000
  H   H1690     1.0  0.75012  0.44558  0.16454  1.0000
  C   C968      1.0  0.76757  0.12779  0.30774  1.0000
  C   C969      1.0  0.88647  0.60365  0.34778  1.0000
  C   C970      1.0  0.92530  0.47628  0.12100  1.0000
  S   S220      1.0  0.79646  0.40408  0.20276  1.0000
  H   H1691     1.0  0.57285  0.40314  0.15581  1.0000
  C   C971      1.0  0.86270  0.28414  0.31550  1.0000
  H   H1692     1.0  0.86775  0.58051  0.22423  1.0000
  H   H1693     1.0  0.83588  0.53710  0.26957  1.0000
  H   H1694     1.0  0.55208  0.44880  0.14590  1.0000
  C   C972      1.0  0.85103  0.15224  0.32793  1.0000
  H   H1695     1.0  0.77401  0.28004  0.33005  1.0000
  H   H1696     1.0  0.57593  0.57638  0.31645  1.0000
  C   C973      1.0  0.86376  0.54007  0.16795  1.0000
  H   H1697     1.0  0.82784  0.48714  0.33085  1.0000
  H   H1698     1.0  0.86856  0.49171  0.23025  1.0000
  H   H1699     1.0  0.80250  0.49598  0.16266  1.0000
  S   S221      1.0  0.65700  0.46806  0.33732  1.0000
  H   H1700     1.0  0.79715  0.24101  0.23839  1.0000
  H   H1701     1.0  0.73913  0.21949  0.11817  1.0000
  H   H1702     1.0  0.56284  0.40247  0.22498  1.0000
  H   H1703     1.0  0.01522  0.58120  0.20451  1.0000
  H   H1704     1.0  0.94106  0.34167  0.35699  1.0000
  H   H1705     1.0  0.93475  0.45324  0.24601  1.0000
  H   H1706     1.0  0.82388  0.57672  0.21622  1.0000
  S   S222      1.0  0.82932  0.34015  0.20250  1.0000
  C   C974      1.0  0.78276  0.24823  0.21050  1.0000
  H   H1707     1.0  0.78502  0.54202  0.33903  1.0000
  S   S223      1.0  0.54407  0.21102  0.25776  1.0000
  S   S224      1.0  0.84341  0.31318  0.34878  1.0000
  C   C975      1.0  0.89583  0.23877  0.26411  1.0000
  H   H1708     1.0  0.72617  0.16254  0.34532  1.0000
  C   C976      1.0  0.76950  0.22669  0.17720  1.0000
  H   H1709     1.0  0.69777  0.56153  0.25446  1.0000
  H   H1710     1.0  0.00016  0.37033  0.30389  1.0000
  C   C977      1.0  0.73510  0.43837  0.30213  1.0000
  C   C978      1.0  0.62810  0.16843  0.16159  1.0000
  S   S225      1.0  0.59532  0.22859  0.33609  1.0000
  H   H1711     1.0  0.69260  0.30520  0.16396  1.0000
  C   C979      1.0  0.77772  0.27929  0.20723  1.0000
  H   H1712     1.0  0.61278  0.54465  0.22922  1.0000
  S   S226      1.0  0.59673  0.25531  0.21623  1.0000
  H   H1713     1.0  0.89820  0.41452  0.22150  1.0000
  H   H1714     1.0  0.60838  0.12792  0.12710  1.0000
  H   H1715     1.0  0.87670  0.51981  0.16025  1.0000
  H   H1716     1.0  0.86201  0.50568  0.32568  1.0000
  C   C980      1.0  0.74107  0.44100  0.12528  1.0000
  C   C981      1.0  0.93727  0.31850  0.33894  1.0000
  H   H1717     1.0  0.94708  0.27136  0.34975  1.0000
  H   H1718     1.0  0.78328  0.18843  0.32616  1.0000
  H   H1719     1.0  0.93667  0.14014  0.17411  1.0000
  C   C982      1.0  0.74985  0.45142  0.34401  1.0000
  C   C983      1.0  0.03988  0.55733  0.30064  1.0000
  C   C984      1.0  0.67028  0.26015  0.34191  1.0000
  H   H1720     1.0  0.99657  0.15306  0.34282  1.0000
  H   H1721     1.0  0.00648  0.47175  0.15420  1.0000
  C   C985      1.0  0.91011  0.12390  0.24356  1.0000
  H   H1722     1.0  0.04106  0.40503  0.29173  1.0000
  H   H1723     1.0  0.01660  0.52843  0.15958  1.0000
  H   H1724     1.0  0.54468  0.61532  0.35705  1.0000
  C   C986      1.0  0.56637  0.57362  0.35790  1.0000
  H   H1725     1.0  0.79059  0.12463  0.30329  1.0000
  C   C987      1.0  0.79959  0.55992  0.35539  1.0000
  H   H1726     1.0  0.81425  0.29796  0.11340  1.0000
  H   H1727     1.0  0.71393  0.12395  0.35184  1.0000
  H   H1728     1.0  0.03671  0.20889  0.36036  1.0000
  S   S227      1.0  0.01887  0.30096  0.11438  1.0000
  C   C988      1.0  0.02579  0.51386  0.12611  1.0000
  S   S228      1.0  0.94098  0.26818  0.11900  1.0000
  H   H1729     1.0  0.94250  0.62215  0.35791  1.0000
  H   H1730     1.0  0.54732  0.38808  0.32269  1.0000
  H   H1731     1.0  0.66724  0.62191  0.18631  1.0000
  H   H1732     1.0  0.54167  0.35030  0.21797  1.0000
  H   H1733     1.0  0.64618  0.12349  0.26479  1.0000
  C   C989      1.0  0.69696  0.37766  0.36072  1.0000
  C   C990      1.0  0.71431  0.14930  0.42669  1.0000
  C   C991      1.0  0.00634  0.24757  0.47187  1.0000
  H   H1734     1.0  0.81485  0.34523  0.56618  1.0000
  H   H1735     1.0  0.03821  0.15784  0.51592  1.0000
  H   H1736     1.0  0.57517  0.13703  0.48069  1.0000
  H   H1737     1.0  0.73684  0.37863  0.54326  1.0000
  H   H1738     1.0  0.57525  0.19261  0.46055  1.0000
  H   H1739     1.0  0.76122  0.62123  0.57342  1.0000
  H   H1740     1.0  0.81982  0.19964  0.39411  1.0000
  H   H1741     1.0  0.76305  0.58683  0.60990  1.0000
  Fe  Fe110     1.0  0.64968  0.49072  0.53750  1.0000
  H   H1742     1.0  0.67125  0.13746  0.40713  1.0000
  C   C992      1.0  0.54399  0.12643  0.37779  1.0000
  H   H1743     1.0  0.71465  0.12939  0.45240  1.0000
  H   H1744     1.0  0.87019  0.24477  0.47767  1.0000
  H   H1745     1.0  0.01772  0.16053  0.39923  1.0000
  C   C993      1.0  0.54496  0.15854  0.38028  1.0000
  C   C994      1.0  0.59773  0.13870  0.48986  1.0000
  H   H1746     1.0  0.77159  0.15786  0.43592  1.0000
  H   H1747     1.0  0.58174  0.56273  0.38140  1.0000
  H   H1748     1.0  0.90062  0.30338  0.41978  1.0000
  H   H1749     1.0  0.56749  0.40683  0.37302  1.0000
  H   H1750     1.0  0.54732  0.40937  0.46853  1.0000
  H   H1751     1.0  0.64392  0.13501  0.54294  1.0000
  H   H1752     1.0  0.55115  0.23615  0.50057  1.0000
  H   H1753     1.0  0.74746  0.32987  0.56124  1.0000
  H   H1754     1.0  0.63231  0.40706  0.60377  1.0000
  H   H1755     1.0  0.92377  0.13337  0.58473  1.0000
  C   C995      1.0  0.85734  0.16958  0.50769  1.0000
  C   C996      1.0  0.00678  0.17125  0.36771  1.0000
  H   H1756     1.0  0.81118  0.37867  0.49533  1.0000
  H   H1757     1.0  0.81882  0.54908  0.36632  1.0000
  C   C997      1.0  0.86744  0.42343  0.53499  1.0000
  H   H1758     1.0  0.96532  0.35731  0.57988  1.0000
  H   H1759     1.0  0.75757  0.27549  0.55719  1.0000
  C   C998      1.0  0.77665  0.15600  0.39186  1.0000
  H   H1760     1.0  0.56946  0.13299  0.57720  1.0000
  H   H1761     1.0  0.81757  0.44810  0.51930  1.0000
  H   H1762     1.0  0.94215  0.31243  0.53984  1.0000
  H   H1763     1.0  0.69705  0.48971  0.41184  1.0000
  C   C999      1.0  0.77700  0.55360  0.44942  1.0000
  C   C1000     1.0  0.60407  0.17205  0.51041  1.0000
  C   C1001     1.0  0.03506  0.45410  0.45933  1.0000
  H   H1764     1.0  0.73471  0.26828  0.50366  1.0000
  Fe  Fe111     1.0  0.98055  0.54211  0.37608  1.0000
  H   H1765     1.0  0.68813  0.23718  0.40796  1.0000
  H   H1766     1.0  0.66091  0.33379  0.49152  1.0000
  H   H1767     1.0  0.93616  0.45255  0.54822  1.0000
  H   H1768     1.0  0.03247  0.30374  0.57568  1.0000
  C   C1002     1.0  0.90768  0.17702  0.48775  1.0000
  C   C1003     1.0  0.64839  0.22926  0.58506  1.0000
  H   H1769     1.0  0.80122  0.23186  0.37683  1.0000
  H   H1770     1.0  0.82392  0.43165  0.45278  1.0000
  C   C1004     1.0  0.73622  0.47016  0.38328  1.0000
  H   H1771     1.0  0.92579  0.59975  0.45224  1.0000
  H   H1772     1.0  0.99010  0.18549  0.38753  1.0000
  H   H1773     1.0  0.85125  0.35900  0.45619  1.0000
  H   H1774     1.0  0.89860  0.30549  0.51511  1.0000
  H   H1775     1.0  0.61670  0.59103  0.59106  1.0000
  H   H1776     1.0  0.79203  0.21388  0.43981  1.0000
  Fe  Fe112     1.0  0.78965  0.16313  0.55074  1.0000
  H   H1777     1.0  0.75648  0.19872  0.37744  1.0000
  H   H1778     1.0  0.85643  0.28222  0.47304  1.0000
  H   H1779     1.0  0.85794  0.25433  0.38207  1.0000
  H   H1780     1.0  0.57896  0.61897  0.38271  1.0000
  H   H1781     1.0  0.62648  0.17591  0.51798  1.0000
  H   H1782     1.0  0.76240  0.26302  0.39325  1.0000
  H   H1783     1.0  0.65777  0.36725  0.53160  1.0000
  H   H1784     1.0  0.99582  0.25966  0.39436  1.0000
  H   H1785     1.0  0.76626  0.29257  0.49355  1.0000
  C   C1005     1.0  0.87026  0.39923  0.42029  1.0000
  N   N56       1.0  0.85220  0.39364  0.52057  1.0000
  H   H1786     1.0  0.68353  0.39753  0.36904  1.0000
  Fe  Fe113     1.0  0.95249  0.47872  0.38705  1.0000
  S   S229      1.0  0.55494  0.53039  0.51003  1.0000
  C   C1006     1.0  0.69500  0.61468  0.51324  1.0000
  C   C1007     1.0  0.00394  0.40202  0.42634  1.0000
  H   H1787     1.0  0.74308  0.47805  0.55314  1.0000
  H   H1788     1.0  0.96975  0.42364  0.60403  1.0000
  H   H1789     1.0  0.00005  0.59422  0.52362  1.0000
  S   S230      1.0  0.74546  0.14335  0.54768  1.0000
  C   C1008     1.0  0.73942  0.58624  0.48634  1.0000
  Fe  Fe114     1.0  0.63845  0.47547  0.42136  1.0000
  C   C1009     1.0  0.95168  0.32398  0.45466  1.0000
  H   H1790     1.0  0.97071  0.33443  0.43284  1.0000
  S   S231      1.0  0.94291  0.21194  0.54762  1.0000
  S   S232      1.0  0.68469  0.50036  0.59108  1.0000
  H   H1791     1.0  0.92641  0.17203  0.46243  1.0000
  H   H1792     1.0  0.78450  0.50729  0.51337  1.0000
  H   H1793     1.0  0.55348  0.27215  0.53689  1.0000
  C   C1010     1.0  0.66428  0.32616  0.57384  1.0000
  H   H1794     1.0  0.91197  0.26784  0.51877  1.0000
  H   H1795     1.0  0.91237  0.38356  0.39805  1.0000
  H   H1796     1.0  0.61100  0.19111  0.43119  1.0000
  H   H1797     1.0  0.79860  0.14878  0.38740  1.0000
  H   H1798     1.0  0.72547  0.16919  0.44560  1.0000
  H   H1799     1.0  0.99205  0.38202  0.41293  1.0000
  H   H1800     1.0  0.88654  0.21833  0.60000  1.0000
  C   C1011     1.0  0.78492  0.58583  0.52895  1.0000
  H   H1801     1.0  0.62309  0.40602  0.42688  1.0000
  H   H1802     1.0  0.67183  0.30299  0.56372  1.0000
  C   C1012     1.0  0.91342  0.53283  0.56823  1.0000
  C   C1013     1.0  0.59159  0.33767  0.46079  1.0000
  C   C1014     1.0  0.00678  0.45616  0.44910  1.0000
  Fe  Fe115     1.0  0.73295  0.19167  0.56412  1.0000
  C   C1015     1.0  0.75803  0.49065  0.57883  1.0000
  C   C1016     1.0  0.77727  0.18859  0.36979  1.0000
  C   C1017     1.0  0.99158  0.26821  0.43635  1.0000
  H   H1803     1.0  0.84030  0.19453  0.57775  1.0000
  H   H1804     1.0  0.65521  0.22043  0.38775  1.0000
  H   H1805     1.0  0.93171  0.51957  0.55281  1.0000
  S   S233      1.0  0.77700  0.21151  0.56004  1.0000
  S   S234      1.0  0.82528  0.15124  0.49174  1.0000
  H   H1806     1.0  0.84316  0.32848  0.52540  1.0000
  C   C1018     1.0  0.91323  0.45410  0.54489  1.0000
  C   C1019     1.0  0.70763  0.47542  0.38121  1.0000
  H   H1807     1.0  0.86385  0.44153  0.50697  1.0000
  H   H1808     1.0  0.73620  0.33385  0.46706  1.0000
  H   H1809     1.0  0.88056  0.14850  0.44037  1.0000
  C   C1020     1.0  0.94538  0.61115  0.46613  1.0000
  S   S235      1.0  0.94852  0.52211  0.43611  1.0000
  C   C1021     1.0  0.78544  0.57638  0.40430  1.0000
  S   S236      1.0  0.95592  0.43256  0.42013  1.0000
  H   H1810     1.0  0.65505  0.55546  0.58370  1.0000
  H   H1811     1.0  0.71198  0.36318  0.59194  1.0000
  C   C1022     1.0  0.03233  0.40003  0.43562  1.0000
  H   H1812     1.0  0.79675  0.54264  0.45743  1.0000
  H   H1813     1.0  0.90787  0.26390  0.41430  1.0000
  H   H1814     1.0  0.87823  0.42264  0.43042  1.0000
  C   C1023     1.0  0.54971  0.24716  0.54116  1.0000
  S   S237      1.0  0.65451  0.44850  0.48549  1.0000
  C   C1024     1.0  0.55910  0.60487  0.38300  1.0000
  H   H1815     1.0  0.67652  0.61589  0.54285  1.0000
  H   H1816     1.0  0.70106  0.56781  0.52876  1.0000
  H   H1817     1.0  0.81026  0.39876  0.55855  1.0000
  H   H1818     1.0  0.66280  0.28167  0.44957  1.0000
  N   N57       1.0  0.75764  0.13219  0.36613  1.0000
  C   C1025     1.0  0.96109  0.35756  0.53697  1.0000
  H   H1819     1.0  0.70534  0.30952  0.47681  1.0000
  C   C1026     1.0  0.70181  0.37428  0.46035  1.0000
  H   H1820     1.0  0.59136  0.29736  0.40852  1.0000
  H   H1821     1.0  0.59116  0.17779  0.54785  1.0000
  Fe  Fe116     1.0  0.91682  0.53413  0.37949  1.0000
  H   H1822     1.0  0.72316  0.38538  0.45244  1.0000
  H   H1823     1.0  0.67923  0.40654  0.56904  1.0000
  C   C1027     1.0  0.88170  0.16360  0.47526  1.0000
  C   C1028     1.0  0.75124  0.54035  0.53377  1.0000
  H   H1824     1.0  0.89381  0.51947  0.55975  1.0000
  Fe  Fe117     1.0  0.60943  0.43719  0.51014  1.0000
  C   C1029     1.0  0.77277  0.51735  0.54912  1.0000
  C   C1030     1.0  0.87343  0.59227  0.39523  1.0000
  C   C1031     1.0  0.99843  0.61918  0.52012  1.0000
  H   H1825     1.0  0.96739  0.16090  0.60410  1.0000
  C   C1032     1.0  0.83775  0.34152  0.56322  1.0000
  H   H1826     1.0  0.94629  0.58222  0.59090  1.0000
  H   H1827     1.0  0.85043  0.40080  0.40048  1.0000
  N   N58       1.0  0.70092  0.35556  0.50990  1.0000
  H   H1828     1.0  0.72985  0.57634  0.44990  1.0000
  H   H1829     1.0  0.68161  0.17758  0.40303  1.0000
  H   H1830     1.0  0.65037  0.25078  0.56541  1.0000
  C   C1033     1.0  0.95943  0.26756  0.45058  1.0000
  S   S238      1.0  0.59323  0.38941  0.52578  1.0000
  H   H1831     1.0  0.76689  0.58734  0.39081  1.0000
  H   H1832     1.0  0.76481  0.30383  0.38819  1.0000
  H   H1833     1.0  0.56080  0.58990  0.46367  1.0000
  C   C1034     1.0  0.02397  0.41045  0.58293  1.0000
  H   H1834     1.0  0.80294  0.57179  0.53637  1.0000
  H   H1835     1.0  0.74759  0.48017  0.41579  1.0000
  C   C1035     1.0  0.69418  0.35668  0.40796  1.0000
  H   H1836     1.0  0.70940  0.42242  0.53086  1.0000
  C   C1036     1.0  0.82117  0.39831  0.51748  1.0000
  C   C1037     1.0  0.61460  0.33518  0.37105  1.0000
  C   C1038     1.0  0.59834  0.32108  0.41282  1.0000
  C   C1039     1.0  0.79883  0.20968  0.39691  1.0000
  C   C1040     1.0  0.61622  0.38239  0.42365  1.0000
  H   H1837     1.0  0.57944  0.32681  0.49358  1.0000
  C   C1041     1.0  0.63264  0.32230  0.58837  1.0000
  C   C1042     1.0  0.71824  0.32787  0.49648  1.0000
  S   S239      1.0  0.01587  0.57369  0.39991  1.0000
  H   H1838     1.0  0.85871  0.43244  0.57469  1.0000
  S   S240      1.0  0.59354  0.46113  0.44234  1.0000
  H   H1839     1.0  0.96232  0.59593  0.45043  1.0000
  H   H1840     1.0  0.74017  0.54828  0.57196  1.0000
  H   H1841     1.0  0.95077  0.24500  0.43567  1.0000
  H   H1842     1.0  0.72007  0.59495  0.56915  1.0000
  H   H1843     1.0  0.90374  0.46554  0.58179  1.0000
  C   C1043     1.0  0.81276  0.42804  0.49249  1.0000
  H   H1844     1.0  0.78801  0.52857  0.57575  1.0000
  H   H1845     1.0  0.77559  0.44944  0.47040  1.0000
  H   H1846     1.0  0.01279  0.41425  0.54675  1.0000
  S   S241      1.0  0.63700  0.51908  0.47141  1.0000
  C   C1044     1.0  0.59365  0.58717  0.59184  1.0000
  C   C1045     1.0  0.60076  0.36834  0.46622  1.0000
  H   H1847     1.0  0.70832  0.33782  0.39773  1.0000
  H   H1848     1.0  0.73480  0.52721  0.51189  1.0000
  H   H1849     1.0  0.55496  0.49970  0.40469  1.0000
  H   H1850     1.0  0.84835  0.60303  0.46798  1.0000
  C   C1046     1.0  0.70239  0.40731  0.56436  1.0000
  H   H1851     1.0  0.58365  0.60920  0.60079  1.0000
  C   C1047     1.0  0.59773  0.19485  0.46899  1.0000
  S   S242      1.0  0.69794  0.21452  0.52913  1.0000
  S   S243      1.0  0.87581  0.55390  0.41049  1.0000
  H   H1852     1.0  0.00401  0.25602  0.51427  1.0000
  N   N59       1.0  0.94402  0.61363  0.52654  1.0000
  H   H1853     1.0  0.54633  0.61091  0.54377  1.0000
  C   C1048     1.0  0.95844  0.32479  0.51440  1.0000
  H   H1854     1.0  0.67436  0.16105  0.46710  1.0000
  C   C1049     1.0  0.85882  0.61186  0.43161  1.0000
  H   H1855     1.0  0.76915  0.42421  0.52524  1.0000
  C   C1050     1.0  0.68347  0.15673  0.42555  1.0000
  H   H1856     1.0  0.68289  0.16396  0.59515  1.0000
  H   H1857     1.0  0.76309  0.53523  0.43207  1.0000
  H   H1858     1.0  0.97874  0.31414  0.51874  1.0000
  H   H1859     1.0  0.90970  0.41208  0.49942  1.0000
  H   H1860     1.0  0.86083  0.26691  0.53765  1.0000
  C   C1051     1.0  0.95166  0.29414  0.36947  1.0000
  H   H1861     1.0  0.00108  0.29171  0.44031  1.0000
  C   C1052     1.0  0.54565  0.60170  0.44091  1.0000
  C   C1053     1.0  0.91284  0.28566  0.43679  1.0000
  C   C1054     1.0  0.67047  0.34664  0.52508  1.0000
  H   H1862     1.0  0.61009  0.13634  0.45077  1.0000
  H   H1863     1.0  0.87738  0.36661  0.56798  1.0000
  C   C1055     1.0  0.65116  0.26006  0.43913  1.0000
  H   H1864     1.0  0.91031  0.55920  0.49874  1.0000
  H   H1865     1.0  0.83013  0.30028  0.60853  1.0000
  C   C1056     1.0  0.77485  0.60247  0.58194  1.0000
  H   H1866     1.0  0.68704  0.39320  0.46641  1.0000
  N   N60       1.0  0.94404  0.29320  0.42918  1.0000
  H   H1867     1.0  0.88500  0.36850  0.47697  1.0000
  H   H1868     1.0  0.89539  0.57567  0.55979  1.0000
  H   H1869     1.0  0.99739  0.22377  0.46894  1.0000
  H   H1870     1.0  0.63008  0.26527  0.42707  1.0000
  H   H1871     1.0  0.71644  0.30597  0.57457  1.0000
  H   H1872     1.0  0.74792  0.60953  0.47582  1.0000
  H   H1873     1.0  0.68727  0.60978  0.47292  1.0000
  H   H1874     1.0  0.80045  0.59459  0.41768  1.0000
  C   C1057     1.0  0.66735  0.24229  0.39430  1.0000
  H   H1875     1.0  0.71572  0.28168  0.39061  1.0000
  C   C1058     1.0  0.86483  0.37876  0.46947  1.0000
  Fe  Fe118     1.0  0.59298  0.50236  0.49750  1.0000
  N   N61       1.0  0.76295  0.56683  0.50078  1.0000
  C   C1059     1.0  0.66904  0.20775  0.57500  1.0000
  C   C1060     1.0  0.99117  0.43004  0.43309  1.0000
  C   C1061     1.0  0.62309  0.36589  0.37618  1.0000
  H   H1876     1.0  0.02195  0.38582  0.59148  1.0000
  C   C1062     1.0  0.89222  0.38578  0.37952  1.0000
  C   C1063     1.0  0.90959  0.19655  0.53292  1.0000
  H   H1877     1.0  0.67235  0.34700  0.41128  1.0000
  C   C1064     1.0  0.86999  0.26832  0.49569  1.0000
  H   H1878     1.0  0.77514  0.40880  0.45720  1.0000
  H   H1879     1.0  0.64838  0.24598  0.47495  1.0000
  C   C1065     1.0  0.66697  0.18059  0.60263  1.0000
  C   C1066     1.0  0.74864  0.28576  0.52279  1.0000
  H   H1880     1.0  0.93468  0.34005  0.45047  1.0000
  H   H1881     1.0  0.99704  0.47794  0.45395  1.0000
  C   C1067     1.0  0.85508  0.37234  0.56569  1.0000
  H   H1882     1.0  0.60221  0.21845  0.48470  1.0000
  H   H1883     1.0  0.95600  0.26691  0.49469  1.0000
  H   H1884     1.0  0.79418  0.60416  0.50288  1.0000
  C   C1068     1.0  0.78118  0.42739  0.48605  1.0000
  C   C1069     1.0  0.89987  0.28255  0.49499  1.0000
  C   C1070     1.0  0.71389  0.58961  0.52805  1.0000
  H   H1885     1.0  0.91027  0.46808  0.50985  1.0000
  H   H1886     1.0  0.62184  0.31114  0.55454  1.0000
  H   H1887     1.0  0.56636  0.23885  0.56486  1.0000
  C   C1071     1.0  0.91373  0.56353  0.54151  1.0000
  C   C1072     1.0  0.89973  0.42218  0.53695  1.0000
  S   S244      1.0  0.60560  0.47726  0.56758  1.0000
  H   H1888     1.0  0.94140  0.36954  0.53360  1.0000
  H   H1889     1.0  0.97883  0.37029  0.51539  1.0000
  H   H1890     1.0  0.95881  0.56781  0.52746  1.0000
  C   C1073     1.0  0.85905  0.18953  0.55260  1.0000
  C   C1074     1.0  0.94204  0.58179  0.54778  1.0000
  C   C1075     1.0  0.84349  0.32171  0.60977  1.0000
  H   H1891     1.0  0.58855  0.57865  0.55138  1.0000
  H   H1892     1.0  0.90489  0.40842  0.57049  1.0000
  C   C1076     1.0  0.73221  0.31348  0.54289  1.0000
  H   H1893     1.0  0.84782  0.15280  0.37225  1.0000
  H   H1894     1.0  0.02902  0.24764  0.45849  1.0000
  C   C1077     1.0  0.71383  0.37502  0.55343  1.0000
  C   C1078     1.0  0.72776  0.14210  0.36956  1.0000
  C   C1079     1.0  0.88523  0.20299  0.56530  1.0000
  H   H1895     1.0  0.62337  0.34476  0.59831  1.0000
  H   H1896     1.0  0.56400  0.17111  0.36680  1.0000
  H   H1897     1.0  0.88478  0.36306  0.36391  1.0000
  H   H1898     1.0  0.02227  0.14309  0.60814  1.0000
  H   H1899     1.0  0.89989  0.62261  0.52597  1.0000
  H   H1900     1.0  0.84862  0.38380  0.60483  1.0000
  H   H1901     1.0  0.86586  0.31561  0.60732  1.0000
  H   H1902     1.0  0.60270  0.13807  0.60349  1.0000
  H   H1903     1.0  0.77383  0.47461  0.58942  1.0000
  C   C1080     1.0  0.75940  0.28200  0.36659  1.0000
  C   C1081     1.0  0.79971  0.61694  0.61030  1.0000
  H   H1904     1.0  0.67418  0.33562  0.60981  1.0000
  H   H1905     1.0  0.66204  0.98084  0.73295  1.0000
  S   S245      1.0  0.02561  0.82453  0.80607  1.0000
  H   H1906     1.0  0.85350  0.68967  0.69918  1.0000
  H   H1907     1.0  0.70462  0.89508  0.68795  1.0000
  H   H1908     1.0  0.72313  0.74524  0.64558  1.0000
  H   H1909     1.0  0.98079  0.79803  0.71919  1.0000
  C   C1082     1.0  0.74782  0.07191  0.68393  1.0000
  C   C1083     1.0  0.96695  0.67084  0.71767  1.0000
  H   H1910     1.0  0.99311  0.11482  0.71712  1.0000
  C   C1084     1.0  0.92322  0.85503  0.63071  1.0000
  C   C1085     1.0  0.96246  0.80293  0.64294  1.0000
  H   H1911     1.0  0.88459  0.98503  0.82338  1.0000
  H   H1912     1.0  0.96978  0.84712  0.68024  1.0000
  H   H1913     1.0  0.72732  0.98180  0.68036  1.0000
  H   H1914     1.0  0.70614  0.67346  0.62108  1.0000
  S   S246      1.0  0.72607  0.10302  0.68742  1.0000
  H   H1915     1.0  0.75502  0.67055  0.64611  1.0000
  H   H1916     1.0  0.64243  0.02459  0.69458  1.0000
  C   C1086     1.0  0.54178  0.75950  0.68884  1.0000
  H   H1917     1.0  0.91837  0.70135  0.70080  1.0000
  H   H1918     1.0  0.71374  0.10927  0.85805  1.0000
  H   H1919     1.0  0.98464  0.89702  0.67631  1.0000
  H   H1920     1.0  0.95596  0.67627  0.68218  1.0000
  C   C1087     1.0  0.96747  0.90538  0.65412  1.0000
  H   H1921     1.0  0.55875  0.82196  0.81090  1.0000
  C   C1088     1.0  0.95346  0.00711  0.82446  1.0000
  C   C1089     1.0  0.54228  0.00740  0.66109  1.0000
  H   H1922     1.0  0.55811  0.68031  0.75907  1.0000
  H   H1923     1.0  0.62893  0.84305  0.69952  1.0000
  C   C1090     1.0  0.98202  0.78752  0.67803  1.0000
  C   C1091     1.0  0.62562  0.79356  0.80036  1.0000
  H   H1924     1.0  0.99560  0.63648  0.73677  1.0000
  H   H1925     1.0  0.84985  0.83966  0.86017  1.0000
  C   C1092     1.0  0.03584  0.71456  0.72170  1.0000
  H   H1926     1.0  0.65796  0.05049  0.74283  1.0000
  H   H1927     1.0  0.03158  0.70568  0.76259  1.0000
  H   H1928     1.0  0.00407  0.78953  0.66056  1.0000
  H   H1929     1.0  0.95870  0.66134  0.80212  1.0000
  C   C1093     1.0  0.94835  0.12073  0.83394  1.0000
  S   S247      1.0  0.64187  0.94250  0.63945  1.0000
  C   C1094     1.0  0.54806  0.77737  0.74050  1.0000
  H   H1930     1.0  0.90215  0.63715  0.82884  1.0000
  C   C1095     1.0  0.87348  0.79847  0.71308  1.0000
  H   H1931     1.0  0.95717  0.93486  0.77103  1.0000
  S   S248      1.0  0.57465  0.93049  0.67267  1.0000
  H   H1932     1.0  0.93371  0.64482  0.76019  1.0000
  C   C1096     1.0  0.90696  0.98379  0.81672  1.0000
  S   S249      1.0  0.61440  0.67427  0.75403  1.0000
  C   C1097     1.0  0.55743  0.01438  0.61275  1.0000
  H   H1933     1.0  0.67400  0.83588  0.65130  1.0000
  H   H1934     1.0  0.86876  0.78678  0.81911  1.0000
  H   H1935     1.0  0.03334  0.83432  0.69275  1.0000
  H   H1936     1.0  0.89814  0.67047  0.72886  1.0000
  S   S250      1.0  0.82952  0.97337  0.80982  1.0000
  C   C1098     1.0  0.88611  0.80409  0.80986  1.0000
  Fe  Fe119     1.0  0.85125  0.92984  0.79133  1.0000
  H   H1937     1.0  0.98282  0.70627  0.81474  1.0000
  H   H1938     1.0  0.90232  0.02008  0.69587  1.0000
  C   C1099     1.0  0.91126  0.11858  0.66697  1.0000
  C   C1100     1.0  0.73662  0.76003  0.67068  1.0000
  H   H1939     1.0  0.99323  0.83979  0.62382  1.0000
  H   H1940     1.0  0.86904  0.70932  0.78690  1.0000
  H   H1941     1.0  0.98235  0.68982  0.72498  1.0000
  H   H1942     1.0  0.59588  0.07676  0.61782  1.0000
  H   H1943     1.0  0.93186  0.99600  0.69250  1.0000
  C   C1101     1.0  0.91874  0.95697  0.79520  1.0000
  H   H1944     1.0  0.63169  0.78821  0.71460  1.0000
  H   H1945     1.0  0.98779  0.97945  0.79482  1.0000
  H   H1946     1.0  0.64422  0.97146  0.85843  1.0000
  H   H1947     1.0  0.59596  0.11427  0.69247  1.0000
  S   S251      1.0  0.67447  0.70346  0.70683  1.0000
  C   C1102     1.0  0.78300  0.04149  0.63542  1.0000
  S   S252      1.0  0.62960  0.75481  0.81276  1.0000
  H   H1948     1.0  0.83271  0.65903  0.77212  1.0000
  C   C1103     1.0  0.74742  0.05249  0.72711  1.0000
  C   C1104     1.0  0.62114  0.81446  0.84361  1.0000
  H   H1949     1.0  0.55935  0.76344  0.65789  1.0000
  Fe  Fe120     1.0  0.65607  0.70463  0.62719  1.0000
  S   S253      1.0  0.61679  0.72664  0.66157  1.0000
  H   H1950     1.0  0.58303  0.05348  0.84365  1.0000
  C   C1105     1.0  0.88274  0.08813  0.75725  1.0000
  H   H1951     1.0  0.90444  0.08015  0.74923  1.0000
  H   H1952     1.0  0.88390  0.11047  0.77913  1.0000
  C   C1106     1.0  0.81137  0.66077  0.79220  1.0000
  C   C1107     1.0  0.68930  0.95209  0.81027  1.0000
  Fe  Fe121     1.0  0.63367  0.72143  0.74190  1.0000
  H   H1953     1.0  0.91253  0.83209  0.62556  1.0000
  C   C1108     1.0  0.72599  0.79283  0.67415  1.0000
  C   C1109     1.0  0.66043  0.02842  0.72007  1.0000
  H   H1954     1.0  0.56617  0.87613  0.84384  1.0000
  C   C1110     1.0  0.87646  0.82062  0.76094  1.0000
  H   H1955     1.0  0.03265  0.69548  0.69201  1.0000
  C   C1111     1.0  0.94628  0.66632  0.76782  1.0000
  S   S254      1.0  0.77914  0.84581  0.75775  1.0000
  H   H1956     1.0  0.87522  0.65889  0.80657  1.0000
  H   H1957     1.0  0.89022  0.73917  0.75466  1.0000
  H   H1958     1.0  0.99213  0.94250  0.61490  1.0000
  C   C1112     1.0  0.96732  0.72401  0.82469  1.0000
  C   C1113     1.0  0.03600  0.85612  0.71377  1.0000
  H   H1959     1.0  0.64085  0.00130  0.78336  1.0000
  H   H1960     1.0  0.92334  0.85906  0.67483  1.0000
  H   H1961     1.0  0.91521  0.02900  0.85044  1.0000
  H   H1962     1.0  0.76545  0.01324  0.75861  1.0000
  C   C1114     1.0  0.58035  0.09462  0.61889  1.0000
  C   C1115     1.0  0.97387  0.93918  0.64465  1.0000
  H   H1963     1.0  0.97033  0.87918  0.77805  1.0000
  H   H1964     1.0  0.87016  0.06669  0.68474  1.0000
  N   N62       1.0  0.89170  0.82344  0.85969  1.0000
  Fe  Fe122     1.0  0.59948  0.67874  0.67210  1.0000
  S   S255      1.0  0.80589  0.99222  0.67396  1.0000
  H   H1965     1.0  0.74945  0.76001  0.75243  1.0000
  H   H1966     1.0  0.99800  0.64640  0.66785  1.0000
  H   H1967     1.0  0.88633  0.67163  0.61901  1.0000
  S   S256      1.0  0.55721  0.66345  0.64614  1.0000
  H   H1968     1.0  0.68013  0.02985  0.69345  1.0000
  C   C1116     1.0  0.79611  0.62938  0.79221  1.0000
  H   H1969     1.0  0.57303  0.11583  0.79831  1.0000
  H   H1970     1.0  0.85550  0.83023  0.77050  1.0000
  H   H1971     1.0  0.70793  0.95140  0.78101  1.0000
  H   H1972     1.0  0.77404  0.63276  0.80720  1.0000
  H   H1973     1.0  0.87681  0.64192  0.66518  1.0000
  H   H1974     1.0  0.97906  0.95126  0.68265  1.0000
  H   H1975     1.0  0.86488  0.85076  0.61838  1.0000
  C   C1117     1.0  0.66098  0.00208  0.75819  1.0000
  H   H1976     1.0  0.68850  0.09453  0.81259  1.0000
  C   C1118     1.0  0.79857  0.78906  0.76744  1.0000
  Fe  Fe123     1.0  0.01667  0.03331  0.79762  1.0000
  H   H1977     1.0  0.96740  0.12272  0.62792  1.0000
  H   H1978     1.0  0.86643  0.81072  0.67902  1.0000
  H   H1979     1.0  0.85732  0.78029  0.72328  1.0000
  N   N63       1.0  0.92709  0.69223  0.78212  1.0000
  H   H1980     1.0  0.87557  0.71874  0.66566  1.0000
  H   H1981     1.0  0.70596  0.00548  0.76555  1.0000
  N   N64       1.0  0.72493  0.80833  0.62166  1.0000
  H   H1982     1.0  0.79977  0.67674  0.76958  1.0000
  H   H1983     1.0  0.95753  0.88974  0.84543  1.0000
  H   H1984     1.0  0.72581  0.03958  0.85339  1.0000
  H   H1985     1.0  0.71709  0.89707  0.79190  1.0000
  C   C1119     1.0  0.69241  0.84809  0.66781  1.0000
  C   C1120     1.0  0.97066  0.83734  0.63848  1.0000
  H   H1986     1.0  0.55160  0.80170  0.73009  1.0000
  C   C1121     1.0  0.98324  0.75503  0.82387  1.0000
  C   C1122     1.0  0.79205  0.81662  0.79425  1.0000
  H   H1987     1.0  0.97358  0.03839  0.63348  1.0000
  C   C1123     1.0  0.89067  0.65821  0.83697  1.0000
  H   H1988     1.0  0.95267  0.72898  0.74550  1.0000
  H   H1989     1.0  0.71394  0.74656  0.74547  1.0000
  S   S257      1.0  0.63707  0.65753  0.63084  1.0000
  C   C1124     1.0  0.88227  0.71517  0.75012  1.0000
  H   H1990     1.0  0.66748  0.88605  0.69609  1.0000
  H   H1991     1.0  0.75869  0.75948  0.65349  1.0000
  C   C1125     1.0  0.62239  0.85639  0.78272  1.0000
  Fe  Fe124     1.0  0.60135  0.96054  0.61726  1.0000
  H   H1992     1.0  0.83458  0.07514  0.62939  1.0000
  C   C1126     1.0  0.86843  0.08996  0.70403  1.0000
  C   C1127     1.0  0.78318  0.02252  0.67897  1.0000
  H   H1993     1.0  0.97594  0.85496  0.83232  1.0000
  H   H1994     1.0  0.81285  0.74376  0.77397  1.0000
  H   H1995     1.0  0.69370  0.84090  0.70946  1.0000
  C   C1128     1.0  0.57567  0.10583  0.67722  1.0000
  C   C1129     1.0  0.76570  0.06646  0.63815  1.0000
  C   C1130     1.0  0.02822  0.64445  0.83141  1.0000
  C   C1131     1.0  0.98320  0.64220  0.70329  1.0000
  H   H1996     1.0  0.69716  0.87683  0.84415  1.0000
  H   H1997     1.0  0.57128  0.77532  0.84191  1.0000
  H   H1998     1.0  0.55277  0.99789  0.69298  1.0000
  Fe  Fe125     1.0  0.65368  0.65683  0.71191  1.0000
  H   H1999     1.0  0.73368  0.94304  0.69679  1.0000
  C   C1132     1.0  0.92181  0.83580  0.85848  1.0000
  C   C1133     1.0  0.72010  0.84162  0.63369  1.0000
  C   C1134     1.0  0.91158  0.68631  0.83567  1.0000
  Fe  Fe126     1.0  0.79614  0.89324  0.77676  1.0000
  H   H2000     1.0  0.79609  0.78605  0.72501  1.0000
  H   H2001     1.0  0.98659  0.08572  0.76519  1.0000
  H   H2002     1.0  0.84551  0.09259  0.71427  1.0000
  H   H2003     1.0  0.73332  0.98672  0.83552  1.0000
  H   H2004     1.0  0.68586  0.02980  0.81038  1.0000
  H   H2005     1.0  0.71951  0.71022  0.83513  1.0000
  C   C1135     1.0  0.92431  0.00866  0.83231  1.0000
  H   H2006     1.0  0.03915  0.88722  0.83928  1.0000
  H   H2007     1.0  0.96841  0.99975  0.61410  1.0000
  N   N65       1.0  0.68784  0.98354  0.83685  1.0000
  H   H2008     1.0  0.93675  0.03640  0.70802  1.0000
  C   C1136     1.0  0.68653  0.00610  0.79307  1.0000
  S   S258      1.0  0.01683  0.02398  0.70934  1.0000
  H   H2009     1.0  0.73891  0.80671  0.70206  1.0000
  C   C1137     1.0  0.62635  0.83534  0.73960  1.0000
  H   H2010     1.0  0.96887  0.77372  0.83526  1.0000
  S   S259      1.0  0.89768  0.92440  0.78062  1.0000
  H   H2011     1.0  0.89115  0.83947  0.74796  1.0000
  H   H2012     1.0  0.92282  0.04772  0.61671  1.0000
  H   H2013     1.0  0.74248  0.72267  0.72248  1.0000
  C   C1138     1.0  0.62803  0.80406  0.74824  1.0000
  H   H2014     1.0  0.90493  0.79100  0.79646  1.0000
  H   H2015     1.0  0.67057  0.94640  0.78745  1.0000
  Fe  Fe127     1.0  0.80446  0.95961  0.74071  1.0000
  H   H2016     1.0  0.95798  0.09909  0.73062  1.0000
  C   C1139     1.0  0.76532  0.02788  0.72491  1.0000
  H   H2017     1.0  0.79188  0.62956  0.64731  1.0000
  S   S260      1.0  0.82750  0.91708  0.72006  1.0000
  H   H2018     1.0  0.58870  0.99871  0.82375  1.0000
  S   S261      1.0  0.82179  0.90266  0.84672  1.0000
  Fe  Fe128     1.0  0.61472  0.90892  0.68838  1.0000
  C   C1140     1.0  0.04062  0.88290  0.68481  1.0000
  C   C1141     1.0  0.03437  0.85767  0.76982  1.0000
  S   S262      1.0  0.97508  0.03803  0.84406  1.0000
  C   C1142     1.0  0.94347  0.72239  0.78577  1.0000
  H   H2019     1.0  0.94071  0.79951  0.66107  1.0000
  H   H2020     1.0  0.73378  0.05704  0.76261  1.0000
  C   C1143     1.0  0.61991  0.84576  0.83488  1.0000
  C   C1144     1.0  0.75065  0.68435  0.61314  1.0000
  C   C1145     1.0  0.86330  0.71298  0.70353  1.0000
  C   C1146     1.0  0.60428  0.11455  0.85680  1.0000
  H   H2021     1.0  0.92916  0.74086  0.79920  1.0000
  H   H2022     1.0  0.87233  0.87443  0.67705  1.0000
  C   C1147     1.0  0.68692  0.88196  0.67047  1.0000
  C   C1148     1.0  0.93039  0.02493  0.62387  1.0000
  H   H2023     1.0  0.91852  0.86955  0.79693  1.0000
  H   H2024     1.0  0.67968  0.88940  0.78877  1.0000
  C   C1149     1.0  0.72688  0.94907  0.61309  1.0000
  C   C1150     1.0  0.92510  0.01905  0.68368  1.0000
  H   H2025     1.0  0.56777  0.76900  0.75412  1.0000
  H   H2026     1.0  0.89374  0.78803  0.70048  1.0000
  C   C1151     1.0  0.88383  0.64662  0.62301  1.0000
  C   C1152     1.0  0.96526  0.98079  0.80104  1.0000
  H   H2027     1.0  0.77964  0.81171  0.65401  1.0000
  H   H2028     1.0  0.56694  0.08668  0.70203  1.0000
  H   H2029     1.0  0.84611  0.72900  0.71020  1.0000
  C   C1153     1.0  0.69657  0.89542  0.81570  1.0000
  H   H2030     1.0  0.70460  0.79120  0.69487  1.0000
  H   H2031     1.0  0.02082  0.73237  0.71536  1.0000
  C   C1154     1.0  0.93318  0.85274  0.80788  1.0000
  S   S263      1.0  0.62129  0.89602  0.77266  1.0000
  C   C1155     1.0  0.87350  0.87330  0.63258  1.0000
  H   H2032     1.0  0.86499  0.04229  0.77363  1.0000
  C   C1156     1.0  0.94791  0.95557  0.78725  1.0000
  H   H2033     1.0  0.87788  0.06314  0.83057  1.0000
  H   H2034     1.0  0.69874  0.95343  0.68438  1.0000
  H   H2035     1.0  0.73737  0.85229  0.65654  1.0000
  C   C1157     1.0  0.86665  0.06524  0.79392  1.0000
  C   C1158     1.0  0.72139  0.95736  0.67243  1.0000
  H   H2036     1.0  0.99362  0.75917  0.78358  1.0000
  C   C1159     1.0  0.97782  0.10605  0.74883  1.0000
  C   C1160     1.0  0.73556  0.74653  0.72615  1.0000
  C   C1161     1.0  0.90704  0.69366  0.73871  1.0000
  H   H2037     1.0  0.71698  0.81841  0.79893  1.0000
  H   H2038     1.0  0.61282  0.09389  0.83615  1.0000
  H   H2039     1.0  0.94781  0.90347  0.68049  1.0000
  H   H2040     1.0  0.92840  0.64556  0.62812  1.0000
  C   C1162     1.0  0.80836  0.76510  0.79507  1.0000
  C   C1163     1.0  0.96096  0.87018  0.81654  1.0000
  H   H2041     1.0  0.68146  0.83124  0.80858  1.0000
  H   H2042     1.0  0.68381  0.88980  0.62993  1.0000
  H   H2043     1.0  0.01537  0.62644  0.81426  1.0000
  S   S264      1.0  0.77033  0.93467  0.79081  1.0000
  H   H2044     1.0  0.76929  0.93663  0.62289  1.0000
  H   H2045     1.0  0.68711  0.79360  0.78196  1.0000
  S   S265      1.0  0.61229  0.87444  0.62058  1.0000
  H   H2046     1.0  0.87596  0.86552  0.83409  1.0000
  H   H2047     1.0  0.93684  0.83606  0.77382  1.0000
  C   C1164     1.0  0.69317  0.11324  0.84219  1.0000
  H   H2048     1.0  0.84519  0.07301  0.80589  1.0000
  H   H2049     1.0  0.97580  0.76288  0.68024  1.0000
  H   H2050     1.0  0.90002  0.70662  0.85097  1.0000
  H   H2051     1.0  0.91066  0.90218  0.62179  1.0000
  H   H2052     1.0  0.92130  0.09631  0.65934  1.0000
  C   C1165     1.0  0.69477  0.81141  0.81060  1.0000
  H   H2053     1.0  0.94674  0.09533  0.83382  1.0000
  H   H2054     1.0  0.68236  0.78831  0.61880  1.0000
  H   H2055     1.0  0.86027  0.89105  0.61864  1.0000
  H   H2056     1.0  0.69700  0.75356  0.83893  1.0000
  C   C1166     1.0  0.81213  0.76841  0.84972  1.0000
  H   H2057     1.0  0.72899  0.65673  0.85054  1.0000
  C   C1167     1.0  0.69062  0.92506  0.84747  1.0000
  C   C1168     1.0  0.79535  0.82000  0.84940  1.0000
  H   H2058     1.0  0.95507  0.94925  0.63043  1.0000
  H   H2059     1.0  0.81278  0.67034  0.83370  1.0000
  Fe  Fe129     1.0  0.79763  0.94505  0.85889  1.0000
  C   C1169     1.0  0.03868  0.88591  0.79646  1.0000
  H   H2060     1.0  0.54753  0.74452  0.85209  1.0000
  N   N66       1.0  0.87984  0.11403  0.66539  1.0000
  H   H2061     1.0  0.72896  0.77306  0.85346  1.0000
  H   H2062     1.0  0.99975  0.75561  0.85290  1.0000
  H   H2063     1.0  0.93641  0.81722  0.86183  1.0000
  H   H2064     1.0  0.61161  0.76408  0.00364  1.0000
  H   H2065     1.0  0.00558  0.09487  0.98586  1.0000
  Fe  Fe130     1.0  0.80957  0.67583  0.04218  1.0000
  H   H2066     1.0  0.92670  0.68241  0.86615  1.0000
  H   H2067     1.0  0.00380  0.65769  0.03111  1.0000
  H   H2068     1.0  0.03145  0.00118  0.01109  1.0000
  H   H2069     1.0  0.55770  0.65092  0.94888  1.0000
  H   H2070     1.0  0.78944  0.06435  0.03851  1.0000
  H   H2071     1.0  0.65825  0.98229  0.10104  1.0000
  C   C1170     1.0  0.72390  0.72795  0.91786  1.0000
  H   H2072     1.0  0.56081  0.05063  0.93410  1.0000
  Fe  Fe131     1.0  0.01631  0.83511  0.89462  1.0000
  H   H2073     1.0  0.88858  0.65706  0.92438  1.0000
  N   N67       1.0  0.59442  0.08453  0.94533  1.0000
  H   H2074     1.0  0.92662  0.67012  0.03599  1.0000
  H   H2075     1.0  0.90129  0.73243  0.95211  1.0000
  C   C1171     1.0  0.87434  0.99570  0.04318  1.0000
  Fe  Fe132     1.0  0.57156  0.87110  0.05547  1.0000
  H   H2076     1.0  0.01574  0.00062  0.91885  1.0000
  C   C1172     1.0  0.99964  0.96929  0.98020  1.0000
  S   S266      1.0  0.81726  0.76445  0.03629  1.0000
  H   H2077     1.0  0.69411  0.69347  0.88338  1.0000
  C   C1173     1.0  0.87421  0.65594  0.89143  1.0000
  H   H2078     1.0  0.60802  0.63923  0.92299  1.0000
  H   H2079     1.0  0.98070  0.71302  0.96502  1.0000
  C   C1174     1.0  0.55444  0.62636  0.95868  1.0000
  H   H2080     1.0  0.57553  0.78391  0.92905  1.0000
  C   C1175     1.0  0.74490  0.79040  0.95731  1.0000
  C   C1176     1.0  0.70987  0.71276  0.07011  1.0000
  H   H2081     1.0  0.74591  0.73565  0.90572  1.0000
  S   S267      1.0  0.80016  0.62539  0.04724  1.0000
  H   H2082     1.0  0.72443  0.71762  0.95758  1.0000
  C   C1177     1.0  0.75075  0.93209  0.95714  1.0000
  C   C1178     1.0  0.54950  0.99065  0.08024  1.0000
  C   C1179     1.0  0.70666  0.76922  0.86909  1.0000
  C   C1180     1.0  0.90446  0.10137  0.92629  1.0000
  H   H2083     1.0  0.67657  0.11295  0.87558  1.0000
  C   C1181     1.0  0.71467  0.77619  0.96642  1.0000
  C   C1182     1.0  0.56349  0.64768  0.04977  1.0000
  S   S268      1.0  0.82769  0.73860  0.88015  1.0000
  H   H2084     1.0  0.72840  0.70474  0.04823  1.0000
  S   S269      1.0  0.98227  0.81088  0.94611  1.0000
  H   H2085     1.0  0.89373  0.81579  0.94433  1.0000
  H   H2086     1.0  0.76058  0.01986  0.91108  1.0000
  H   H2087     1.0  0.68159  0.07591  0.94607  1.0000
  H   H2088     1.0  0.72347  0.85247  0.09887  1.0000
  C   C1183     1.0  0.01876  0.65959  0.87903  1.0000
  H   H2089     1.0  0.62384  0.95235  0.94145  1.0000
  H   H2090     1.0  0.71336  0.76436  0.00506  1.0000
  H   H2091     1.0  0.87997  0.06036  0.05010  1.0000
  H   H2092     1.0  0.67969  0.83178  0.05243  1.0000
  C   C1184     1.0  0.80545  0.79586  0.87719  1.0000
  H   H2093     1.0  0.00249  0.06491  0.93544  1.0000
  C   C1185     1.0  0.85253  0.98675  0.95580  1.0000
  Fe  Fe133     1.0  0.81911  0.72996  0.96798  1.0000
  H   H2094     1.0  0.83075  0.04998  0.08379  1.0000
  H   H2095     1.0  0.59318  0.11323  0.01771  1.0000
  C   C1186     1.0  0.63568  0.97090  0.96260  1.0000
  C   C1187     1.0  0.96526  0.11321  0.92388  1.0000
  H   H2096     1.0  0.93843  0.77129  0.10042  1.0000
  C   C1188     1.0  0.98547  0.67645  0.11022  1.0000
  H   H2097     1.0  0.59066  0.03607  0.95985  1.0000
  C   C1189     1.0  0.01108  0.97574  0.92318  1.0000
  S   S270      1.0  0.00552  0.88156  0.92971  1.0000
  H   H2098     1.0  0.92522  0.85104  0.89406  1.0000
  N   N68       1.0  0.95528  0.66852  0.09860  1.0000
  H   H2099     1.0  0.65471  0.80783  0.09133  1.0000
  Fe  Fe134     1.0  0.01473  0.80764  0.00528  1.0000
  C   C1190     1.0  0.59285  0.04019  0.87348  1.0000
  H   H2100     1.0  0.65443  0.00940  0.87755  1.0000
  C   C1191     1.0  0.62498  0.74982  0.97542  1.0000
  S   S271      1.0  0.01518  0.76854  0.05963  1.0000
  S   S272      1.0  0.98561  0.65014  0.91023  1.0000
  H   H2101     1.0  0.86333  0.79878  0.91577  1.0000
  C   C1192     1.0  0.03728  0.67118  0.07953  1.0000
  C   C1193     1.0  0.71470  0.99096  0.86392  1.0000
  H   H2102     1.0  0.55760  0.83326  0.90688  1.0000
  H   H2103     1.0  0.87020  0.99526  0.92844  1.0000
  H   H2104     1.0  0.94419  0.70719  0.95115  1.0000
  C   C1194     1.0  0.73494  0.67499  0.88011  1.0000
  H   H2105     1.0  0.03867  0.64759  0.09328  1.0000
  C   C1195     1.0  0.74961  0.90347  0.93077  1.0000
  H   H2106     1.0  0.96149  0.66612  0.01197  1.0000
  H   H2107     1.0  0.65779  0.65246  0.93583  1.0000
  C   C1196     1.0  0.72570  0.88404  0.93840  1.0000
  N   N69       1.0  0.86254  0.97228  0.00446  1.0000
  H   H2108     1.0  0.86297  0.08093  0.94727  1.0000
  H   H2109     1.0  0.95809  0.74473  0.97136  1.0000
  C   C1197     1.0  0.03590  0.68252  0.90190  1.0000
  H   H2110     1.0  0.66202  0.76323  0.01513  1.0000
  H   H2111     1.0  0.74771  0.80177  0.91847  1.0000
  H   H2112     1.0  0.86377  0.10897  0.89643  1.0000
  C   C1198     1.0  0.89647  0.75687  0.95742  1.0000
  H   H2113     1.0  0.86051  0.63799  0.02832  1.0000
  H   H2114     1.0  0.02879  0.69425  0.93890  1.0000
  C   C1199     1.0  0.67110  0.07563  0.98701  1.0000
  H   H2115     1.0  0.98012  0.98186  0.98843  1.0000
  H   H2116     1.0  0.96788  0.98871  0.07668  1.0000
  C   C1200     1.0  0.88831  0.83263  0.06224  1.0000
  S   S273      1.0  0.00593  0.85247  0.04706  1.0000
  H   H2117     1.0  0.87439  0.84990  0.05238  1.0000
  H   H2118     1.0  0.72932  0.96276  0.01398  1.0000
  H   H2119     1.0  0.54510  0.70168  0.09772  1.0000
  H   H2120     1.0  0.61940  0.80661  0.88417  1.0000
  H   H2121     1.0  0.68102  0.05850  0.01000  1.0000
  H   H2122     1.0  0.67613  0.95589  0.93593  1.0000
  C   C1201     1.0  0.95897  0.71984  0.97694  1.0000
  C   C1202     1.0  0.89809  0.01793  0.02038  1.0000
  C   C1203     1.0  0.84431  0.86009  0.95762  1.0000
  C   C1204     1.0  0.87256  0.10320  0.93439  1.0000
  C   C1205     1.0  0.58416  0.05243  0.93076  1.0000
  H   H2123     1.0  0.88916  0.75682  0.87435  1.0000
  H   H2124     1.0  0.70317  0.89858  0.10997  1.0000
  H   H2125     1.0  0.55002  0.02735  0.02584  1.0000
  H   H2126     1.0  0.84362  0.87627  0.99282  1.0000
  S   S274      1.0  0.61104  0.84967  0.07561  1.0000
  H   H2127     1.0  0.55692  0.74735  0.99467  1.0000
  H   H2128     1.0  0.91415  0.97868  0.94185  1.0000
  N   N70       1.0  0.01154  0.97748  0.07908  1.0000
  C   C1206     1.0  0.90503  0.95506  0.94044  1.0000
  H   H2129     1.0  0.73855  0.63675  0.08891  1.0000
  H   H2130     1.0  0.91191  0.09235  0.96323  1.0000
  H   H2131     1.0  0.85712  0.00917  0.06234  1.0000
  H   H2132     1.0  0.55915  0.00483  0.87132  1.0000
  C   C1207     1.0  0.65532  0.76256  0.97358  1.0000
  C   C1208     1.0  0.72845  0.94063  0.99333  1.0000
  C   C1209     1.0  0.83698  0.95637  0.03230  1.0000
  H   H2133     1.0  0.63711  0.04303  0.97407  1.0000
  H   H2134     1.0  0.70069  0.81736  0.89434  1.0000
  Fe  Fe135     1.0  0.63389  0.88554  0.02543  1.0000
  C   C1210     1.0  0.92431  0.78828  0.08989  1.0000
  S   S275      1.0  0.84821  0.69991  0.00586  1.0000
  C   C1211     1.0  0.69187  0.79953  0.86720  1.0000
  H   H2135     1.0  0.91864  0.00712  0.02088  1.0000
  C   C1212     1.0  0.73988  0.02732  0.92841  1.0000
  C   C1213     1.0  0.65956  0.70811  0.09057  1.0000
  H   H2136     1.0  0.00863  0.69789  0.04126  1.0000
  C   C1214     1.0  0.67504  0.74213  0.93700  1.0000
  H   H2137     1.0  0.61596  0.04135  0.86518  1.0000
  C   C1215     1.0  0.89981  0.77209  0.90352  1.0000
  C   C1216     1.0  0.84231  0.93707  0.08085  1.0000
  C   C1217     1.0  0.82485  0.02810  0.91693  1.0000
  C   C1218     1.0  0.88389  0.94849  0.98902  1.0000
  H   H2138     1.0  0.99411  0.94447  0.98128  1.0000
  H   H2139     1.0  0.03913  0.96239  0.01180  1.0000
  H   H2140     1.0  0.81357  0.04935  0.92736  1.0000
  H   H2141     1.0  0.89548  0.02444  0.97892  1.0000
  S   S276      1.0  0.78063  0.70325  0.99904  1.0000
  H   H2142     1.0  0.63056  0.07090  0.02764  1.0000
  H   H2143     1.0  0.86187  0.63386  0.89332  1.0000
  H   H2144     1.0  0.67571  0.99522  0.95601  1.0000
  H   H2145     1.0  0.87311  0.92627  0.97896  1.0000
  C   C1219     1.0  0.58234  0.09223  0.00158  1.0000
  H   H2146     1.0  0.84484  0.83667  0.97247  1.0000
  H   H2147     1.0  0.55437  0.11927  0.08872  1.0000
  H   H2148     1.0  0.01780  0.92885  0.07945  1.0000
  H   H2149     1.0  0.65541  0.78630  0.96023  1.0000
  H   H2150     1.0  0.82610  0.94089  0.00328  1.0000
  C   C1220     1.0  0.64622  0.63522  0.96142  1.0000
  H   H2151     1.0  0.63830  0.96380  0.00385  1.0000
  H   H2152     1.0  0.70072  0.79569  0.97316  1.0000
  H   H2153     1.0  0.66420  0.73562  0.90009  1.0000
  H   H2154     1.0  0.88916  0.86623  0.94245  1.0000
  H   H2155     1.0  0.82127  0.97315  0.04748  1.0000
  H   H2156     1.0  0.69820  0.03255  0.90454  1.0000
  H   H2157     1.0  0.03357  0.08983  0.93418  1.0000
  Fe  Fe136     1.0  0.74574  0.10416  0.05152  1.0000
  H   H2158     1.0  0.98346  0.93800  0.06654  1.0000
  C   C1221     1.0  0.71627  0.70204  0.87663  1.0000
  C   C1222     1.0  0.68368  0.69875  0.06064  1.0000
  S   S277      1.0  0.77870  0.95813  0.94064  1.0000
  H   H2159     1.0  0.54545  0.11891  0.98940  1.0000
  C   C1223     1.0  0.87146  0.84891  0.86623  1.0000
  C   C1224     1.0  0.75120  0.81454  0.00094  1.0000
  H   H2160     1.0  0.62350  0.72603  0.98921  1.0000
  H   H2161     1.0  0.01396  0.04123  0.07632  1.0000
  H   H2162     1.0  0.90020  0.04258  0.09721  1.0000
  H   H2163     1.0  0.87464  0.75837  0.97551  1.0000
  C   C1225     1.0  0.67689  0.81663  0.08686  1.0000
  C   C1226     1.0  0.61470  0.64050  0.96445  1.0000
  H   H2164     1.0  0.93061  0.72287  0.04748  1.0000
  H   H2165     1.0  0.80843  0.79864  0.91948  1.0000
  H   H2166     1.0  0.69033  0.79687  0.07837  1.0000
  H   H2167     1.0  0.72474  0.86241  0.91639  1.0000
  C   C1227     1.0  0.01041  0.08876  0.94296  1.0000
  S   S278      1.0  0.67096  0.87106  0.97101  1.0000
  H   H2168     1.0  0.99520  0.96813  0.89479  1.0000
  H   H2169     1.0  0.73221  0.66559  0.92080  1.0000
  H   H2170     1.0  0.73594  0.83291  0.00219  1.0000
  H   H2171     1.0  0.68640  0.92884  0.02535  1.0000
  H   H2172     1.0  0.67467  0.09846  0.00677  1.0000
  H   H2173     1.0  0.84362  0.03374  0.88975  1.0000
  C   C1228     1.0  0.63966  0.06751  0.98596  1.0000
  H   H2174     1.0  0.89607  0.94384  0.02383  1.0000
  C   C1229     1.0  0.70418  0.92135  0.00003  1.0000
  C   C1230     1.0  0.66182  0.98569  0.87476  1.0000
  C   C1231     1.0  0.97162  0.05311  0.09704  1.0000
  C   C1232     1.0  0.78666  0.05006  0.07281  1.0000
  C   C1233     1.0  0.54666  0.87384  0.87071  1.0000
  H   H2175     1.0  0.94465  0.94018  0.90272  1.0000
  H   H2176     1.0  0.95010  0.04275  0.09673  1.0000
  C   C1234     1.0  0.66277  0.00693  0.09473  1.0000
  C   C1235     1.0  0.75967  0.04046  0.09245  1.0000
  C   C1236     1.0  0.70245  0.89341  0.97123  1.0000
  C   C1237     1.0  0.94853  0.67791  0.04400  1.0000
  C   C1238     1.0  0.83322  0.01420  0.96794  1.0000
  C   C1239     1.0  0.99268  0.03135  0.06984  1.0000
  H   H2177     1.0  0.57520  0.64462  0.08574  1.0000
  C   C1240     1.0  0.87035  0.86787  0.92012  1.0000
  H   H2178     1.0  0.61693  0.75017  0.93503  1.0000
  C   C1241     1.0  0.92939  0.93360  0.93641  1.0000
  H   H2179     1.0  0.81040  0.01207  0.89607  1.0000
  H   H2180     1.0  0.74231  0.05152  0.94267  1.0000
  H   H2181     1.0  0.77266  0.82493  0.99252  1.0000
  H   H2182     1.0  0.92606  0.62940  0.09622  1.0000
  H   H2183     1.0  0.58583  0.07356  0.02886  1.0000
  H   H2184     1.0  0.70752  0.92895  0.87486  1.0000
  H   H2185     1.0  0.88285  0.98463  0.07732  1.0000
  C   C1242     1.0  0.02188  0.97830  0.02077  1.0000
  H   H2186     1.0  0.95645  0.08930  0.92260  1.0000
  S   S279      1.0  0.62728  0.68849  0.08376  1.0000
  H   H2187     1.0  0.81355  0.00732  0.99153  1.0000
  C   C1243     1.0  0.95114  0.71281  0.03534  1.0000
  H   H2188     1.0  0.73299  0.01333  0.96346  1.0000
  H   H2189     1.0  0.66928  0.79583  0.87849  1.0000
  C   C1244     1.0  0.93522  0.81491  0.06583  1.0000
  S   S280      1.0  0.73076  0.05641  0.06838  1.0000
  H   H2190     1.0  0.91101  0.76823  0.98521  1.0000
  C   C1245     1.0  0.55043  0.09781  0.00912  1.0000
  H   H2191     1.0  0.76672  0.89659  0.90300  1.0000
  H   H2192     1.0  0.61720  0.86175  0.86872  1.0000
  H   H2193     1.0  0.89382  0.95136  0.90341  1.0000
  H   H2194     1.0  0.84413  0.03276  0.99058  1.0000
  H   H2195     1.0  0.85661  0.91837  0.06904  1.0000
  H   H2196     1.0  0.71698  0.97556  0.89715  1.0000
  C   C1246     1.0  0.66447  0.97675  0.93349  1.0000
  H   H2197     1.0  0.94049  0.93486  0.97385  1.0000
  H   H2198     1.0  0.75016  0.80405  0.04063  1.0000
  N   N71       1.0  0.70480  0.75452  0.92264  1.0000
  H   H2199     1.0  0.90930  0.08485  0.89267  1.0000
  H   H2200     1.0  0.54982  0.88761  0.90809  1.0000
  C   C1247     1.0  0.62607  0.08723  0.94570  1.0000
  H   H2201     1.0  0.86965  0.89226  0.91039  1.0000
  H   H2202     1.0  0.82471  0.86207  0.93718  1.0000
  C   C1248     1.0  0.58451  0.10724  0.90756  1.0000
  H   H2203     1.0  0.54211  0.07966  0.08892  1.0000
  C   C1249     1.0  0.71834  0.02428  0.88630  1.0000
  S   S281      1.0  0.93124  0.86881  0.01632  1.0000
  H   H2204     1.0  0.92249  0.77359  0.89081  1.0000
  C   C1250     1.0  0.91732  0.83694  0.05110  1.0000
  Fe  Fe137     1.0  0.97479  0.85667  0.98625  1.0000
  H   H2205     1.0  0.68516  0.01004  0.07985  1.0000
  C   C1251     1.0  0.55173  0.74331  0.95243  1.0000
  H   H2206     1.0  0.85489  0.80191  0.09278  1.0000
  H   H2207     1.0  0.96327  0.12120  0.96677  1.0000
  C   C1252     1.0  0.98780  0.99867  0.09169  1.0000
  H   H2208     1.0  0.67523  0.72051  0.95884  1.0000
  Fe  Fe138     1.0  0.84395  0.73276  0.07641  1.0000
  H   H2209     1.0  0.85942  0.67476  0.89716  1.0000
  S   S282      1.0  0.59418  0.90411  0.99978  1.0000
  C   C1253     1.0  0.99696  0.11058  0.90719  1.0000
  H   H2210     1.0  0.92168  0.90977  0.92841  1.0000
  H   H2211     1.0  0.59157  0.99201  0.89357  1.0000
  C   C1254     1.0  0.00116  0.94528  0.09113  1.0000
  H   H2212     1.0  0.57336  0.66870  0.03179  1.0000
  H   H2213     1.0  0.91768  0.06216  0.04070  1.0000
  H   H2214     1.0  0.62340  0.99174  0.96510  1.0000
  H   H2215     1.0  0.86666  0.12095  0.96545  1.0000
  H   H2216     1.0  0.68231  0.68002  0.03151  1.0000
  H   H2217     1.0  0.99017  0.03086  0.02611  1.0000
  H   H2218     1.0  0.78984  0.84105  0.87064  1.0000
  C   C1255     1.0  0.81471  0.92255  0.10492  1.0000
  H   H2219     1.0  0.67012  0.92130  0.87086  1.0000
  C   C1256     1.0  0.87728  0.80540  0.08478  1.0000
  Fe  Fe139     1.0  0.03754  0.87275  0.98725  1.0000
  H   H2220     1.0  0.80543  0.90605  0.07568  1.0000
  H   H2221     1.0  0.84118  0.96926  0.93103  1.0000
  C   C1257     1.0  0.55418  0.77358  0.92368  1.0000
  H   H2222     1.0  0.95845  0.72083  0.86613  1.0000
  H   H2223     1.0  0.56659  0.72688  0.93277  1.0000
  S   S283      1.0  0.63712  0.91973  0.09347  1.0000
  H   H2224     1.0  0.03045  0.96308  0.91262  1.0000
  H   H2225     1.0  0.63286  0.11154  0.95375  1.0000
  H   H2226     1.0  0.97278  0.07495  0.07582  1.0000
  C   C1258     1.0  0.89531  0.78290  0.09728  1.0000
  C   C1259     1.0  0.88634  0.80368  0.90773  1.0000
  H   H2227     1.0  0.63631  0.08098  0.90591  1.0000
  H   H2228     1.0  0.56338  0.09975  0.89466  1.0000
  H   H2229     1.0  0.76069  0.77274  0.95826  1.0000
  H   H2230     1.0  0.64944  0.01454  0.06382  1.0000
  Fe  Fe140     1.0  0.59557  0.93561  0.07244  1.0000
  C   C1260     1.0  0.81008  0.04130  0.09760  1.0000
  C   C1261     1.0  0.00796  0.67584  0.06170  1.0000
  H   H2231     1.0  0.61164  0.66405  0.98048  1.0000
  Fe  Fe141     1.0  0.78104  0.73528  0.07105  1.0000
  C   C1262     1.0  0.94858  0.63470  0.10332  1.0000
  H   H2232     1.0  0.95756  0.81786  0.05813  1.0000
  C   C1263     1.0  0.89911  0.04756  0.05433  1.0000
  H   H2233     1.0  0.65407  0.63731  0.00207  1.0000
  S   S284      1.0  0.58570  0.98529  0.06870  1.0000
  H   H2234     1.0  0.96707  0.72452  0.05973  1.0000
  H   H2235     1.0  0.87376  0.11495  0.05744  1.0000
  C   C1264     1.0  0.71194  0.73666  0.10833  1.0000
  H   H2236     1.0  0.00012  0.10080  0.86595  1.0000
  C   C1265     1.0  0.58245  0.00693  0.86526  1.0000
  H   H2237     1.0  0.75739  0.68209  0.87110  1.0000
  H   H2238     1.0  0.80671  0.84243  0.11194  1.0000
  C   C1266     1.0  0.55046  0.76934  0.86239  1.0000
  H   H2239     1.0  0.57548  0.90689  0.24049  1.0000
  H   H2240     1.0  0.95136  0.62752  0.14454  1.0000
  H   H2241     1.0  0.93525  0.72282  0.23251  1.0000
  S   S285      1.0  0.94562  0.08850  0.35552  1.0000
  C   C1267     1.0  0.03834  0.93603  0.25513  1.0000
  C   C1268     1.0  0.72500  0.63968  0.12662  1.0000
  H   H2242     1.0  0.76224  0.71095  0.20757  1.0000
  C   C1269     1.0  0.03536  0.98813  0.11279  1.0000
  C   C1270     1.0  0.57056  0.00336  0.23307  1.0000
  H   H2243     1.0  0.83564  0.77111  0.27648  1.0000
  H   H2244     1.0  0.85162  0.95144  0.11288  1.0000
  H   H2245     1.0  0.81030  0.67043  0.32628  1.0000
  C   C1271     1.0  0.76606  0.09767  0.21912  1.0000
  C   C1272     1.0  0.88662  0.10432  0.16122  1.0000
  H   H2246     1.0  0.98760  0.69986  0.12886  1.0000
  H   H2247     1.0  0.99200  0.66124  0.14104  1.0000
  H   H2248     1.0  0.94622  0.10380  0.19566  1.0000
  H   H2249     1.0  0.71824  0.87629  0.29896  1.0000
  H   H2250     1.0  0.81662  0.86026  0.17459  1.0000
  H   H2251     1.0  0.77688  0.66940  0.25476  1.0000
  H   H2252     1.0  0.98221  0.78382  0.18554  1.0000
  H   H2253     1.0  0.81850  0.81964  0.16357  1.0000
  H   H2254     1.0  0.90919  0.84189  0.17040  1.0000
  S   S286      1.0  0.80763  0.70620  0.11610  1.0000
  H   H2255     1.0  0.00559  0.81701  0.19114  1.0000
  Fe  Fe142     1.0  0.61248  0.88489  0.14250  1.0000
  H   H2256     1.0  0.92150  0.05816  0.18011  1.0000
  H   H2257     1.0  0.89689  0.64377  0.30198  1.0000
  H   H2258     1.0  0.63750  0.12083  0.33564  1.0000
  H   H2259     1.0  0.03939  0.95850  0.23955  1.0000
  C   C1273     1.0  0.73010  0.85568  0.28692  1.0000
  H   H2260     1.0  0.79359  0.63287  0.33498  1.0000
  H   H2261     1.0  0.78168  0.72539  0.29235  1.0000
  C   C1274     1.0  0.73969  0.66182  0.16526  1.0000
  C   C1275     1.0  0.82971  0.86138  0.34898  1.0000
  C   C1276     1.0  0.69396  0.66280  0.32716  1.0000
  H   H2262     1.0  0.62442  0.95946  0.32827  1.0000
  S   S287      1.0  0.64309  0.68348  0.22852  1.0000
  C   C1277     1.0  0.66166  0.73160  0.12960  1.0000
  H   H2263     1.0  0.73713  0.81246  0.32290  1.0000
  S   S288      1.0  0.81538  0.87192  0.29060  1.0000
  N   N72       1.0  0.72723  0.85886  0.18445  1.0000
  S   S289      1.0  0.63384  0.75219  0.32482  1.0000
  C   C1278     1.0  0.72547  0.83349  0.33261  1.0000
  S   S290      1.0  0.02546  0.08368  0.31556  1.0000
  C   C1279     1.0  0.68455  0.83406  0.13803  1.0000
  H   H2264     1.0  0.75143  0.64091  0.27562  1.0000
  H   H2265     1.0  0.84085  0.10286  0.22974  1.0000
  C   C1280     1.0  0.98344  0.90610  0.15909  1.0000
  H   H2266     1.0  0.78750  0.76178  0.22041  1.0000
  H   H2267     1.0  0.74892  0.74185  0.31799  1.0000
  H   H2268     1.0  0.61838  0.99826  0.16097  1.0000
  S   S291      1.0  0.74428  0.75585  0.11777  1.0000
  H   H2269     1.0  0.88036  0.88383  0.25846  1.0000
  H   H2270     1.0  0.64521  0.86313  0.32401  1.0000
  H   H2271     1.0  0.61393  0.03564  0.14151  1.0000
  H   H2272     1.0  0.67914  0.65457  0.29722  1.0000
  C   C1281     1.0  0.76462  0.67012  0.34045  1.0000
  C   C1282     1.0  0.01589  0.70067  0.25984  1.0000
  C   C1283     1.0  0.88612  0.63490  0.33800  1.0000
  C   C1284     1.0  0.71665  0.84097  0.13681  1.0000
  H   H2273     1.0  0.64305  0.73866  0.15314  1.0000
  H   H2274     1.0  0.66121  0.96917  0.31127  1.0000
  H   H2275     1.0  0.75273  0.86251  0.28278  1.0000
  H   H2276     1.0  0.92983  0.79012  0.20915  1.0000
  H   H2277     1.0  0.02407  0.65902  0.33543  1.0000
  S   S292      1.0  0.62765  0.88107  0.22441  1.0000
  H   H2278     1.0  0.01286  0.73410  0.19890  1.0000
  C   C1285     1.0  0.79311  0.65721  0.34869  1.0000
  C   C1286     1.0  0.85492  0.11943  0.30702  1.0000
  H   H2279     1.0  0.90513  0.91381  0.18556  1.0000
  Fe  Fe143     1.0  0.03100  0.05270  0.24253  1.0000
  Fe  Fe144     1.0  0.81106  0.92237  0.29464  1.0000
  H   H2280     1.0  0.73023  0.10571  0.27333  1.0000
  H   H2281     1.0  0.57792  0.81332  0.30952  1.0000
  C   C1287     1.0  0.01069  0.73289  0.24314  1.0000
  N   N73       1.0  0.88635  0.10446  0.22150  1.0000
  C   C1288     1.0  0.63035  0.84477  0.24972  1.0000
  C   C1289     1.0  0.71167  0.69120  0.30660  1.0000
  S   S293      1.0  0.79908  0.00871  0.30955  1.0000
  H   H2282     1.0  0.97385  0.90320  0.20044  1.0000
  H   H2283     1.0  0.70266  0.68082  0.20544  1.0000
  H   H2284     1.0  0.03360  0.85362  0.30593  1.0000
  H   H2285     1.0  0.79941  0.94039  0.11661  1.0000
  C   C1290     1.0  0.80634  0.83978  0.15591  1.0000
  C   C1291     1.0  0.03499  0.87669  0.29209  1.0000
  H   H2286     1.0  0.62489  0.06519  0.32194  1.0000
  C   C1292     1.0  0.71630  0.90922  0.14098  1.0000
  C   C1293     1.0  0.72064  0.66796  0.21728  1.0000
  H   H2287     1.0  0.78818  0.09098  0.21927  1.0000
  H   H2288     1.0  0.85656  0.74922  0.22720  1.0000
  H   H2289     1.0  0.81867  0.91034  0.14134  1.0000
  C   C1294     1.0  0.63349  0.78746  0.29432  1.0000
  H   H2290     1.0  0.00699  0.10182  0.18569  1.0000
  H   H2291     1.0  0.66628  0.09984  0.30384  1.0000
  C   C1295     1.0  0.64151  0.95940  0.29564  1.0000
  C   C1296     1.0  0.88631  0.89886  0.17798  1.0000
  Fe  Fe145     1.0  0.81922  0.98246  0.23994  1.0000
  H   H2292     1.0  0.02760  0.99263  0.15528  1.0000
  H   H2293     1.0  0.72635  0.81743  0.22867  1.0000
  H   H2294     1.0  0.75978  0.65210  0.17398  1.0000
  C   C1297     1.0  0.01257  0.62323  0.25378  1.0000
  S   S294      1.0  0.59142  0.67313  0.32008  1.0000
  H   H2295     1.0  0.69656  0.70721  0.29238  1.0000
  N   N74       1.0  0.73444  0.68482  0.26293  1.0000
  H   H2296     1.0  0.70728  0.64359  0.33416  1.0000
  H   H2297     1.0  0.98324  0.00116  0.13589  1.0000
  H   H2298     1.0  0.74447  0.68327  0.14370  1.0000
  S   S295      1.0  0.88206  0.74741  0.11948  1.0000
  C   C1298     1.0  0.63161  0.01202  0.26512  1.0000
  H   H2299     1.0  0.95874  0.83213  0.17273  1.0000
  C   C1299     1.0  0.96186  0.82546  0.21415  1.0000
  H   H2300     1.0  0.92421  0.69346  0.27871  1.0000
  C   C1300     1.0  0.85498  0.75812  0.26931  1.0000
  C   C1301     1.0  0.01156  0.89490  0.29922  1.0000
  C   C1302     1.0  0.93582  0.68523  0.13903  1.0000
  C   C1303     1.0  0.92347  0.70049  0.23675  1.0000
  H   H2301     1.0  0.00829  0.69903  0.30256  1.0000
  H   H2302     1.0  0.66332  0.04960  0.13920  1.0000
  H   H2303     1.0  0.56501  0.77791  0.11574  1.0000
  C   C1304     1.0  0.98680  0.80476  0.21037  1.0000
  H   H2304     1.0  0.02553  0.74998  0.26097  1.0000
  Fe  Fe146     1.0  0.76653  0.97025  0.31323  1.0000
  S   S296      1.0  0.57104  0.90331  0.12707  1.0000
  H   H2305     1.0  0.57499  0.99116  0.19403  1.0000
  H   H2306     1.0  0.70695  0.95462  0.11791  1.0000
  H   H2307     1.0  0.76701  0.88177  0.20234  1.0000
  C   C1305     1.0  0.71943  0.84123  0.23429  1.0000
  H   H2308     1.0  0.90116  0.70327  0.22888  1.0000
  H   H2309     1.0  0.85318  0.73835  0.29586  1.0000
  H   H2310     1.0  0.56953  0.84186  0.22573  1.0000
  H   H2311     1.0  0.73827  0.91196  0.12356  1.0000
  H   H2312     1.0  0.92862  0.00844  0.22217  1.0000
  H   H2313     1.0  0.60316  0.08990  0.28886  1.0000
  H   H2314     1.0  0.88126  0.79973  0.20455  1.0000
  C   C1306     1.0  0.90853  0.85252  0.21156  1.0000
  H   H2315     1.0  0.71892  0.95334  0.18425  1.0000
  H   H2316     1.0  0.96989  0.95205  0.15899  1.0000
  H   H2317     1.0  0.95231  0.85164  0.32335  1.0000
  S   S297      1.0  0.58826  0.64143  0.19954  1.0000
  Fe  Fe147     1.0  0.98216  0.06181  0.32435  1.0000
  C   C1307     1.0  0.62454  0.08085  0.28837  1.0000
  C   C1308     1.0  0.54854  0.84901  0.24258  1.0000
  H   H2318     1.0  0.86386  0.81987  0.25925  1.0000
  H   H2319     1.0  0.76413  0.87225  0.13388  1.0000
  C   C1309     1.0  0.75872  0.86362  0.17472  1.0000
  C   C1310     1.0  0.56092  0.79569  0.31725  1.0000
  H   H2320     1.0  0.75424  0.07955  0.19680  1.0000
  C   C1311     1.0  0.71425  0.88956  0.19137  1.0000
  C   C1312     1.0  0.65731  0.02531  0.14724  1.0000
  C   C1313     1.0  0.68782  0.74583  0.13859  1.0000
  C   C1314     1.0  0.77945  0.01222  0.16003  1.0000
  C   C1315     1.0  0.76244  0.73610  0.28140  1.0000
  H   H2321     1.0  0.77706  0.82991  0.22280  1.0000
  Fe  Fe148     1.0  0.56294  0.67318  0.25319  1.0000
  C   C1316     1.0  0.88312  0.80729  0.24713  1.0000
  H   H2322     1.0  0.89488  0.01065  0.19562  1.0000
  Fe  Fe149     1.0  0.61412  0.71288  0.27932  1.0000
  C   C1317     1.0  0.75269  0.10122  0.27632  1.0000
  H   H2323     1.0  0.68928  0.76395  0.16894  1.0000
  H   H2324     1.0  0.00314  0.68521  0.23470  1.0000
  C   C1318     1.0  0.88099  0.77821  0.28109  1.0000
  C   C1319     1.0  0.75721  0.66567  0.28104  1.0000
  H   H2325     1.0  0.99177  0.79839  0.25097  1.0000
  H   H2326     1.0  0.73296  0.91899  0.35631  1.0000
  H   H2327     1.0  0.87266  0.11104  0.32712  1.0000
  H   H2328     1.0  0.78241  0.78162  0.28469  1.0000
  H   H2329     1.0  0.99693  0.64071  0.26306  1.0000
  H   H2330     1.0  0.70478  0.64872  0.11666  1.0000
  H   H2331     1.0  0.91437  0.11610  0.28362  1.0000
  H   H2332     1.0  0.67751  0.81926  0.17169  1.0000
  C   C1320     1.0  0.93654  0.67630  0.19824  1.0000
  C   C1321     1.0  0.88292  0.87311  0.21767  1.0000
  C   C1322     1.0  0.88650  0.07171  0.23817  1.0000
  H   H2333     1.0  0.72032  0.70341  0.34168  1.0000
  S   S298      1.0  0.83584  0.00931  0.16962  1.0000
  H   H2334     1.0  0.93701  0.02288  0.34339  1.0000
  C   C1323     1.0  0.85891  0.11694  0.24459  1.0000
  C   C1324     1.0  0.55835  0.90477  0.27252  1.0000
  H   H2335     1.0  0.96850  0.89611  0.13055  1.0000
  H   H2336     1.0  0.69620  0.83892  0.24196  1.0000
  H   H2337     1.0  0.61902  0.76912  0.21987  1.0000
  C   C1325     1.0  0.63378  0.97762  0.24861  1.0000
  H   H2338     1.0  0.95828  0.67347  0.20889  1.0000
  C   C1326     1.0  0.63956  0.84264  0.30105  1.0000
  S   S299      1.0  0.72095  0.98035  0.33221  1.0000
  S   S300      1.0  0.98635  0.03412  0.24724  1.0000
  S   S301      1.0  0.58303  0.71561  0.21694  1.0000
  C   C1327     1.0  0.93467  0.80886  0.23895  1.0000
  H   H2339     1.0  0.76709  0.81448  0.15958  1.0000
  H   H2340     1.0  0.72616  0.81837  0.13263  1.0000
  H   H2341     1.0  0.99236  0.88617  0.31980  1.0000
  H   H2342     1.0  0.57361  0.86557  0.30852  1.0000
  H   H2343     1.0  0.94053  0.71032  0.13787  1.0000
  H   H2344     1.0  0.69164  0.88695  0.20582  1.0000
  H   H2345     1.0  0.97641  0.05807  0.13923  1.0000
  C   C1328     1.0  0.70577  0.94115  0.15470  1.0000
  H   H2346     1.0  0.90698  0.09682  0.14241  1.0000
  S   S302      1.0  0.98532  0.94885  0.29480  1.0000
  H   H2347     1.0  0.76545  0.11926  0.19759  1.0000
  S   S303      1.0  0.84704  0.95708  0.28903  1.0000
  Fe  Fe150     1.0  0.61079  0.68350  0.16867  1.0000
  H   H2348     1.0  0.98896  0.73883  0.25724  1.0000
  C   C1329     1.0  0.01351  0.92490  0.28192  1.0000
  C   C1330     1.0  0.80652  0.02186  0.14062  1.0000
  H   H2349     1.0  0.90931  0.82231  0.33740  1.0000
  H   H2350     1.0  0.56427  0.92000  0.30656  1.0000
  H   H2351     1.0  0.93594  0.88228  0.29270  1.0000
  H   H2352     1.0  0.86753  0.91296  0.18294  1.0000
  C   C1331     1.0  0.01802  0.10796  0.14807  1.0000
  H   H2353     1.0  0.86832  0.05835  0.22220  1.0000
  C   C1332     1.0  0.64498  0.10788  0.29874  1.0000
  H   H2354     1.0  0.92431  0.65441  0.20495  1.0000
  H   H2355     1.0  0.96778  0.84635  0.23760  1.0000
  H   H2356     1.0  0.94011  0.79723  0.27533  1.0000
  H   H2357     1.0  0.68361  0.93960  0.17158  1.0000
  H   H2358     1.0  0.61610  0.81970  0.18042  1.0000
  C   C1333     1.0  0.64113  0.81405  0.32329  1.0000
  H   H2359     1.0  0.83624  0.10511  0.32078  1.0000
  H   H2360     1.0  0.67271  0.85527  0.14189  1.0000
  N   N75       1.0  0.90919  0.82790  0.25193  1.0000
  C   C1334     1.0  0.90852  0.84088  0.30867  1.0000
  H   H2361     1.0  0.56518  0.77540  0.29056  1.0000
  H   H2362     1.0  0.87050  0.08723  0.14705  1.0000
  H   H2363     1.0  0.91357  0.68196  0.12843  1.0000
  H   H2364     1.0  0.58253  0.04312  0.27823  1.0000
  H   H2365     1.0  0.88817  0.85152  0.31995  1.0000
  H   H2366     1.0  0.73504  0.01437  0.15159  1.0000
  S   S304      1.0  0.78485  0.94553  0.23964  1.0000
  H   H2367     1.0  0.64508  0.93541  0.28232  1.0000
  H   H2368     1.0  0.65050  0.97464  0.21588  1.0000
  H   H2369     1.0  0.89955  0.76407  0.27268  1.0000
  H   H2370     1.0  0.67134  0.01748  0.17675  1.0000
  H   H2371     1.0  0.72428  0.90350  0.22343  1.0000
  C   C1335     1.0  0.62588  0.02224  0.16834  1.0000
  H   H2372     1.0  0.00319  0.89352  0.15461  1.0000
  H   H2373     1.0  0.57507  0.98851  0.26595  1.0000
  H   H2374     1.0  0.88837  0.88940  0.13614  1.0000
  C   C1336     1.0  0.54177  0.77817  0.11534  1.0000
  C   C1337     1.0  0.77617  0.83500  0.17997  1.0000
  C   C1338     1.0  0.93265  0.86398  0.32204  1.0000
  C   C1339     1.0  0.74663  0.71481  0.24198  1.0000
  H   H2375     1.0  0.88314  0.06986  0.28227  1.0000
  H   H2376     1.0  0.87913  0.78437  0.32452  1.0000
  C   C1340     1.0  0.75598  0.02122  0.13562  1.0000
  C   C1341     1.0  0.55427  0.87173  0.29021  1.0000
  H   H2377     1.0  0.93010  0.06237  0.24862  1.0000
  H   H2378     1.0  0.61411  0.96716  0.23417  1.0000
  H   H2379     1.0  0.72969  0.72787  0.22631  1.0000
  C   C1342     1.0  0.98971  0.94005  0.14958  1.0000
  C   C1343     1.0  0.83065  0.83050  0.35991  1.0000
  H   H2380     1.0  0.77635  0.99856  0.19473  1.0000
  H   H2381     1.0  0.89788  0.01456  0.26682  1.0000
  Fe  Fe151     1.0  0.00153  0.99777  0.29689  1.0000
  H   H2382     1.0  0.62565  0.07935  0.20175  1.0000
  H   H2383     1.0  0.55827  0.79126  0.21167  1.0000
  N   N76       1.0  0.61947  0.03236  0.22611  1.0000
  H   H2384     1.0  0.70275  0.82727  0.34032  1.0000
  H   H2385     1.0  0.92747  0.86808  0.21185  1.0000
  H   H2386     1.0  0.86341  0.85969  0.20926  1.0000
  H   H2387     1.0  0.71167  0.64531  0.23013  1.0000
  H   H2388     1.0  0.57972  0.05008  0.20939  1.0000
  H   H2389     1.0  0.61939  0.01351  0.30472  1.0000
  H   H2390     1.0  0.75389  0.07902  0.29550  1.0000
  C   C1344     1.0  0.91352  0.05447  0.22192  1.0000
  C   C1345     1.0  0.90838  0.01999  0.22709  1.0000
  C   C1346     1.0  0.62308  0.81821  0.22022  1.0000
  H   H2391     1.0  0.65542  0.06432  0.22808  1.0000
  H   H2392     1.0  0.82202  0.81336  0.33290  1.0000
  C   C1347     1.0  0.62476  0.78954  0.24251  1.0000
  H   H2393     1.0  0.95964  0.65956  0.35822  1.0000
  H   H2394     1.0  0.65340  0.02016  0.27330  1.0000
  C   C1348     1.0  0.58800  0.03389  0.23699  1.0000
  H   H2395     1.0  0.75395  0.77730  0.24130  1.0000
  C   C1349     1.0  0.63206  0.06442  0.23339  1.0000
  Fe  Fe152     1.0  0.61821  0.64401  0.26385  1.0000
  C   C1350     1.0  0.77218  0.76603  0.25527  1.0000
  H   H2396     1.0  0.00500  0.94873  0.17784  1.0000
  H   H2397     1.0  0.54205  0.95571  0.13819  1.0000
  H   H2398     1.0  0.54196  0.67330  0.14853  1.0000
  H   H2399     1.0  0.79244  0.07974  0.34742  1.0000
  H   H2400     1.0  0.76538  0.69427  0.35469  1.0000
  H   H2401     1.0  0.04126  0.64386  0.19202  1.0000
  Fe  Fe153     1.0  0.82412  0.98048  0.35906  1.0000
  Fe  Fe154     1.0  0.03772  0.04378  0.36030  1.0000
  H   H2402     1.0  0.95837  0.12044  0.50078  1.0000
  H   H2403     1.0  0.85191  0.06514  0.43764  1.0000
  H   H2404     1.0  0.71489  0.96487  0.59105  1.0000
  C   C1351     1.0  0.84276  0.82175  0.40579  1.0000
  H   H2405     1.0  0.55806  0.80433  0.40398  1.0000
  C   C1352     1.0  0.89603  0.01251  0.38178  1.0000
  H   H2406     1.0  0.81821  0.07443  0.53675  1.0000
  H   H2407     1.0  0.58545  0.64270  0.53213  1.0000
  C   C1353     1.0  0.56461  0.00123  0.41380  1.0000
  S   S305      1.0  0.02011  0.75124  0.38118  1.0000
  H   H2408     1.0  0.87973  0.12045  0.57973  1.0000
  H   H2409     1.0  0.57244  0.92126  0.43978  1.0000
  H   H2410     1.0  0.64466  0.05585  0.46384  1.0000
  H   H2411     1.0  0.69002  0.67728  0.41183  1.0000
  C   C1354     1.0  0.02922  0.93606  0.42740  1.0000
  H   H2412     1.0  0.93872  0.81855  0.55014  1.0000
  H   H2413     1.0  0.02987  0.92327  0.46466  1.0000
  C   C1355     1.0  0.76655  0.71882  0.54303  1.0000
  H   H2414     1.0  0.75655  0.95667  0.46009  1.0000
  C   C1356     1.0  0.68257  0.96414  0.41476  1.0000
  C   C1357     1.0  0.97643  0.72403  0.43818  1.0000
  H   H2415     1.0  0.86423  0.93562  0.56228  1.0000
  C   C1358     1.0  0.00181  0.74088  0.44113  1.0000
  H   H2416     1.0  0.96560  0.65713  0.45427  1.0000
  H   H2417     1.0  0.63084  0.66525  0.49577  1.0000
  H   H2418     1.0  0.02653  0.67953  0.42722  1.0000
  C   C1359     1.0  0.96787  0.72874  0.53448  1.0000
  C   C1360     1.0  0.70145  0.79322  0.59160  1.0000
  H   H2419     1.0  0.98743  0.88649  0.58177  1.0000
  H   H2420     1.0  0.74769  0.00397  0.55394  1.0000
  C   C1361     1.0  0.92707  0.96635  0.47372  1.0000
  C   C1362     1.0  0.87298  0.65483  0.37596  1.0000
  H   H2421     1.0  0.96892  0.96952  0.49877  1.0000
  H   H2422     1.0  0.63595  0.06613  0.56068  1.0000
  C   C1363     1.0  0.72814  0.01116  0.48261  1.0000
  H   H2423     1.0  0.00075  0.07034  0.47377  1.0000
  C   C1364     1.0  0.69212  0.81088  0.54382  1.0000
  H   H2424     1.0  0.03086  0.05834  0.53899  1.0000
  H   H2425     1.0  0.03095  0.76309  0.49333  1.0000
  H   H2426     1.0  0.72955  0.03632  0.48951  1.0000
  H   H2427     1.0  0.78308  0.73206  0.52205  1.0000
  H   H2428     1.0  0.56831  0.08586  0.50189  1.0000
  C   C1365     1.0  0.56188  0.78520  0.37454  1.0000
  H   H2429     1.0  0.74158  0.08631  0.38415  1.0000
  H   H2430     1.0  0.96385  0.79112  0.60305  1.0000
  H   H2431     1.0  0.74795  0.85499  0.47780  1.0000
  H   H2432     1.0  0.58604  0.06386  0.42461  1.0000
  C   C1366     1.0  0.97574  0.81839  0.46345  1.0000
  C   C1367     1.0  0.99995  0.01979  0.53426  1.0000
  S   S306      1.0  0.87592  0.69437  0.36692  1.0000
  H   H2433     1.0  0.68178  0.83205  0.55832  1.0000
  C   C1368     1.0  0.71685  0.70547  0.55890  1.0000
  H   H2434     1.0  0.90614  0.97596  0.48387  1.0000
  H   H2435     1.0  0.95408  0.90012  0.57232  1.0000
  H   H2436     1.0  0.95801  0.02007  0.46819  1.0000
  C   C1369     1.0  0.91881  0.63137  0.54622  1.0000
  H   H2437     1.0  0.81196  0.63337  0.58399  1.0000
  H   H2438     1.0  0.68421  0.07933  0.51989  1.0000
  H   H2439     1.0  0.99466  0.12193  0.51786  1.0000
  C   C1370     1.0  0.84313  0.09241  0.60071  1.0000
  C   C1371     1.0  0.01119  0.75017  0.49112  1.0000
  H   H2440     1.0  0.00551  0.02005  0.49031  1.0000
  C   C1372     1.0  0.91770  0.06357  0.37652  1.0000
  H   H2441     1.0  0.79704  0.65891  0.39189  1.0000
  H   H2442     1.0  0.67413  0.98637  0.41145  1.0000
  N   N77       1.0  0.60366  0.11366  0.52686  1.0000
  H   H2443     1.0  0.64539  0.10841  0.48878  1.0000
  H   H2444     1.0  0.61436  0.09097  0.42324  1.0000
  C   C1373     1.0  0.96997  0.63010  0.54625  1.0000
  Fe  Fe155     1.0  0.63662  0.90910  0.57046  1.0000
  H   H2445     1.0  0.80528  0.04684  0.41769  1.0000
  H   H2446     1.0  0.56421  0.66321  0.42616  1.0000
  H   H2447     1.0  0.00099  0.99542  0.54441  1.0000
  C   C1374     1.0  0.95810  0.63721  0.37781  1.0000
  C   C1375     1.0  0.84067  0.07854  0.54449  1.0000
  H   H2448     1.0  0.74860  0.65800  0.36725  1.0000
  H   H2449     1.0  0.86719  0.63716  0.59758  1.0000
  C   C1376     1.0  0.95952  0.71805  0.48475  1.0000
  H   H2450     1.0  0.01504  0.92310  0.40076  1.0000
  H   H2451     1.0  0.84706  0.65806  0.44993  1.0000
  C   C1377     1.0  0.77023  0.86278  0.46911  1.0000
  H   H2452     1.0  0.70655  0.63727  0.51377  1.0000
  H   H2453     1.0  0.79582  0.90384  0.46345  1.0000
  C   C1378     1.0  0.87086  0.05585  0.41905  1.0000
  C   C1379     1.0  0.78681  0.08674  0.38970  1.0000
  H   H2454     1.0  0.98641  0.12051  0.44870  1.0000
  H   H2455     1.0  0.61493  0.67683  0.43725  1.0000
  H   H2456     1.0  0.55297  0.02054  0.43315  1.0000
  C   C1380     1.0  0.70485  0.90710  0.42438  1.0000
  S   S307      1.0  0.86879  0.76222  0.58573  1.0000
  H   H2457     1.0  0.81516  0.93762  0.59932  1.0000
  H   H2458     1.0  0.96392  0.83283  0.43842  1.0000
  H   H2459     1.0  0.77151  0.89735  0.55960  1.0000
  H   H2460     1.0  0.90806  0.89387  0.37692  1.0000
  H   H2461     1.0  0.77722  0.85454  0.42797  1.0000
  H   H2462     1.0  0.02260  0.66037  0.54350  1.0000
  H   H2463     1.0  0.96952  0.65518  0.54106  1.0000
  H   H2464     1.0  0.55372  0.67579  0.49215  1.0000
  C   C1381     1.0  0.71592  0.92634  0.38391  1.0000
  C   C1382     1.0  0.67188  0.94510  0.45612  1.0000
  H   H2465     1.0  0.80359  0.95346  0.48350  1.0000
  S   S308      1.0  0.79024  0.94408  0.36815  1.0000
  H   H2466     1.0  0.66305  0.65006  0.39138  1.0000
  H   H2467     1.0  0.58291  0.77664  0.38003  1.0000
  S   S309      1.0  0.67329  0.89384  0.51601  1.0000
  C   C1383     1.0  0.67633  0.67044  0.37906  1.0000
  C   C1384     1.0  0.95147  0.84051  0.54898  1.0000
  H   H2468     1.0  0.92254  0.86236  0.40856  1.0000
  H   H2469     1.0  0.94009  0.85514  0.52336  1.0000
  C   C1385     1.0  0.55626  0.90258  0.43471  1.0000
  Fe  Fe156     1.0  0.90361  0.73474  0.54796  1.0000
  H   H2470     1.0  0.76112  0.90628  0.44151  1.0000
  H   H2471     1.0  0.55157  0.90079  0.39251  1.0000
  C   C1386     1.0  0.85335  0.84389  0.44151  1.0000
  C   C1387     1.0  0.02385  0.03789  0.56209  1.0000
  H   H2472     1.0  0.96408  0.79605  0.46876  1.0000
  H   H2473     1.0  0.92908  0.65383  0.44093  1.0000
  H   H2474     1.0  0.92189  0.65558  0.53447  1.0000
  H   H2475     1.0  0.02317  0.62917  0.58883  1.0000
  H   H2476     1.0  0.73416  0.73571  0.49804  1.0000
  H   H2477     1.0  0.86065  0.89201  0.45809  1.0000
  H   H2478     1.0  0.80418  0.10158  0.40463  1.0000
  H   H2479     1.0  0.72749  0.95251  0.50625  1.0000
  H   H2480     1.0  0.66330  0.80576  0.48081  1.0000
  H   H2481     1.0  0.80122  0.97854  0.54006  1.0000
  C   C1388     1.0  0.63501  0.11257  0.52941  1.0000
  C   C1389     1.0  0.75197  0.80540  0.58710  1.0000
  H   H2482     1.0  0.00078  0.75212  0.57659  1.0000
  C   C1390     1.0  0.91887  0.03212  0.36549  1.0000
  C   C1391     1.0  0.70515  0.95508  0.37952  1.0000
  C   C1392     1.0  0.67728  0.08734  0.56116  1.0000
  H   H2483     1.0  0.92488  0.94115  0.47685  1.0000
  H   H2484     1.0  0.70767  0.77045  0.57555  1.0000
  C   C1393     1.0  0.81918  0.93596  0.55518  1.0000
  H   H2485     1.0  0.72088  0.85438  0.59598  1.0000
  S   S310      1.0  0.86809  0.83317  0.49946  1.0000
  C   C1394     1.0  0.54371  0.02634  0.57152  1.0000
  H   H2486     1.0  0.92964  0.02416  0.51635  1.0000
  H   H2487     1.0  0.88731  0.08286  0.59707  1.0000
  C   C1395     1.0  0.95102  0.01492  0.51018  1.0000
  C   C1396     1.0  0.92662  0.87955  0.37714  1.0000
  S   S311      1.0  0.84392  0.00023  0.43126  1.0000
  H   H2488     1.0  0.64778  0.81256  0.36343  1.0000
  H   H2489     1.0  0.76859  0.04159  0.40752  1.0000
  S   S312      1.0  0.59767  0.92909  0.54539  1.0000
  C   C1397     1.0  0.56015  0.65521  0.46768  1.0000
  H   H2490     1.0  0.80601  0.81228  0.53834  1.0000
  H   H2491     1.0  0.78365  0.85280  0.49753  1.0000
  H   H2492     1.0  0.85124  0.05647  0.53976  1.0000
  H   H2493     1.0  0.54408  0.96457  0.48951  1.0000
  H   H2494     1.0  0.55692  0.95533  0.38541  1.0000
  C   C1398     1.0  0.78489  0.05798  0.42228  1.0000
  H   H2495     1.0  0.96919  0.71674  0.39960  1.0000
  C   C1399     1.0  0.68341  0.91673  0.46137  1.0000
  C   C1400     1.0  0.97970  0.11221  0.48919  1.0000
  H   H2496     1.0  0.61548  0.02889  0.47671  1.0000
  H   H2497     1.0  0.84392  0.79787  0.41329  1.0000
  C   C1401     1.0  0.56913  0.87265  0.44711  1.0000
  H   H2498     1.0  0.73090  0.00597  0.43895  1.0000
  H   H2499     1.0  0.96463  0.06916  0.45760  1.0000
  H   H2500     1.0  0.89274  0.09966  0.41162  1.0000
  H   H2501     1.0  0.57622  0.87356  0.48833  1.0000
  H   H2502     1.0  0.02036  0.95873  0.43729  1.0000
  H   H2503     1.0  0.75436  0.10749  0.43954  1.0000
  H   H2504     1.0  0.76616  0.97506  0.60762  1.0000
  H   H2505     1.0  0.54594  0.76637  0.38276  1.0000
  H   H2506     1.0  0.71336  0.88496  0.42791  1.0000
  H   H2507     1.0  0.77166  0.00626  0.49541  1.0000
  H   H2508     1.0  0.93933  0.70615  0.48181  1.0000
  C   C1402     1.0  0.59142  0.08400  0.50418  1.0000
  H   H2509     1.0  0.81831  0.91146  0.54245  1.0000
  C   C1403     1.0  0.61091  0.67207  0.48043  1.0000
  C   C1404     1.0  0.84916  0.94853  0.54146  1.0000
  H   H2510     1.0  0.68404  0.07091  0.58977  1.0000
  C   C1405     1.0  0.87220  0.02441  0.40927  1.0000
  C   C1406     1.0  0.76222  0.91034  0.52850  1.0000
  H   H2511     1.0  0.55353  0.85328  0.44346  1.0000
  C   C1407     1.0  0.84065  0.88359  0.38428  1.0000
  H   H2512     1.0  0.94791  0.07221  0.55282  1.0000
  H   H2513     1.0  0.82974  0.11233  0.60478  1.0000
  H   H2514     1.0  0.75488  0.78114  0.57422  1.0000
  Fe  Fe157     1.0  0.86744  0.78222  0.50512  1.0000
  C   C1408     1.0  0.62429  0.04705  0.44975  1.0000
  H   H2515     1.0  0.84036  0.90751  0.37574  1.0000
  H   H2516     1.0  0.94181  0.97177  0.55236  1.0000
  S   S313      1.0  0.99409  0.02416  0.37397  1.0000
  H   H2517     1.0  0.58763  0.86841  0.41859  1.0000
  H   H2518     1.0  0.85037  0.09456  0.51449  1.0000
  C   C1409     1.0  0.60382  0.07281  0.44768  1.0000
  S   S314      1.0  0.83569  0.74696  0.47650  1.0000
  C   C1410     1.0  0.96968  0.06470  0.54337  1.0000
  C   C1411     1.0  0.94919  0.64191  0.43728  1.0000
  S   S315      1.0  0.68204  0.71410  0.55079  1.0000
  H   H2519     1.0  0.78005  0.06364  0.46550  1.0000
  H   H2520     1.0  0.73932  0.90405  0.53240  1.0000
  Fe  Fe158     1.0  0.83995  0.72493  0.55464  1.0000
  C   C1412     1.0  0.89374  0.07538  0.40342  1.0000
  C   C1413     1.0  0.99420  0.74386  0.53812  1.0000
  C   C1414     1.0  0.77244  0.70123  0.58585  1.0000
  H   H2521     1.0  0.66227  0.68929  0.37301  1.0000
  H   H2522     1.0  0.94499  0.89461  0.38715  1.0000
  H   H2523     1.0  0.85134  0.97300  0.55438  1.0000
  H   H2524     1.0  0.59297  0.06512  0.53160  1.0000
  C   C1415     1.0  0.67095  0.79181  0.51232  1.0000
  H   H2525     1.0  0.75101  0.81729  0.54913  1.0000
  H   H2526     1.0  0.98253  0.07692  0.57348  1.0000
  C   C1416     1.0  0.94849  0.97954  0.51170  1.0000
  C   C1417     1.0  0.77332  0.89754  0.47280  1.0000
  S   S316      1.0  0.87512  0.69615  0.52224  1.0000
  H   H2527     1.0  0.99644  0.81407  0.44188  1.0000
  H   H2528     1.0  0.73331  0.84438  0.36966  1.0000
  C   C1418     1.0  0.64533  0.08939  0.56777  1.0000
  H   H2529     1.0  0.60438  0.69327  0.50273  1.0000
  Fe  Fe159     1.0  0.87291  0.72044  0.44612  1.0000
  C   C1419     1.0  0.75090  0.99661  0.51127  1.0000
  H   H2530     1.0  0.85460  0.94622  0.49763  1.0000
  C   C1420     1.0  0.85852  0.64309  0.42189  1.0000
  H   H2531     1.0  0.80567  0.78125  0.58395  1.0000
  H   H2532     1.0  0.58111  0.99496  0.43975  1.0000
  C   C1421     1.0  0.97935  0.07733  0.48770  1.0000
  C   C1422     1.0  0.87406  0.10251  0.60943  1.0000
  S   S317      1.0  0.94289  0.72747  0.58917  1.0000
  H   H2533     1.0  0.90382  0.87706  0.56542  1.0000
  C   C1423     1.0  0.85228  0.87483  0.43076  1.0000
  H   H2534     1.0  0.71017  0.81726  0.51548  1.0000
  C   C1424     1.0  0.58832  0.64645  0.48860  1.0000
  C   C1425     1.0  0.58933  0.12132  0.58145  1.0000
  C   C1426     1.0  0.98011  0.83427  0.51782  1.0000
  S   S318      1.0  0.90436  0.75742  0.46889  1.0000
  C   C1427     1.0  0.75856  0.10299  0.39575  1.0000
  N   N78       1.0  0.76714  0.94426  0.53850  1.0000
  H   H2535     1.0  0.65261  0.78406  0.53915  1.0000
  C   C1428     1.0  0.73879  0.72083  0.52935  1.0000
  C   C1429     1.0  0.74976  0.96125  0.50271  1.0000
  H   H2536     1.0  0.68096  0.77157  0.49250  1.0000
  H   H2537     1.0  0.57480  0.00864  0.37485  1.0000
  N   N79       1.0  0.97063  0.03058  0.54814  1.0000
  H   H2538     1.0  0.70697  0.00258  0.49834  1.0000
  H   H2539     1.0  0.62844  0.03655  0.40905  1.0000
  C   C1430     1.0  0.79765  0.95413  0.52731  1.0000
  H   H2540     1.0  0.68775  0.10990  0.57003  1.0000
  H   H2541     1.0  0.93419  0.97151  0.43163  1.0000
  H   H2542     1.0  0.55502  0.03083  0.53354  1.0000
  H   H2543     1.0  0.99251  0.85589  0.51022  1.0000
  H   H2544     1.0  0.65529  0.95266  0.48466  1.0000
  H   H2545     1.0  0.99281  0.81922  0.53994  1.0000
  C   C1431     1.0  0.75874  0.95161  0.59650  1.0000
  S   S319      1.0  0.59370  0.00946  0.60404  1.0000
  C   C1432     1.0  0.80527  0.80645  0.58116  1.0000
  C   C1433     1.0  0.54449  0.97385  0.40477  1.0000
  H   H2546     1.0  0.91735  0.00772  0.60212  1.0000
  Fe  Fe160     1.0  0.57375  0.89752  0.60259  1.0000
  H   H2547     1.0  0.97036  0.62785  0.59021  1.0000
  C   C1434     1.0  0.72292  0.68621  0.59930  1.0000
  H   H2548     1.0  0.97893  0.62682  0.37254  1.0000
  H   H2549     1.0  0.89681  0.98820  0.37297  1.0000
  C   C1435     1.0  0.02327  0.63519  0.54628  1.0000
  H   H2550     1.0  0.79641  0.03689  0.59955  1.0000
  C   C1436     1.0  0.96551  0.88692  0.60019  1.0000
  C   C1437     1.0  0.96205  0.02296  0.60557  1.0000
  H   H2551     1.0  0.01686  0.04606  0.60286  1.0000
  H   H2552     1.0  0.76598  0.08130  0.60461  1.0000
  N   N80       1.0  0.95277  0.85494  0.60459  1.0000
  H   H2553     1.0  0.59644  0.62549  0.46804  1.0000
  H   H2554     1.0  0.71847  0.92555  0.60539  1.0000
  H   H2555     1.0  0.82426  0.81688  0.59868  1.0000
  H   H2556     1.0  0.56030  0.08375  0.60649  1.0000
  C   C1438     1.0  0.91184  0.63211  0.60784  1.0000
  C   C1439     1.0  0.90379  0.87856  0.60968  1.0000
  S   S320      1.0  0.80644  0.70145  0.60795  1.0000
  H   H2557     1.0  0.78013  0.84365  0.61142  1.0000
  H   H2558     1.0  0.00083  0.62449  0.47704  1.0000
  C   C1440     1.0  0.77898  0.81831  0.61210  1.0000
  H   H2559     1.0  0.63990  0.09694  0.60997  1.0000
  H   H2560     1.0  0.56233  0.11429  0.36298  1.0000
