data_image0
_chemical_formula_structural       HCH4CH2C3H2C2NHCHCH3CHC2HCH4NHCHCH3CHCH4SHCHCH2CH2SH2CH4C2HCH3CHCHSCH3CHCH2C2HCH12CH3CHC5H6CHC3H4CHCHCH3C2H2SHCH3CH3C2H2C2H2CH2C2SHCHS2HFeHCHSH2SH3CHSH5FeH5CH2SCHC3SCHSH3FeCHC3HFeHCH5SH2CHNC2SCH2C3HCH3CHFeC3H4CSH2CH2C2H2C2H2FeCH2C4H2CH3C2H3CHSFeH2CH2C4H8NH3C2H4CH3CH2CHC2H2CH4C3H4CHNCH6CHCH2SHCHCHCH2CHCHSHC2H3CH2C2HSCHCHSHC2HC2NH6CH3CH3CFeC2H2C2H2SCH3CHCH7FeH2CHC2H2FeC2HSH2CSCFeHNH4SCH2S2C3S2H2CHC2HSHNH2Fe2CHC2HC2H2CFeCHC3H2CHCH2C2H3SCHCHCFeH2SH4SCHCSCHC2H2FeHC3FeHCHCH4C2H2C2FeC2FeCHCHCHCH2CH3CFeC3NCH3C2H2CH3FeC4HCHS2H4CHCH2SHC3S2C2HSC2HCHFeH5CSH2CH6CHSH2CNSHSH2CHCSC3SH4C2HC2SH7NH10CH12NHCH2C2HCHCH2C2H3C3HCH5C2FeHFeH2C2SCH9CNHCHCHCH3C2HS2H7C3HCHC2HCHCHC2H3C2H5C2HC2H4CH3CHC2HNCH4C4HC4H2FeH4SH3SH3CHC2NC3H9CHC2HCHNHC5H4S3HSCH3CFeH2FeH3CH4CH3C2SH5CH7CHFeHC2H2C2H3C5SCSHCNFeHCH3CH2CH2C2HCH2CH5NCS2HC2SCH3SCFeCH3C2FeH2CHC3HSC2H2CH2SH6C4HSCHNH10C2H3C2HSH7CH2CH4SH7C2HC2HCH3CH2C2H2CHC2HC3HCH7C2HC3H3NH6CH3CHNHCHCSHCHCH3CHCH2CHFeSC2Fe2HCSH2CH3C2H3FeC2HSHCHCH6CHCH2S2HCH2CH5CHNSH3SC3H2FeC2H4SHSH10CHCHCFeSHCHCHCHC3H2SH5C2SCHCH2CHCH2CHCS2H3CSCFeCNH2C2H2CSCH2SFeH5FeH3CHCNH4C2HCHSH2C5NC2SH2CSC2HCH2C2HFeH3CH2SHCH7CHC2H2CH3CHC2H3CHC2HCHCH5CH4CH5CHCH6CH3C3H6CH5CH2SCH2CH2SH2CHC2HCH2C2HCHSH2FeH2C3SH2CSH2CH2CHSCHCH4FeSCH4FeH5CFeCHCH3SCFeSC2HCSH4NCFeHCH9C2HNH2CH4NC3SCH2CHCH2NSFe2HSCH3SHCHCFeH4CH2CHC3SH4CFeCNHSH4C2H4CH5SH2SH2CH2C2H2C6H2FeHCH4C3H4CH3C2H5CHC2H2CHFeHSC3HCHCSCHCH2SH2CH5NCSHSHC2HCH2CH2CH4CH2CH2FeHC2SH5CHSHC2H2C4SH5C2HCH2SH2Fe2CH2C2H6CH3FeH7SH2SH3CFeSHNCHC2SFeHCHCFeH2C2HSCHSC3HSNC2SHCHCFeHSH2CFeHC4H2CH3CNH2NCH2CH3C4H3SH4CH7C2H2SHCSH2C2SH2CH2CHCSH3C2HCFeCHCH2SH2C2FeHSHCH6NC3H6CHCSHCH5CHCHCH7CFeHCH2SCHCH4CHCHCHCH2CHC2H3CHCHCH3C2H2CH2SHSHCHC3HCSH2C2FeCH2CH3SHSCS2H3S2HSNFeCFeHCSHCH2CHFe2H4CH4CHSC2HCH7C4H4CH2CSH3FeSH3CNH2C2H3CH4CH2FeHCH2CH3SHC2H2SH2CHSC4SFeC3H3NHCFeH2FeH2CH5CFeHCHCH4CH9C3H4SC4H2SHC4H2CSH3CSH2FeH2FeCNHCH4SHCH4FeSH2CH3CHCHC2SC2H3C3H2C2H2C2HC2H2CFeH
_chemical_formula_sum              "H1280 C720 N40 S160 Fe80"
_cell_length_a       28.4624
_cell_length_b       36.726
_cell_length_c       25.5278
_cell_angle_alpha    86.0518
_cell_angle_beta     81.817
_cell_angle_gamma    80.7564

_space_group_name_H-M_alt    "P 1"
_space_group_IT_number       1

loop_
  _space_group_symop_operation_xyz
  'x, y, z'

loop_
  _atom_site_type_symbol
  _atom_site_label
  _atom_site_symmetry_multiplicity
  _atom_site_fract_x
  _atom_site_fract_y
  _atom_site_fract_z
  _atom_site_occupancy
  H   H1        1.0  0.36725  0.31479  0.66952  1.0000
  C   C1        1.0  0.03745  0.54317  0.83978  1.0000
  H   H2        1.0  0.11923  0.17798  0.89132  1.0000
  H   H3        1.0  0.35423  0.18785  0.70104  1.0000
  H   H4        1.0  0.11958  0.32893  0.78465  1.0000
  H   H5        1.0  0.25671  0.24840  0.86054  1.0000
  C   C2        1.0  0.11311  0.53316  0.78149  1.0000
  H   H6        1.0  0.30293  0.50626  0.76475  1.0000
  H   H7        1.0  0.25247  0.22729  0.73811  1.0000
  C   C3        1.0  0.05800  0.37866  0.87570  1.0000
  C   C4        1.0  0.07292  0.51958  0.80953  1.0000
  C   C5        1.0  0.99213  0.34937  0.66000  1.0000
  H   H8        1.0  0.11891  0.31310  0.89639  1.0000
  H   H9        1.0  0.01543  0.21207  0.66680  1.0000
  C   C6        1.0  0.06448  0.13765  0.81569  1.0000
  C   C7        1.0  0.31872  0.51574  0.67923  1.0000
  N   N1        1.0  0.08660  0.25784  0.77205  1.0000
  H   H10       1.0  0.25975  0.06779  0.70197  1.0000
  C   C8        1.0  0.38989  0.34962  0.75940  1.0000
  H   H11       1.0  0.29932  0.40995  0.67860  1.0000
  C   C9        1.0  0.26668  0.51266  0.67053  1.0000
  H   H12       1.0  0.09648  0.12832  0.83420  1.0000
  H   H13       1.0  0.16690  0.07388  0.82762  1.0000
  H   H14       1.0  0.25930  0.51019  0.86361  1.0000
  C   C10       1.0  0.99947  0.35994  0.70941  1.0000
  H   H15       1.0  0.17770  0.18824  0.89796  1.0000
  C   C11       1.0  0.37264  0.31310  0.75304  1.0000
  C   C12       1.0  0.02411  0.14619  0.73769  1.0000
  H   H16       1.0  0.02473  0.14407  0.69573  1.0000
  C   C13       1.0  0.28218  0.20364  0.73798  1.0000
  H   H17       1.0  0.07561  0.28991  0.84203  1.0000
  H   H18       1.0  0.02699  0.40046  0.88653  1.0000
  H   H19       1.0  0.33324  0.46618  0.72995  1.0000
  H   H20       1.0  0.16944  0.16504  0.84067  1.0000
  N   N2        1.0  0.39121  0.25733  0.69152  1.0000
  H   H21       1.0  0.31469  0.27003  0.71605  1.0000
  C   C14       1.0  0.39056  0.29822  0.69684  1.0000
  H   H22       1.0  0.10052  0.20141  0.69377  1.0000
  C   C15       1.0  0.10864  0.22189  0.79698  1.0000
  H   H23       1.0  0.42962  0.34524  0.75747  1.0000
  H   H24       1.0  0.46763  0.24537  0.69340  1.0000
  H   H25       1.0  0.20618  0.10130  0.78648  1.0000
  C   C16       1.0  0.14115  0.22405  0.84001  1.0000
  H   H26       1.0  0.21852  0.29691  0.72697  1.0000
  C   C17       1.0  0.01124  0.26613  0.84359  1.0000
  H   H27       1.0  0.02266  0.23921  0.86401  1.0000
  H   H28       1.0  0.41773  0.25361  0.87216  1.0000
  H   H29       1.0  0.25947  0.48471  0.68598  1.0000
  H   H30       1.0  0.03294  0.27481  0.71923  1.0000
  S   S1        1.0  0.98554  0.52661  0.87186  1.0000
  H   H31       1.0  0.13949  0.51512  0.75659  1.0000
  C   C18       1.0  0.14688  0.30481  0.77260  1.0000
  H   H32       1.0  0.24229  0.53195  0.69776  1.0000
  C   C19       1.0  0.20369  0.07357  0.80596  1.0000
  H   H33       1.0  0.33274  0.31807  0.75952  1.0000
  H   H34       1.0  0.29045  0.19677  0.77908  1.0000
  C   C20       1.0  0.08165  0.22910  0.68308  1.0000
  H   H35       1.0  0.04448  0.35508  0.86117  1.0000
  H   H36       1.0  0.15487  0.25829  0.72225  1.0000
  S   S2        1.0  0.12092  0.12194  0.72190  1.0000
  H   H37       1.0  0.27004  0.17933  0.72345  1.0000
  H   H38       1.0  0.17661  0.33376  0.70123  1.0000
  C   C21       1.0  0.99847  0.55469  0.69416  1.0000
  H   H39       1.0  0.16008  0.29137  0.80874  1.0000
  H   H40       1.0  0.10786  0.24541  0.66046  1.0000
  H   H41       1.0  0.37406  0.36072  0.79847  1.0000
  H   H42       1.0  0.48313  0.08329  0.73978  1.0000
  C   C22       1.0  0.12488  0.27825  0.74176  1.0000
  C   C23       1.0  0.28395  0.52310  0.88207  1.0000
  H   H43       1.0  0.11032  0.52726  0.67092  1.0000
  C   C24       1.0  0.32680  0.21274  0.70174  1.0000
  H   H44       1.0  0.42721  0.30552  0.68433  1.0000
  H   H45       1.0  0.37905  0.37032  0.72786  1.0000
  H   H46       1.0  0.38500  0.29354  0.78502  1.0000
  C   C25       1.0  0.06586  0.13508  0.76107  1.0000
  H   H47       1.0  0.03196  0.54146  0.70941  1.0000
  C   C26       1.0  0.23779  0.30531  0.88497  1.0000
  H   H48       1.0  0.32257  0.54526  0.68033  1.0000
  S   S3        1.0  0.05521  0.37152  0.71780  1.0000
  C   C27       1.0  0.18871  0.31965  0.73796  1.0000
  H   H49       1.0  0.31703  0.21817  0.66105  1.0000
  H   H50       1.0  0.43411  0.24603  0.75634  1.0000
  H   H51       1.0  0.30100  0.27794  0.83726  1.0000
  C   C28       1.0  0.43424  0.23733  0.71554  1.0000
  H   H52       1.0  0.08002  0.20594  0.81426  1.0000
  C   C29       1.0  0.34469  0.24690  0.72042  1.0000
  H   H53       1.0  0.18474  0.48117  0.67237  1.0000
  H   H54       1.0  0.30000  0.55928  0.81420  1.0000
  C   C30       1.0  0.39597  0.19984  0.87775  1.0000
  C   C31       1.0  0.44106  0.19476  0.71930  1.0000
  H   H55       1.0  0.04038  0.30868  0.79240  1.0000
  C   C32       1.0  0.05485  0.28218  0.81237  1.0000
  H   H56       1.0  0.44002  0.18329  0.68063  1.0000
  H   H57       1.0  0.36607  0.50265  0.73982  1.0000
  H   H58       1.0  0.22972  0.06745  0.83514  1.0000
  H   H59       1.0  0.17598  0.23177  0.82113  1.0000
  H   H60       1.0  0.34714  0.24254  0.76359  1.0000
  H   H61       1.0  0.10982  0.29610  0.70916  1.0000
  H   H62       1.0  0.08221  0.39037  0.84306  1.0000
  H   H63       1.0  0.36089  0.21157  0.86470  1.0000
  H   H64       1.0  0.20239  0.34008  0.75963  1.0000
  H   H65       1.0  0.13101  0.20409  0.76644  1.0000
  H   H66       1.0  0.21957  0.31413  0.84971  1.0000
  H   H67       1.0  0.15005  0.34996  0.87277  1.0000
  C   C33       1.0  0.33086  0.49656  0.73173  1.0000
  H   H68       1.0  0.41296  0.18508  0.74920  1.0000
  H   H69       1.0  0.25141  0.36429  0.65534  1.0000
  H   H70       1.0  0.06848  0.49116  0.80614  1.0000
  C   C34       1.0  0.05513  0.24899  0.73310  1.0000
  H   H71       1.0  0.42059  0.18838  0.84314  1.0000
  C   C35       1.0  0.02273  0.15487  0.84578  1.0000
  C   C36       1.0  0.27458  0.27107  0.87128  1.0000
  C   C37       1.0  0.47564  0.56431  0.66095  1.0000
  C   C38       1.0  0.15251  0.18651  0.86904  1.0000
  C   C39       1.0  0.30715  0.55065  0.85403  1.0000
  H   H72       1.0  0.12416  0.24392  0.87037  1.0000
  H   H73       1.0  0.10195  0.48187  0.65446  1.0000
  H   H74       1.0  0.02929  0.23078  0.75242  1.0000
  H   H75       1.0  0.02309  0.15910  0.88720  1.0000
  H   H76       1.0  0.25785  0.32750  0.89241  1.0000
  H   H77       1.0  0.98508  0.26248  0.81673  1.0000
  C   C40       1.0  0.41683  0.22981  0.90147  1.0000
  H   H78       1.0  0.47735  0.54080  0.77471  1.0000
  C   C41       1.0  0.12299  0.54717  0.99458  1.0000
  C   C42       1.0  0.47234  0.10216  0.14825  1.0000
  C   C43       1.0  0.08411  0.36660  0.92392  1.0000
  H   H79       1.0  0.09999  0.27263  0.08700  1.0000
  H   H80       1.0  0.09263  0.39196  0.93918  1.0000
  H   H81       1.0  0.11361  0.33463  0.13547  1.0000
  H   H82       1.0  0.06176  0.25121  0.05193  1.0000
  C   C44       1.0  0.20112  0.29682  0.93358  1.0000
  H   H83       1.0  0.32787  0.52285  0.99934  1.0000
  C   C45       1.0  0.13014  0.33826  0.90907  1.0000
  H   H84       1.0  0.00172  0.48922  0.05401  1.0000
  C   C46       1.0  0.04153  0.19529  0.14127  1.0000
  H   H85       1.0  0.21638  0.41609  0.00291  1.0000
  H   H86       1.0  0.08873  0.42223  0.04572  1.0000
  H   H87       1.0  0.18448  0.27339  0.92295  1.0000
  C   C47       1.0  0.13534  0.31703  0.00313  1.0000
  C   C48       1.0  0.32548  0.33004  0.06169  1.0000
  H   H88       1.0  0.17856  0.32801  0.12963  1.0000
  H   H89       1.0  0.45115  0.29083  0.92258  1.0000
  S   S4        1.0  0.25908  0.48032  0.96914  1.0000
  H   H90       1.0  0.03619  0.07291  0.03777  1.0000
  C   C49       1.0  0.16434  0.09921  0.00750  1.0000
  H   H91       1.0  0.04763  0.13878  0.03463  1.0000
  H   H92       1.0  0.47008  0.18629  0.93095  1.0000
  H   H93       1.0  0.47459  0.25322  0.03261  1.0000
  C   C50       1.0  0.39275  0.09696  0.12841  1.0000
  H   H94       1.0  0.44588  0.54497  0.01018  1.0000
  H   H95       1.0  0.46577  0.56355  0.14462  1.0000
  H   H96       1.0  0.16257  0.49678  0.91707  1.0000
  C   C51       1.0  0.44509  0.36703  0.12168  1.0000
  C   C52       1.0  0.10887  0.28338  0.00126  1.0000
  H   H97       1.0  0.05881  0.35445  0.95480  1.0000
  H   H98       1.0  0.11707  0.47600  0.07724  1.0000
  C   C53       1.0  0.43977  0.20556  0.02982  1.0000
  C   C54       1.0  0.30908  0.29601  0.07111  1.0000
  H   H99       1.0  0.29430  0.26145  0.90549  1.0000
  H   H100      1.0  0.08113  0.53353  0.93418  1.0000
  C   C55       1.0  0.42124  0.20987  0.08863  1.0000
  H   H101      1.0  0.26495  0.39883  0.95297  1.0000
  H   H102      1.0  0.06193  0.17468  0.11344  1.0000
  C   C56       1.0  0.45583  0.24181  0.00369  1.0000
  C   C57       1.0  0.07825  0.11743  0.02710  1.0000
  S   S5        1.0  0.20684  0.44494  0.10644  1.0000
  H   H103      1.0  0.00803  0.29587  0.91552  1.0000
  C   C58       1.0  0.32250  0.53036  0.95865  1.0000
  H   H104      1.0  0.07019  0.50856  0.99658  1.0000
  S   S6        1.0  0.30785  0.18434  0.12211  1.0000
  S   S7        1.0  0.13248  0.17294  0.01817  1.0000
  H   H105      1.0  0.13515  0.25789  0.99358  1.0000
  Fe  Fe1       1.0  0.29609  0.13505  0.08221  1.0000
  H   H106      1.0  0.99421  0.54563  0.14988  1.0000
  C   C59       1.0  0.03945  0.41519  0.11664  1.0000
  H   H107      1.0  0.44896  0.21818  0.10993  1.0000
  S   S8        1.0  0.31380  0.26614  0.01934  1.0000
  H   H108      1.0  0.08479  0.28746  0.97019  1.0000
  H   H109      1.0  0.27440  0.26038  0.12965  1.0000
  S   S9        1.0  0.20355  0.22504  0.09434  1.0000
  H   H110      1.0  0.47278  0.38525  0.10980  1.0000
  H   H111      1.0  0.16017  0.30935  0.03344  1.0000
  H   H112      1.0  0.47698  0.50790  0.11324  1.0000
  C   C60       1.0  0.44274  0.09048  0.11521  1.0000
  H   H113      1.0  0.10896  0.34059  0.01963  1.0000
  S   S10       1.0  0.35524  0.08673  0.08420  1.0000
  H   H114      1.0  0.42279  0.26234  0.00111  1.0000
  H   H115      1.0  0.99509  0.22211  0.96975  1.0000
  H   H116      1.0  0.27133  0.39145  0.02197  1.0000
  H   H117      1.0  0.15618  0.38385  0.97837  1.0000
  H   H118      1.0  0.34329  0.33730  0.02294  1.0000
  Fe  Fe2       1.0  0.19918  0.17338  0.05493  1.0000
  H   H119      1.0  0.39185  0.23918  0.93689  1.0000
  H   H120      1.0  0.44661  0.34754  0.08982  1.0000
  H   H121      1.0  0.22145  0.28547  0.96689  1.0000
  H   H122      1.0  0.46658  0.35412  0.93706  1.0000
  H   H123      1.0  0.41038  0.19813  0.01030  1.0000
  C   C61       1.0  0.07187  0.08030  0.02911  1.0000
  H   H124      1.0  0.32794  0.38236  0.09390  1.0000
  H   H125      1.0  0.42269  0.48347  0.02922  1.0000
  S   S11       1.0  0.22143  0.53200  0.09905  1.0000
  C   C62       1.0  0.24575  0.39291  0.99291  1.0000
  H   H126      1.0  0.20015  0.10644  0.99961  1.0000
  C   C63       1.0  0.46833  0.21532  0.91458  1.0000
  C   C64       1.0  0.22530  0.35695  0.99404  1.0000
  C   C65       1.0  0.09010  0.46285  0.10212  1.0000
  S   S12       1.0  0.27363  0.16850  0.01017  1.0000
  C   C66       1.0  0.45095  0.47924  0.05588  1.0000
  H   H127      1.0  0.11573  0.46831  0.92787  1.0000
  S   S13       1.0  0.02412  0.37478  0.09629  1.0000
  H   H128      1.0  0.38857  0.23102  0.09355  1.0000
  H   H129      1.0  0.46943  0.18202  0.02667  1.0000
  H   H130      1.0  0.21210  0.34946  0.03567  1.0000
  Fe  Fe3       1.0  0.27946  0.21782  0.05425  1.0000
  C   C67       1.0  0.18418  0.36235  0.95921  1.0000
  H   H131      1.0  0.02131  0.56072  0.03627  1.0000
  C   C68       1.0  0.07376  0.43265  0.08413  1.0000
  C   C69       1.0  0.07802  0.27653  0.05382  1.0000
  C   C70       1.0  0.31666  0.35554  0.10173  1.0000
  H   H132      1.0  0.25526  0.33529  0.97999  1.0000
  Fe  Fe4       1.0  0.25453  0.48074  0.05719  1.0000
  H   H133      1.0  0.14628  0.36878  0.09989  1.0000
  C   C71       1.0  0.29102  0.51332  0.93454  1.0000
  H   H134      1.0  0.19756  0.37530  0.92030  1.0000
  H   H135      1.0  0.06193  0.21873  0.14015  1.0000
  H   H136      1.0  0.41437  0.52192  0.10638  1.0000
  H   H137      1.0  0.45855  0.07789  0.07848  1.0000
  H   H138      1.0  0.44331  0.45668  0.08564  1.0000
  S   S14       1.0  0.31379  0.46597  0.10736  1.0000
  H   H139      1.0  0.15046  0.55627  0.96304  1.0000
  H   H140      1.0  0.15163  0.47135  0.97978  1.0000
  C   C72       1.0  0.13435  0.48708  0.94703  1.0000
  H   H141      1.0  0.14348  0.53105  0.02491  1.0000
  N   N3        1.0  0.16276  0.32854  0.95130  1.0000
  C   C73       1.0  0.14543  0.34877  0.13446  1.0000
  C   C74       1.0  0.45077  0.51454  0.08438  1.0000
  S   S15       1.0  0.22103  0.13568  0.12343  1.0000
  C   C75       1.0  0.12450  0.12682  0.01688  1.0000
  H   H142      1.0  0.41240  0.18306  0.10687  1.0000
  H   H143      1.0  0.06493  0.53852  0.07577  1.0000
  C   C76       1.0  0.09811  0.51982  0.96824  1.0000
  C   C77       1.0  0.46479  0.54648  0.04506  1.0000
  C   C78       1.0  0.28670  0.28663  0.12156  1.0000
  H   H144      1.0  0.00589  0.20568  0.12860  1.0000
  C   C79       1.0  0.34669  0.55745  0.92996  1.0000
  H   H145      1.0  0.00015  0.20393  0.03655  1.0000
  H   H146      1.0  0.04860  0.30002  0.06153  1.0000
  H   H147      1.0  0.39014  0.17713  0.90794  1.0000
  C   C80       1.0  0.07231  0.47554  0.15255  1.0000
  H   H148      1.0  0.40936  0.38473  0.12656  1.0000
  Fe  Fe5       1.0  0.17713  0.49546  0.15137  1.0000
  C   C81       1.0  0.29264  0.34651  0.15142  1.0000
  C   C82       1.0  0.21935  0.41109  0.34764  1.0000
  C   C83       1.0  0.36294  0.48338  0.21497  1.0000
  H   H149      1.0  0.40688  0.56333  0.22184  1.0000
  H   H150      1.0  0.20885  0.14910  0.38599  1.0000
  H   H151      1.0  0.15786  0.51938  0.32677  1.0000
  H   H152      1.0  0.98595  0.41828  0.31685  1.0000
  C   C84       1.0  0.40901  0.33355  0.28716  1.0000
  S   S16       1.0  0.27883  0.37873  0.20048  1.0000
  H   H153      1.0  0.17683  0.40053  0.26135  1.0000
  H   H154      1.0  0.07077  0.09746  0.25507  1.0000
  C   C85       1.0  0.46548  0.25832  0.30813  1.0000
  H   H155      1.0  0.43448  0.24355  0.32087  1.0000
  H   H156      1.0  0.30025  0.24543  0.23808  1.0000
  C   C86       1.0  0.03551  0.17830  0.19747  1.0000
  C   C87       1.0  0.08160  0.20625  0.32340  1.0000
  H   H157      1.0  0.26641  0.11653  0.31466  1.0000
  H   H158      1.0  0.07504  0.40157  0.37419  1.0000
  C   C88       1.0  0.40625  0.53395  0.22175  1.0000
  C   C89       1.0  0.44814  0.50856  0.22646  1.0000
  H   H159      1.0  0.47067  0.25820  0.22153  1.0000
  H   H160      1.0  0.44232  0.34609  0.28525  1.0000
  Fe  Fe6       1.0  0.23185  0.18720  0.15922  1.0000
  C   C90       1.0  0.46226  0.27873  0.25302  1.0000
  H   H161      1.0  0.32305  0.50081  0.32610  1.0000
  H   H162      1.0  0.11075  0.07073  0.33387  1.0000
  C   C91       1.0  0.04308  0.11556  0.28059  1.0000
  C   C92       1.0  0.20640  0.09254  0.29936  1.0000
  C   C93       1.0  0.41701  0.31972  0.19153  1.0000
  C   C94       1.0  0.33369  0.22742  0.24691  1.0000
  H   H163      1.0  0.06239  0.19404  0.35802  1.0000
  H   H164      1.0  0.48118  0.51825  0.23063  1.0000
  C   C95       1.0  0.44739  0.47078  0.22313  1.0000
  H   H165      1.0  0.18473  0.55462  0.25376  1.0000
  H   H166      1.0  0.38112  0.33461  0.18464  1.0000
  H   H167      1.0  0.14560  0.53456  0.39229  1.0000
  C   C96       1.0  0.40824  0.07604  0.34446  1.0000
  C   C97       1.0  0.17277  0.37834  0.29285  1.0000
  H   H168      1.0  0.38637  0.13905  0.24457  1.0000
  H   H169      1.0  0.03688  0.12321  0.17577  1.0000
  H   H170      1.0  0.42611  0.07360  0.30297  1.0000
  C   C98       1.0  0.05377  0.39511  0.34395  1.0000
  H   H171      1.0  0.22636  0.43149  0.31436  1.0000
  S   S17       1.0  0.22900  0.48196  0.21011  1.0000
  Fe  Fe7       1.0  0.26291  0.43457  0.16057  1.0000
  H   H172      1.0  0.18666  0.09637  0.33982  1.0000
  H   H173      1.0  0.99903  0.07349  0.17088  1.0000
  C   C99       1.0  0.13104  0.23583  0.23195  1.0000
  H   H174      1.0  0.26057  0.30459  0.20032  1.0000
  H   H175      1.0  0.33407  0.11817  0.18660  1.0000
  C   C100      1.0  0.25113  0.53132  0.32529  1.0000
  C   C101      1.0  0.45458  0.34592  0.17375  1.0000
  C   C102      1.0  0.26033  0.08992  0.30063  1.0000
  C   C103      1.0  0.30102  0.52609  0.34300  1.0000
  H   H176      1.0  0.21642  0.55998  0.39339  1.0000
  H   H177      1.0  0.19819  0.06724  0.28338  1.0000
  H   H178      1.0  0.33029  0.47330  0.21079  1.0000
  H   H179      1.0  0.09724  0.11457  0.36580  1.0000
  H   H180      1.0  0.18089  0.24405  0.37198  1.0000
  H   H181      1.0  0.05964  0.38030  0.26374  1.0000
  H   H182      1.0  0.34407  0.10340  0.31718  1.0000
  H   H183      1.0  0.07763  0.07384  0.39942  1.0000
  N   N4        1.0  0.41550  0.30373  0.24770  1.0000
  H   H184      1.0  0.29843  0.52312  0.38687  1.0000
  H   H185      1.0  0.39658  0.40698  0.31748  1.0000
  H   H186      1.0  0.42489  0.29728  0.16290  1.0000
  C   C104      1.0  0.05742  0.23368  0.29209  1.0000
  C   C105      1.0  0.03620  0.45937  0.18392  1.0000
  H   H187      1.0  0.03767  0.37007  0.35865  1.0000
  H   H188      1.0  0.36574  0.27609  0.30230  1.0000
  H   H189      1.0  0.14333  0.42152  0.34870  1.0000
  H   H190      1.0  0.07195  0.17140  0.20962  1.0000
  C   C106      1.0  0.40218  0.12505  0.20895  1.0000
  H   H191      1.0  0.06337  0.26966  0.22189  1.0000
  H   H192      1.0  0.07698  0.49592  0.37634  1.0000
  H   H193      1.0  0.23526  0.50590  0.33783  1.0000
  C   C107      1.0  0.13870  0.34266  0.23449  1.0000
  H   H194      1.0  0.02304  0.46923  0.22296  1.0000
  H   H195      1.0  0.02145  0.07107  0.33757  1.0000
  C   C108      1.0  0.37263  0.11358  0.17583  1.0000
  H   H196      1.0  0.01411  0.19956  0.22312  1.0000
  C   C109      1.0  0.27959  0.31016  0.39014  1.0000
  C   C110      1.0  0.40445  0.45821  0.21958  1.0000
  H   H197      1.0  0.31953  0.55008  0.32868  1.0000
  H   H198      1.0  0.45445  0.36678  0.20306  1.0000
  C   C111      1.0  0.15423  0.26953  0.37649  1.0000
  H   H199      1.0  0.36932  0.37916  0.24283  1.0000
  H   H200      1.0  0.46676  0.27825  0.33850  1.0000
  H   H201      1.0  0.25588  0.53420  0.28159  1.0000
  H   H202      1.0  0.28507  0.31849  0.34741  1.0000
  C   C112      1.0  0.13064  0.19415  0.30971  1.0000
  C   C113      1.0  0.15533  0.20878  0.26393  1.0000
  C   C114      1.0  0.37752  0.24672  0.22963  1.0000
  H   H203      1.0  0.34002  0.30069  0.24909  1.0000
  H   H204      1.0  0.19383  0.11657  0.27334  1.0000
  H   H205      1.0  0.17308  0.32323  0.23025  1.0000
  H   H206      1.0  0.46199  0.10750  0.36221  1.0000
  C   C115      1.0  0.08210  0.24864  0.24641  1.0000
  H   H207      1.0  0.35844  0.38144  0.36429  1.0000
  N   N5        1.0  0.12987  0.36015  0.28758  1.0000
  C   C116      1.0  0.27887  0.31170  0.16181  1.0000
  H   H208      1.0  0.33746  0.20181  0.22500  1.0000
  H   H209      1.0  0.40950  0.22672  0.23786  1.0000
  H   H210      1.0  0.37981  0.25279  0.18627  1.0000
  H   H211      1.0  0.09339  0.41561  0.27146  1.0000
  H   H212      1.0  0.40404  0.42918  0.21657  1.0000
  H   H213      1.0  0.33054  0.21965  0.28993  1.0000
  C   C117      1.0  0.14243  0.36946  0.18496  1.0000
  H   H214      1.0  0.16611  0.37773  0.38001  1.0000
  C   C118      1.0  0.08739  0.55136  0.34540  1.0000
  H   H215      1.0  0.33433  0.19576  0.40182  1.0000
  H   H216      1.0  0.33186  0.35389  0.28908  1.0000
  S   S18       1.0  0.21646  0.19298  0.24704  1.0000
  H   H217      1.0  0.14904  0.17298  0.33413  1.0000
  C   C119      1.0  0.37331  0.28287  0.25926  1.0000
  H   H218      1.0  0.16876  0.28122  0.29353  1.0000
  C   C120      1.0  0.45197  0.12011  0.19464  1.0000
  H   H219      1.0  0.10977  0.32600  0.23135  1.0000
  C   C121      1.0  0.12296  0.32972  0.32959  1.0000
  H   H220      1.0  0.01172  0.11610  0.36461  1.0000
  H   H221      1.0  0.11653  0.34054  0.36984  1.0000
  C   C122      1.0  0.36623  0.36497  0.28249  1.0000
  H   H222      1.0  0.33255  0.41606  0.31863  1.0000
  C   C123      1.0  0.16447  0.29679  0.32995  1.0000
  H   H223      1.0  0.27845  0.08701  0.25936  1.0000
  S   S19       1.0  0.31754  0.55148  0.18912  1.0000
  H   H224      1.0  0.17532  0.38246  0.18184  1.0000
  C   C124      1.0  0.35302  0.08010  0.34597  1.0000
  C   C125      1.0  0.36456  0.52124  0.21261  1.0000
  H   H225      1.0  0.40321  0.32149  0.32832  1.0000
  H   H226      1.0  0.20648  0.35831  0.28599  1.0000
  H   H227      1.0  0.15016  0.24746  0.19680  1.0000
  C   C126      1.0  0.36348  0.39398  0.32342  1.0000
  H   H228      1.0  0.19890  0.30624  0.33312  1.0000
  H   H229      1.0  0.11113  0.39165  0.18602  1.0000
  C   C127      1.0  0.17191  0.39709  0.34542  1.0000
  C   C128      1.0  0.14194  0.54383  0.35034  1.0000
  H   H230      1.0  0.40920  0.13544  0.34204  1.0000
  S   S20       1.0  0.09838  0.50921  0.17815  1.0000
  C   C129      1.0  0.03621  0.09722  0.33720  1.0000
  H   H231      1.0  0.26328  0.25797  0.37161  1.0000
  C   C130      1.0  0.08466  0.38846  0.28907  1.0000
  H   H232      1.0  0.08992  0.31799  0.32527  1.0000
  S   S21       1.0  0.99569  0.24707  0.30837  1.0000
  H   H233      1.0  0.24964  0.38785  0.34531  1.0000
  C   C131      1.0  0.06736  0.51541  0.34302  1.0000
  C   C132      1.0  0.08360  0.08858  0.36017  1.0000
  H   H234      1.0  0.05998  0.14026  0.28499  1.0000
  C   C133      1.0  0.42226  0.11017  0.36551  1.0000
  C   C134      1.0  0.01219  0.42667  0.34016  1.0000
  N   N6        1.0  0.99791  0.12682  0.25495  1.0000
  H   H235      1.0  0.32448  0.25764  0.38157  1.0000
  H   H236      1.0  0.08194  0.50222  0.30498  1.0000
  H   H237      1.0  0.11807  0.26159  0.37733  1.0000
  H   H238      1.0  0.02525  0.45193  0.32126  1.0000
  H   H239      1.0  0.02760  0.52137  0.34562  1.0000
  H   H240      1.0  0.33588  0.08974  0.38570  1.0000
  C   C135      1.0  0.01100  0.14342  0.20018  1.0000
  H   H241      1.0  0.99363  0.43325  0.38042  1.0000
  H   H242      1.0  0.48124  0.39297  0.32247  1.0000
  H   H243      1.0  0.21756  0.42478  0.38552  1.0000
  C   C136      1.0  0.01961  0.42910  0.16599  1.0000
  H   H244      1.0  0.42238  0.19341  0.39199  1.0000
  H   H245      1.0  0.99261  0.41595  0.19090  1.0000
  H   H246      1.0  0.25113  0.20197  0.39881  1.0000
  C   C137      1.0  0.28669  0.26805  0.39677  1.0000
  Fe  Fe8       1.0  0.27630  0.51449  0.15428  1.0000
  C   C138      1.0  0.22251  0.21906  0.55577  1.0000
  C   C139      1.0  0.34819  0.34671  0.56116  1.0000
  H   H247      1.0  0.20155  0.11463  0.43894  1.0000
  H   H248      1.0  0.39939  0.22047  0.62682  1.0000
  C   C140      1.0  0.24277  0.15662  0.45468  1.0000
  C   C141      1.0  0.08249  0.49819  0.49605  1.0000
  H   H249      1.0  0.99666  0.29070  0.42173  1.0000
  H   H250      1.0  0.44298  0.44862  0.41953  1.0000
  S   S22       1.0  0.26735  0.31384  0.57091  1.0000
  C   C142      1.0  0.27422  0.20777  0.52714  1.0000
  H   H251      1.0  0.20862  0.24844  0.54681  1.0000
  H   H252      1.0  0.06091  0.44772  0.47661  1.0000
  H   H253      1.0  0.28598  0.17826  0.53811  1.0000
  C   C143      1.0  0.27599  0.55223  0.58725  1.0000
  H   H254      1.0  0.10837  0.51771  0.60320  1.0000
  C   C144      1.0  0.04663  0.22396  0.64538  1.0000
  H   H255      1.0  0.15615  0.28188  0.41450  1.0000
  H   H256      1.0  0.29299  0.50391  0.50093  1.0000
  H   H257      1.0  0.29793  0.22318  0.54541  1.0000
  H   H258      1.0  0.10844  0.26929  0.52156  1.0000
  H   H259      1.0  0.42672  0.16309  0.45070  1.0000
  H   H260      1.0  0.06485  0.20482  0.61442  1.0000
  H   H261      1.0  0.38136  0.47396  0.49102  1.0000
  Fe  Fe9       1.0  0.47212  0.13114  0.58291  1.0000
  H   H262      1.0  0.31594  0.54717  0.58335  1.0000
  H   H263      1.0  0.40547  0.26611  0.52366  1.0000
  C   C145      1.0  0.37296  0.21208  0.46202  1.0000
  H   H264      1.0  0.19743  0.20193  0.54394  1.0000
  C   C146      1.0  0.27446  0.25549  0.45562  1.0000
  C   C147      1.0  0.06863  0.53622  0.50118  1.0000
  H   H265      1.0  0.26743  0.55642  0.54594  1.0000
  H   H266      1.0  0.03408  0.25104  0.62591  1.0000
  Fe  Fe10      1.0  0.11393  0.10624  0.64028  1.0000
  C   C148      1.0  0.41981  0.46994  0.49653  1.0000
  C   C149      1.0  0.34272  0.08037  0.51400  1.0000
  H   H267      1.0  0.36151  0.32963  0.52780  1.0000
  S   S23       1.0  0.05498  0.33177  0.46881  1.0000
  H   H268      1.0  0.29603  0.26902  0.47944  1.0000
  H   H269      1.0  0.18369  0.47242  0.60408  1.0000
  C   C150      1.0  0.24428  0.19841  0.44271  1.0000
  S   S24       1.0  0.16822  0.37083  0.49510  1.0000
  C   C151      1.0  0.30289  0.34430  0.58954  1.0000
  Fe  Fe11      1.0  0.18022  0.07417  0.54520  1.0000
  H   H270      1.0  0.47216  0.25578  0.60960  1.0000
  N   N7        1.0  0.28088  0.21434  0.46776  1.0000
  H   H271      1.0  0.27691  0.13985  0.43804  1.0000
  H   H272      1.0  0.44597  0.22425  0.53775  1.0000
  H   H273      1.0  0.42543  0.49242  0.52092  1.0000
  H   H274      1.0  0.42871  0.44290  0.51799  1.0000
  S   S25       1.0  0.15106  0.13236  0.56727  1.0000
  C   C152      1.0  0.08268  0.25950  0.50098  1.0000
  H   H275      1.0  0.46945  0.26605  0.51463  1.0000
  H   H276      1.0  0.35829  0.55708  0.48803  1.0000
  S   S26       1.0  0.16631  0.39648  0.61614  1.0000
  S   S27       1.0  0.39200  0.42681  0.63523  1.0000
  C   C153      1.0  0.37314  0.09966  0.53626  1.0000
  C   C154      1.0  0.05208  0.28449  0.47249  1.0000
  C   C155      1.0  0.08083  0.22152  0.50139  1.0000
  S   S28       1.0  0.39288  0.14380  0.61064  1.0000
  S   S29       1.0  0.04727  0.10428  0.60401  1.0000
  H   H277      1.0  0.31752  0.43466  0.50887  1.0000
  H   H278      1.0  0.23660  0.26810  0.46794  1.0000
  C   C156      1.0  0.35808  0.39504  0.61719  1.0000
  H   H279      1.0  0.37118  0.24181  0.45023  1.0000
  C   C157      1.0  0.98922  0.53123  0.48093  1.0000
  C   C158      1.0  0.33037  0.19584  0.44586  1.0000
  H   H280      1.0  0.16700  0.16011  0.44507  1.0000
  S   S30       1.0  0.11948  0.06899  0.50107  1.0000
  H   H281      1.0  0.19137  0.53749  0.57619  1.0000
  N   N8        1.0  0.25542  0.51939  0.61425  1.0000
  H   H282      1.0  0.25479  0.42977  0.52484  1.0000
  H   H283      1.0  0.43891  0.49781  0.42205  1.0000
  Fe  Fe12      1.0  0.19286  0.34533  0.57077  1.0000
  Fe  Fe13      1.0  0.09921  0.34993  0.52464  1.0000
  C   C159      1.0  0.27729  0.48538  0.58428  1.0000
  H   H284      1.0  0.40966  0.09954  0.51782  1.0000
  C   C160      1.0  0.28029  0.44758  0.50381  1.0000
  C   C161      1.0  0.39526  0.25041  0.63327  1.0000
  H   H285      1.0  0.23165  0.49758  0.51979  1.0000
  C   C162      1.0  0.22136  0.21393  0.61576  1.0000
  C   C163      1.0  0.26908  0.48631  0.52539  1.0000
  H   H286      1.0  0.20755  0.21376  0.45414  1.0000
  H   H287      1.0  0.01995  0.06965  0.51410  1.0000
  C   C164      1.0  0.43664  0.26580  0.59662  1.0000
  Fe  Fe14      1.0  0.08713  0.12508  0.52895  1.0000
  C   C165      1.0  0.30885  0.11851  0.60624  1.0000
  H   H288      1.0  0.24181  0.09940  0.60255  1.0000
  C   C166      1.0  0.29508  0.08069  0.53736  1.0000
  C   C167      1.0  0.27818  0.09977  0.58353  1.0000
  C   C168      1.0  0.01957  0.27161  0.44485  1.0000
  H   H289      1.0  0.41032  0.37448  0.55224  1.0000
  H   H290      1.0  0.24095  0.23419  0.63027  1.0000
  C   C169      1.0  0.43935  0.25477  0.53965  1.0000
  H   H291      1.0  0.29597  0.13264  0.64251  1.0000
  C   C170      1.0  0.01728  0.23384  0.44595  1.0000
  H   H292      1.0  0.23664  0.14990  0.49776  1.0000
  H   H293      1.0  0.10504  0.20217  0.52239  1.0000
  C   C171      1.0  0.20250  0.14449  0.42963  1.0000
  C   C172      1.0  0.04978  0.47678  0.48298  1.0000
  H   H294      1.0  0.02103  0.34678  0.62766  1.0000
  H   H295      1.0  0.26452  0.46041  0.60494  1.0000
  H   H296      1.0  0.23733  0.18543  0.62715  1.0000
  S   S31       1.0  0.12647  0.31965  0.59620  1.0000
  C   C173      1.0  0.02204  0.55281  0.49337  1.0000
  H   H297      1.0  0.31686  0.47996  0.58425  1.0000
  C   C174      1.0  0.37581  0.37208  0.57502  1.0000
  H   H298      1.0  0.36129  0.26306  0.61779  1.0000
  C   C175      1.0  0.20158  0.52684  0.61555  1.0000
  Fe  Fe15      1.0  0.13669  0.42012  0.54204  1.0000
  H   H299      1.0  0.33575  0.16617  0.45944  1.0000
  H   H300      1.0  0.18377  0.21857  0.63509  1.0000
  S   S32       1.0  0.14037  0.47747  0.50697  1.0000
  H   H301      1.0  0.09370  0.55271  0.51195  1.0000
  H   H302      1.0  0.37303  0.20858  0.50554  1.0000
  H   H303      1.0  0.45021  0.53643  0.60066  1.0000
  H   H304      1.0  0.43015  0.29631  0.59567  1.0000
  S   S33       1.0  0.06608  0.40082  0.56732  1.0000
  C   C176      1.0  0.42103  0.19231  0.43574  1.0000
  H   H305      1.0  0.40713  0.11295  0.40783  1.0000
  C   C177      1.0  0.04801  0.20876  0.47388  1.0000
  S   S34       1.0  0.04502  0.16164  0.47285  1.0000
  C   C178      1.0  0.45073  0.47100  0.44251  1.0000
  H   H306      1.0  0.34577  0.50339  0.64724  1.0000
  C   C179      1.0  0.35615  0.11887  0.58232  1.0000
  C   C180      1.0  0.28557  0.36690  0.63215  1.0000
  H   H307      1.0  0.27643  0.44927  0.46099  1.0000
  H   H308      1.0  0.45095  0.20563  0.44534  1.0000
  Fe  Fe16      1.0  0.09819  0.37243  0.63701  1.0000
  H   H309      1.0  0.99233  0.22399  0.42407  1.0000
  C   C181      1.0  0.17485  0.49377  0.63398  1.0000
  C   C182      1.0  0.12052  0.50592  0.64103  1.0000
  C   C183      1.0  0.00300  0.49319  0.47608  1.0000
  Fe  Fe17      1.0  0.46946  0.40176  0.63260  1.0000
  H   H310      1.0  0.30566  0.32156  0.41051  1.0000
  C   C184      1.0  0.43701  0.55978  0.62707  1.0000
  H   H311      1.0  0.24253  0.32220  0.40670  1.0000
  C   C185      1.0  0.31288  0.39249  0.64562  1.0000
  H   H312      1.0  0.35617  0.06539  0.47862  1.0000
  H   H313      1.0  0.18582  0.54936  0.64274  1.0000
  H   H314      1.0  0.00169  0.55050  0.65104  1.0000
  H   H315      1.0  0.40402  0.55387  0.65269  1.0000
  C   C186      1.0  0.38302  0.94305  0.89440  1.0000
  C   C187      1.0  0.43761  0.66633  0.75914  1.0000
  H   H316      1.0  0.06660  0.71241  0.72544  1.0000
  H   H317      1.0  0.01638  0.59802  0.86743  1.0000
  C   C188      1.0  0.09660  0.93269  0.72678  1.0000
  C   C189      1.0  0.11100  0.93555  0.77622  1.0000
  Fe  Fe18      1.0  0.20269  0.63052  0.77218  1.0000
  C   C190      1.0  0.42826  0.94273  0.86433  1.0000
  C   C191      1.0  0.05344  0.03146  0.73883  1.0000
  Fe  Fe19      1.0  0.18741  0.93569  0.86432  1.0000
  C   C192      1.0  0.26330  0.04370  0.73103  1.0000
  H   H318      1.0  0.18443  0.85315  0.77350  1.0000
  C   C193      1.0  0.33815  0.94690  0.72616  1.0000
  H   H319      1.0  0.47401  0.91470  0.73079  1.0000
  C   C194      1.0  0.14476  0.81071  0.81281  1.0000
  H   H320      1.0  0.21225  0.99658  0.69801  1.0000
  C   C195      1.0  0.38614  0.80281  0.69238  1.0000
  H   H321      1.0  0.43072  0.58540  0.73168  1.0000
  H   H322      1.0  0.30534  0.98896  0.77975  1.0000
  C   C196      1.0  0.45795  0.59545  0.70059  1.0000
  H   H323      1.0  0.12624  0.81142  0.77736  1.0000
  H   H324      1.0  0.98838  0.00970  0.76742  1.0000
  H   H325      1.0  0.21158  0.82811  0.82766  1.0000
  C   C197      1.0  0.29589  0.97784  0.74376  1.0000
  Fe  Fe20      1.0  0.29629  0.63824  0.81351  1.0000
  C   C198      1.0  0.04063  0.81063  0.83618  1.0000
  C   C199      1.0  0.04375  0.57979  0.84428  1.0000
  C   C200      1.0  0.02561  0.84262  0.79654  1.0000
  N   N9        1.0  0.28383  0.00854  0.70290  1.0000
  C   C201      1.0  0.02807  0.93958  0.81693  1.0000
  H   H326      1.0  0.00609  0.65114  0.76608  1.0000
  H   H327      1.0  0.15331  0.78147  0.82670  1.0000
  H   H328      1.0  0.34874  0.71914  0.72041  1.0000
  C   C202      1.0  0.24616  0.99976  0.67166  1.0000
  C   C203      1.0  0.02463  0.61764  0.67041  1.0000
  H   H329      1.0  0.09060  0.62077  0.82320  1.0000
  H   H330      1.0  0.00724  0.79998  0.85322  1.0000
  C   C204      1.0  0.03289  0.66172  0.73514  1.0000
  H   H331      1.0  0.04030  0.81207  0.72440  1.0000
  H   H332      1.0  0.34348  0.92167  0.80511  1.0000
  H   H333      1.0  0.37292  0.95725  0.72380  1.0000
  Fe  Fe21      1.0  0.20391  0.68680  0.85453  1.0000
  C   C205      1.0  0.34579  0.82161  0.67122  1.0000
  C   C206      1.0  0.33975  0.91357  0.76503  1.0000
  C   C207      1.0  0.00944  0.82832  0.74840  1.0000
  C   C208      1.0  0.11288  0.83408  0.85691  1.0000
  H   H334      1.0  0.33818  0.70255  0.90203  1.0000
  C   C209      1.0  0.34770  0.74783  0.70728  1.0000
  H   H335      1.0  0.05541  0.85831  0.78206  1.0000
  S   S35       1.0  0.27613  0.63878  0.73175  1.0000
  S   S36       1.0  0.17547  0.69117  0.77649  1.0000
  H   H336      1.0  0.03297  0.87772  0.88596  1.0000
  H   H337      1.0  0.37801  0.80232  0.80863  1.0000
  H   H338      1.0  0.21026  0.01692  0.78529  1.0000
  H   H339      1.0  0.40735  0.67190  0.84218  1.0000
  C   C210      1.0  0.46535  0.91340  0.87146  1.0000
  H   H340      1.0  0.08732  0.94329  0.85920  1.0000
  C   C211      1.0  0.47385  0.63167  0.77161  1.0000
  H   H341      1.0  0.40502  0.65798  0.74709  1.0000
  H   H342      1.0  0.46234  0.96364  0.71504  1.0000
  S   S37       1.0  0.25726  0.90522  0.88566  1.0000
  H   H343      1.0  0.26357  0.96465  0.75855  1.0000
  C   C212      1.0  0.42190  0.68916  0.80826  1.0000
  C   C213      1.0  0.33831  0.56793  0.87787  1.0000
  C   C214      1.0  0.48383  0.05861  0.76748  1.0000
  S   S38       1.0  0.16532  0.58775  0.74261  1.0000
  S   S39       1.0  0.19819  0.99037  0.88996  1.0000
  C   C215      1.0  0.11915  0.56994  0.78528  1.0000
  C   C216      1.0  0.38725  0.76588  0.71022  1.0000
  H   H344      1.0  0.39324  0.71229  0.80044  1.0000
  S   S40       1.0  0.48262  0.77777  0.82410  1.0000
  C   C217      1.0  0.03641  0.70132  0.75038  1.0000
  C   C218      1.0  0.13936  0.83872  0.66110  1.0000
  H   H345      1.0  0.07931  0.68461  0.81487  1.0000
  C   C219      1.0  0.30674  0.80352  0.66750  1.0000
  H   H346      1.0  0.45369  0.61468  0.80156  1.0000
  Fe  Fe22      1.0  0.25032  0.69921  0.74197  1.0000
  H   H347      1.0  0.30666  0.90080  0.76690  1.0000
  H   H348      1.0  0.31390  0.81599  0.82582  1.0000
  H   H349      1.0  0.21504  0.80666  0.76565  1.0000
  H   H350      1.0  0.14807  0.81131  0.68163  1.0000
  H   H351      1.0  0.45314  0.68431  0.72680  1.0000
  C   C220      1.0  0.21337  0.04406  0.76471  1.0000
  S   S41       1.0  0.36109  0.60579  0.84429  1.0000
  H   H352      1.0  0.06323  0.01318  0.70479  1.0000
  H   H353      1.0  0.37121  0.89271  0.75164  1.0000
  C   C221      1.0  0.08548  0.59274  0.81879  1.0000
  H   H354      1.0  0.43727  0.61884  0.67939  1.0000
  H   H355      1.0  0.21324  0.76597  0.87961  1.0000
  H   H356      1.0  0.43742  0.04588  0.66948  1.0000
  H   H357      1.0  0.10634  0.86297  0.84030  1.0000
  H   H358      1.0  0.35441  0.84925  0.82360  1.0000
  H   H359      1.0  0.35148  0.06309  0.69645  1.0000
  C   C222      1.0  0.04811  0.93281  0.72256  1.0000
  H   H360      1.0  0.06107  0.60332  0.67684  1.0000
  S   S42       1.0  0.43438  0.82659  0.69548  1.0000
  H   H361      1.0  0.04445  0.72984  0.81956  1.0000
  H   H362      1.0  0.07229  0.01843  0.77218  1.0000
  C   C223      1.0  0.98869  0.59571  0.70561  1.0000
  N   N10       1.0  0.06619  0.82071  0.87949  1.0000
  S   S43       1.0  0.22492  0.62570  0.85301  1.0000
  H   H363      1.0  0.44930  0.04783  0.76934  1.0000
  S   S44       1.0  0.33662  0.97955  0.88570  1.0000
  H   H364      1.0  0.26172  0.93952  0.66893  1.0000
  H   H365      1.0  0.09904  0.76404  0.89132  1.0000
  C   C224      1.0  0.30754  0.76666  0.68559  1.0000
  H   H366      1.0  0.13513  0.83551  0.88899  1.0000
  C   C225      1.0  0.34994  0.82018  0.83396  1.0000
  S   S45       1.0  0.25854  0.74443  0.67923  1.0000
  C   C226      1.0  0.19177  0.82564  0.79406  1.0000
  C   C227      1.0  0.04457  0.70135  0.80825  1.0000
  C   C228      1.0  0.36498  0.03351  0.68909  1.0000
  S   S46       1.0  0.27658  0.69940  0.82069  1.0000
  H   H367      1.0  0.45279  0.70061  0.81919  1.0000
  H   H368      1.0  0.00289  0.72062  0.74608  1.0000
  H   H369      1.0  0.37253  0.01926  0.72744  1.0000
  H   H370      1.0  0.12293  0.93028  0.69174  1.0000
  C   C229      1.0  0.07659  0.93990  0.82116  1.0000
  C   C230      1.0  0.01399  0.93493  0.76783  1.0000
  H   H371      1.0  0.41889  0.75132  0.72555  1.0000
  C   C231      1.0  0.32708  0.01637  0.66470  1.0000
  C   C232      1.0  0.35529  0.81192  0.89236  1.0000
  S   S47       1.0  0.17216  0.93264  0.78106  1.0000
  H   H372      1.0  0.33582  0.93676  0.68712  1.0000
  H   H373      1.0  0.37653  0.75372  0.87916  1.0000
  H   H374      1.0  0.03707  0.93142  0.68416  1.0000
  H   H375      1.0  0.06246  0.78734  0.81413  1.0000
  H   H376      1.0  0.43440  0.96491  0.83529  1.0000
  H   H377      1.0  0.11800  0.85806  0.69027  1.0000
  H   H378      1.0  0.06585  0.05836  0.72726  1.0000
  N   N11       1.0  0.01966  0.65818  0.68078  1.0000
  H   H379      1.0  0.11928  0.66658  0.67661  1.0000
  H   H380      1.0  0.06765  0.64407  0.73997  1.0000
  H   H381      1.0  0.28828  0.04976  0.75801  1.0000
  H   H382      1.0  0.00182  0.94281  0.85168  1.0000
  H   H383      1.0  0.18471  0.05015  0.73859  1.0000
  H   H384      1.0  0.25833  0.58725  0.65656  1.0000
  H   H385      1.0  0.01553  0.68996  0.83464  1.0000
  H   H386      1.0  0.47233  0.63817  0.89082  1.0000
  H   H387      1.0  0.99507  0.86184  0.81620  1.0000
  H   H388      1.0  0.99183  0.59747  0.74804  1.0000
  C   C233      1.0  0.99919  0.03700  0.75589  1.0000
  H   H389      1.0  0.99407  0.85208  0.72393  1.0000
  H   H390      1.0  0.39019  0.81904  0.89862  1.0000
  H   H391      1.0  0.31473  0.76767  0.90018  1.0000
  H   H392      1.0  0.99176  0.05384  0.79132  1.0000
  H   H393      1.0  0.34465  0.85030  0.65813  1.0000
  H   H394      1.0  0.98762  0.04223  0.67410  1.0000
  H   H395      1.0  0.19030  0.78095  0.07328  1.0000
  H   H396      1.0  0.21030  0.95672  0.10614  1.0000
  H   H397      1.0  0.10046  0.79204  0.94416  1.0000
  H   H398      1.0  0.31147  0.64283  0.93580  1.0000
  H   H399      1.0  0.30266  0.62476  0.08670  1.0000
  H   H400      1.0  0.37710  0.89861  0.14273  1.0000
  N   N12       1.0  0.45306  0.58494  0.06590  1.0000
  H   H401      1.0  0.34061  0.94174  0.12569  1.0000
  C   C234      1.0  0.05100  0.56579  0.05762  1.0000
  H   H402      1.0  0.18997  0.59328  0.99568  1.0000
  H   H403      1.0  0.11632  0.80820  0.12048  1.0000
  C   C235      1.0  0.03435  0.85125  0.90999  1.0000
  C   C236      1.0  0.25780  0.01246  0.10408  1.0000
  H   H404      1.0  0.44220  0.95829  0.97275  1.0000
  C   C237      1.0  0.06949  0.60391  0.97502  1.0000
  H   H405      1.0  0.21587  0.65054  0.02068  1.0000
  C   C238      1.0  0.18058  0.74759  0.01070  1.0000
  H   H406      1.0  0.99632  0.84625  0.91706  1.0000
  H   H407      1.0  0.05919  0.67395  0.92039  1.0000
  C   C239      1.0  0.20663  0.76990  0.92166  1.0000
  C   C240      1.0  0.07725  0.78669  0.91480  1.0000
  H   H408      1.0  0.40365  0.01835  0.92355  1.0000
  H   H409      1.0  0.42530  0.02958  0.03515  1.0000
  H   H410      1.0  0.47406  0.00546  0.09140  1.0000
  C   C241      1.0  0.21672  0.80207  0.94179  1.0000
  C   C242      1.0  0.02596  0.66480  0.94180  1.0000
  C   C243      1.0  0.43367  0.94822  0.08490  1.0000
  H   H411      1.0  0.16626  0.72677  0.03766  1.0000
  C   C244      1.0  0.46814  0.62095  0.14475  1.0000
  H   H412      1.0  0.13512  0.58151  0.08019  1.0000
  H   H413      1.0  0.44239  0.04847  0.94184  1.0000
  H   H414      1.0  0.38292  0.93769  0.03214  1.0000
  H   H415      1.0  0.33245  0.80327  0.13694  1.0000
  H   H416      1.0  0.23253  0.89675  0.13744  1.0000
  C   C245      1.0  0.30108  0.66809  0.95868  1.0000
  C   C246      1.0  0.40987  0.74048  0.96813  1.0000
  Fe  Fe23      1.0  0.21749  0.89590  0.96637  1.0000
  H   H417      1.0  0.99997  0.79091  0.08550  1.0000
  Fe  Fe24      1.0  0.26666  0.95953  0.91416  1.0000
  H   H418      1.0  0.15869  0.88310  0.13790  1.0000
  H   H419      1.0  0.09909  0.96126  0.13822  1.0000
  C   C247      1.0  0.47046  0.79066  0.11388  1.0000
  C   C248      1.0  0.47736  0.58468  0.11485  1.0000
  S   S48       1.0  0.10340  0.00648  0.02163  1.0000
  C   C249      1.0  0.01771  0.89200  0.98893  1.0000
  H   H420      1.0  0.28051  0.98783  0.08603  1.0000
  H   H421      1.0  0.01774  0.61868  0.09394  1.0000
  H   H422      1.0  0.44536  0.78797  0.93760  1.0000
  H   H423      1.0  0.39694  0.65391  0.09371  1.0000
  H   H424      1.0  0.10071  0.76633  0.10005  1.0000
  H   H425      1.0  0.01813  0.75438  0.91732  1.0000
  H   H426      1.0  0.07313  0.88841  0.12364  1.0000
  H   H427      1.0  0.23090  0.82313  0.91535  1.0000
  H   H428      1.0  0.05532  0.58832  0.13409  1.0000
  C   C250      1.0  0.33839  0.69390  0.94436  1.0000
  N   N13       1.0  0.35831  0.75731  0.96472  1.0000
  H   H429      1.0  0.37602  0.64557  0.03405  1.0000
  C   C251      1.0  0.45127  0.75760  0.12200  1.0000
  H   H430      1.0  0.33123  0.71601  0.02121  1.0000
  C   C252      1.0  0.16287  0.61566  0.01376  1.0000
  H   H431      1.0  0.40652  0.86386  0.96982  1.0000
  C   C253      1.0  0.04931  0.85837  0.96399  1.0000
  H   H432      1.0  0.30465  0.80104  0.99575  1.0000
  H   H433      1.0  0.42075  0.89661  0.05330  1.0000
  H   H434      1.0  0.08116  0.81041  0.06706  1.0000
  C   C254      1.0  0.41000  0.03529  0.95539  1.0000
  C   C255      1.0  0.19349  0.77851  0.03087  1.0000
  H   H435      1.0  0.37425  0.67796  0.94888  1.0000
  S   S49       1.0  0.23297  0.94778  0.99706  1.0000
  S   S50       1.0  0.22087  0.84654  0.02269  1.0000
  H   H436      1.0  0.03159  0.83111  0.15120  1.0000
  H   H437      1.0  0.43702  0.78235  0.00856  1.0000
  H   H438      1.0  0.05474  0.65694  0.01529  1.0000
  H   H439      1.0  0.07196  0.72061  0.97824  1.0000
  H   H440      1.0  0.09852  0.60995  0.94299  1.0000
  H   H441      1.0  0.00264  0.63485  0.01287  1.0000
  H   H442      1.0  0.11421  0.87572  0.06483  1.0000
  C   C256      1.0  0.32741  0.72749  0.98028  1.0000
  C   C257      1.0  0.10039  0.89818  0.09257  1.0000
  C   C258      1.0  0.15781  0.06218  0.00742  1.0000
  H   H443      1.0  0.29788  0.65978  0.00137  1.0000
  C   C259      1.0  0.02871  0.58942  0.10580  1.0000
  H   H444      1.0  0.26560  0.68193  0.94901  1.0000
  C   C260      1.0  0.45613  0.97771  0.99607  1.0000
  C   C261      1.0  0.44571  0.76751  0.97116  1.0000
  H   H445      1.0  0.09163  0.69326  0.11292  1.0000
  C   C262      1.0  0.18653  0.74347  0.95606  1.0000
  H   H446      1.0  0.42415  0.72335  0.93345  1.0000
  C   C263      1.0  0.32520  0.64153  0.10412  1.0000
  H   H447      1.0  0.38035  0.58041  0.05254  1.0000
  C   C264      1.0  0.18880  0.97616  0.13462  1.0000
  C   C265      1.0  0.41248  0.88566  0.94008  1.0000
  H   H448      1.0  0.18853  0.04089  0.99919  1.0000
  H   H449      1.0  0.99946  0.68943  0.95353  1.0000
  H   H450      1.0  0.32634  0.83068  0.91538  1.0000
  C   C266      1.0  0.33944  0.77742  0.06187  1.0000
  C   C267      1.0  0.37676  0.63580  0.07590  1.0000
  H   H451      1.0  0.16335  0.99419  0.11089  1.0000
  H   H452      1.0  0.41228  0.72104  0.00351  1.0000
  H   H453      1.0  0.34011  0.91439  0.95501  1.0000
  H   H454      1.0  0.44783  0.93332  0.12011  1.0000
  H   H455      1.0  0.16352  0.65878  0.06861  1.0000
  C   C268      1.0  0.11165  0.05272  0.01893  1.0000
  C   C269      1.0  0.45769  0.81763  0.15157  1.0000
  H   H456      1.0  0.00356  0.79222  0.96021  1.0000
  C   C270      1.0  0.04234  0.80120  0.14564  1.0000
  C   C271      1.0  0.39914  0.59438  0.07898  1.0000
  H   H457      1.0  0.20755  0.61790  0.07567  1.0000
  H   H458      1.0  0.46511  0.64011  0.03630  1.0000
  H   H459      1.0  0.30724  0.76401  0.07583  1.0000
  H   H460      1.0  0.08727  0.86283  0.95938  1.0000
  C   C272      1.0  0.03289  0.77058  0.94458  1.0000
  H   H461      1.0  0.36337  0.81074  0.99275  1.0000
  H   H462      1.0  0.47044  0.66677  0.94588  1.0000
  H   H463      1.0  0.28873  0.73937  0.98115  1.0000
  C   C273      1.0  0.46189  0.60952  0.96767  1.0000
  H   H464      1.0  0.37012  0.57126  0.94875  1.0000
  C   C274      1.0  0.34135  0.78819  0.00198  1.0000
  C   C275      1.0  0.45748  0.88504  0.90969  1.0000
  H   H465      1.0  0.08340  0.92249  0.06993  1.0000
  N   N14       1.0  0.47440  0.95818  0.04477  1.0000
  C   C276      1.0  0.41643  0.01160  0.00621  1.0000
  H   H466      1.0  0.02832  0.89596  0.02796  1.0000
  H   H467      1.0  0.38151  0.00253  0.02187  1.0000
  H   H468      1.0  0.37163  0.75788  0.07018  1.0000
  H   H469      1.0  0.42250  0.61351  0.96745  1.0000
  C   C277      1.0  0.40057  0.92372  0.06565  1.0000
  C   C278      1.0  0.12042  0.60012  0.04813  1.0000
  C   C279      1.0  0.18884  0.63693  0.04700  1.0000
  C   C280      1.0  0.37497  0.91424  0.93169  1.0000
  H   H470      1.0  0.30928  0.67113  0.10086  1.0000
  C   C281      1.0  0.47456  0.61110  0.02449  1.0000
  C   C282      1.0  0.33583  0.81152  0.09417  1.0000
  C   C283      1.0  0.20926  0.80659  0.99646  1.0000
  C   C284      1.0  0.35128  0.77091  0.90838  1.0000
  H   H471      1.0  0.04516  0.83456  0.99239  1.0000
  H   H472      1.0  0.47801  0.64462  0.11854  1.0000
  Fe  Fe25      1.0  0.16311  0.97329  0.97001  1.0000
  H   H473      1.0  0.16796  0.91729  0.08449  1.0000
  H   H474      1.0  0.14985  0.63495  0.98181  1.0000
  H   H475      1.0  0.30367  0.83172  0.08694  1.0000
  H   H476      1.0  0.46158  0.73636  0.09352  1.0000
  S   S51       1.0  0.14639  0.92090  0.94244  1.0000
  H   H477      1.0  0.06278  0.75955  0.01922  1.0000
  H   H478      1.0  0.36855  0.82484  0.08388  1.0000
  H   H479      1.0  0.41050  0.97363  0.10024  1.0000
  S   S52       1.0  0.16513  0.70671  0.93172  1.0000
  H   H480      1.0  0.38773  0.58309  0.11951  1.0000
  H   H481      1.0  0.09843  0.62381  0.06906  1.0000
  H   H482      1.0  0.33632  0.89993  0.09441  1.0000
  C   C285      1.0  0.36120  0.91561  0.11001  1.0000
  H   H483      1.0  0.23787  0.02849  0.07349  1.0000
  C   C286      1.0  0.03738  0.64063  0.99086  1.0000
  C   C287      1.0  0.08768  0.79615  0.10559  1.0000
  N   N15       1.0  0.09033  0.58005  0.01913  1.0000
  C   C288      1.0  0.04625  0.74503  0.99170  1.0000
  C   C289      1.0  0.14188  0.90849  0.11735  1.0000
  C   C290      1.0  0.00180  0.78302  0.12815  1.0000
  H   H484      1.0  0.04650  0.58871  0.95561  1.0000
  H   H485      1.0  0.01513  0.75280  0.12913  1.0000
  H   H486      1.0  0.32485  0.63320  0.14679  1.0000
  H   H487      1.0  0.01006  0.64959  0.91462  1.0000
  H   H488      1.0  0.02165  0.91733  0.96329  1.0000
  H   H489      1.0  0.01377  0.73520  0.01338  1.0000
  H   H490      1.0  0.47761  0.58259  0.95048  1.0000
  H   H491      1.0  0.37861  0.05739  0.96307  1.0000
  H   H492      1.0  0.28166  0.03016  0.11730  1.0000
  C   C291      1.0  0.48315  0.63891  0.93071  1.0000
  H   H493      1.0  0.01476  0.67136  0.14726  1.0000
  C   C292      1.0  0.22279  0.00115  0.15126  1.0000
  C   C293      1.0  0.98460  0.57486  0.13591  1.0000
  H   H494      1.0  0.99551  0.04865  0.90460  1.0000
  C   C294      1.0  0.10244  0.96936  0.26554  1.0000
  H   H495      1.0  0.26573  0.92628  0.16492  1.0000
  N   N16       1.0  0.33287  0.04651  0.33367  1.0000
  H   H496      1.0  0.10074  0.92581  0.18943  1.0000
  C   C295      1.0  0.13572  0.98406  0.21808  1.0000
  C   C296      1.0  0.35184  0.03477  0.27801  1.0000
  C   C297      1.0  0.41786  0.75228  0.16656  1.0000
  C   C298      1.0  0.12870  0.87254  0.33040  1.0000
  C   C299      1.0  0.14884  0.82914  0.26092  1.0000
  H   H497      1.0  0.13836  0.88489  0.36371  1.0000
  H   H498      1.0  0.99979  0.00738  0.19402  1.0000
  H   H499      1.0  0.39127  0.99508  0.19004  1.0000
  H   H500      1.0  0.29898  0.86263  0.18384  1.0000
  S   S53       1.0  0.21561  0.82782  0.32860  1.0000
  S   S54       1.0  0.99769  0.63105  0.39888  1.0000
  S   S55       1.0  0.19472  0.73042  0.30830  1.0000
  H   H501      1.0  0.11671  0.00220  0.32774  1.0000
  S   S56       1.0  0.45177  0.90514  0.28348  1.0000
  C   C300      1.0  0.08606  0.99799  0.30753  1.0000
  H   H502      1.0  0.16685  0.62098  0.17793  1.0000
  H   H503      1.0  0.17256  0.90465  0.22657  1.0000
  H   H504      1.0  0.12176  0.94480  0.28495  1.0000
  C   C301      1.0  0.02555  0.67085  0.22904  1.0000
  Fe  Fe26      1.0  0.21624  0.71802  0.22285  1.0000
  H   H505      1.0  0.06957  0.96228  0.25245  1.0000
  H   H506      1.0  0.05253  0.78807  0.18359  1.0000
  Fe  Fe27      1.0  0.26075  0.69122  0.32342  1.0000
  H   H507      1.0  0.23898  0.58944  0.34163  1.0000
  H   H508      1.0  0.35774  0.05939  0.25155  1.0000
  H   H509      1.0  0.20140  0.02702  0.16724  1.0000
  C   C302      1.0  0.16078  0.84423  0.30510  1.0000
  H   H510      1.0  0.13621  0.59096  0.26191  1.0000
  H   H511      1.0  0.41542  0.83276  0.22604  1.0000
  H   H512      1.0  0.16215  0.99695  0.23587  1.0000
  H   H513      1.0  0.09726  0.83143  0.20692  1.0000
  C   C303      1.0  0.00121  0.06391  0.21287  1.0000
  H   H514      1.0  0.07892  0.56874  0.30981  1.0000
  H   H515      1.0  0.42971  0.02922  0.19502  1.0000
  H   H516      1.0  0.31825  0.97386  0.33332  1.0000
  C   C304      1.0  0.11289  0.69531  0.19016  1.0000
  C   C305      1.0  0.31821  0.98198  0.37438  1.0000
  S   S57       1.0  0.01730  0.88518  0.24412  1.0000
  H   H517      1.0  0.39839  0.74748  0.35706  1.0000
  H   H518      1.0  0.06908  0.80929  0.38396  1.0000
  H   H519      1.0  0.26222  0.03327  0.32901  1.0000
  H   H520      1.0  0.01477  0.75422  0.31914  1.0000
  H   H521      1.0  0.44188  0.73559  0.40284  1.0000
  C   C306      1.0  0.10525  0.84247  0.24196  1.0000
  H   H522      1.0  0.11374  0.00688  0.19713  1.0000
  H   H523      1.0  0.46061  0.72313  0.27566  1.0000
  H   H524      1.0  0.05939  0.90618  0.33288  1.0000
  H   H525      1.0  0.19105  0.63741  0.26278  1.0000
  H   H526      1.0  0.17335  0.80750  0.24067  1.0000
  H   H527      1.0  0.27023  0.88193  0.24538  1.0000
  H   H528      1.0  0.39202  0.97897  0.28733  1.0000
  C   C307      1.0  0.21897  0.56566  0.34990  1.0000
  H   H529      1.0  0.02833  0.79498  0.28077  1.0000
  Fe  Fe28      1.0  0.24354  0.77310  0.29261  1.0000
  H   H530      1.0  0.20607  0.93814  0.24168  1.0000
  C   C308      1.0  0.41299  0.72569  0.38535  1.0000
  C   C309      1.0  0.99910  0.77876  0.29601  1.0000
  H   H531      1.0  0.16773  0.63295  0.34684  1.0000
  H   H532      1.0  0.07063  0.02453  0.28920  1.0000
  C   C310      1.0  0.08381  0.88440  0.31310  1.0000
  C   C311      1.0  0.42500  0.81204  0.19663  1.0000
  H   H533      1.0  0.03958  0.05750  0.21801  1.0000
  H   H534      1.0  0.22569  0.63451  0.17017  1.0000
  H   H535      1.0  0.37876  0.77545  0.23825  1.0000
  C   C312      1.0  0.27893  0.05711  0.33797  1.0000
  C   C313      1.0  0.34348  0.01633  0.37547  1.0000
  C   C314      1.0  0.19350  0.92643  0.20798  1.0000
  C   C315      1.0  0.05624  0.67759  0.26430  1.0000
  C   C316      1.0  0.40445  0.77957  0.20370  1.0000
  S   S58       1.0  0.39242  0.71176  0.17488  1.0000
  C   C317      1.0  0.07207  0.86948  0.26861  1.0000
  S   S59       1.0  0.30846  0.73481  0.31381  1.0000
  H   H536      1.0  0.42698  0.01458  0.29113  1.0000
  C   C318      1.0  0.41864  0.00283  0.21234  1.0000
  N   N17       1.0  0.16956  0.57534  0.33307  1.0000
  Fe  Fe29      1.0  0.32191  0.72128  0.22789  1.0000
  H   H537      1.0  0.11073  0.62091  0.34182  1.0000
  C   C319      1.0  0.39912  0.62013  0.39611  1.0000
  H   H538      1.0  0.45069  0.98106  0.20849  1.0000
  H   H539      1.0  0.24372  0.98715  0.18237  1.0000
  H   H540      1.0  0.04597  0.67403  0.30653  1.0000
  C   C320      1.0  0.23959  0.90683  0.17498  1.0000
  H   H541      1.0  0.38257  0.00660  0.37331  1.0000
  H   H542      1.0  0.22022  0.58661  0.17009  1.0000
  C   C321      1.0  0.39879  0.00661  0.27082  1.0000
  H   H543      1.0  0.28021  0.98827  0.39295  1.0000
  H   H544      1.0  0.38016  0.94053  0.38772  1.0000
  C   C322      1.0  0.26385  0.87383  0.20615  1.0000
  C   C323      1.0  0.12365  0.93911  0.15729  1.0000
  H   H545      1.0  0.05789  0.98841  0.33763  1.0000
  C   C324      1.0  0.03864  0.67614  0.17449  1.0000
  H   H546      1.0  0.42278  0.05190  0.36891  1.0000
  H   H547      1.0  0.26356  0.06402  0.37948  1.0000
  C   C325      1.0  0.08206  0.68856  0.15511  1.0000
  H   H548      1.0  0.43223  0.62919  0.37787  1.0000
  H   H549      1.0  0.32478  0.02211  0.26080  1.0000
  H   H550      1.0  0.12370  0.69481  0.27203  1.0000
  H   H551      1.0  0.24116  0.85158  0.21203  1.0000
  H   H552      1.0  0.35443  0.65791  0.34851  1.0000
  N   N18       1.0  0.16149  0.95579  0.17930  1.0000
  C   C326      1.0  0.10011  0.68962  0.24480  1.0000
  S   S60       1.0  0.27848  0.67516  0.23917  1.0000
  S   S61       1.0  0.16690  0.71087  0.16424  1.0000
  H   H553      1.0  0.42856  0.70059  0.36335  1.0000
  C   C327      1.0  0.14517  0.61081  0.35779  1.0000
  C   C328      1.0  0.35512  0.63639  0.37962  1.0000
  S   S62       1.0  0.25616  0.64962  0.39184  1.0000
  C   C329      1.0  0.20401  0.61308  0.18779  1.0000
  H   H554      1.0  0.24216  0.60129  0.25480  1.0000
  H   H555      1.0  0.00637  0.74832  0.22604  1.0000
  H   H556      1.0  0.42978  0.62695  0.16188  1.0000
  S   S63       1.0  0.26102  0.76337  0.20568  1.0000
  C   C330      1.0  0.17240  0.58112  0.27360  1.0000
  Fe  Fe30      1.0  0.47235  0.86087  0.34492  1.0000
  C   C331      1.0  0.20435  0.60959  0.24759  1.0000
  H   H557      1.0  0.06755  0.56578  0.38041  1.0000
  H   H558      1.0  0.01834  0.88128  0.64653  1.0000
  H   H559      1.0  0.18944  0.69933  0.46893  1.0000
  C   C332      1.0  0.26789  0.73694  0.47270  1.0000
  C   C333      1.0  0.27843  0.81521  0.49807  1.0000
  Fe  Fe31      1.0  0.08254  0.04851  0.57814  1.0000
  H   H560      1.0  0.30521  0.91961  0.54209  1.0000
  H   H561      1.0  0.01135  0.58218  0.49768  1.0000
  C   C334      1.0  0.35740  0.57939  0.45810  1.0000
  H   H562      1.0  0.18077  0.74432  0.43505  1.0000
  C   C335      1.0  0.29362  0.77937  0.53158  1.0000
  C   C336      1.0  0.35051  0.75028  0.46021  1.0000
  C   C337      1.0  0.37543  0.67880  0.60330  1.0000
  H   H563      1.0  0.07610  0.82644  0.63337  1.0000
  S   S64       1.0  0.03750  0.00363  0.58148  1.0000
  C   C338      1.0  0.37788  0.91960  0.55875  1.0000
  C   C339      1.0  0.43987  0.78152  0.54528  1.0000
  H   H564      1.0  0.07954  0.78205  0.44377  1.0000
  H   H565      1.0  0.08140  0.94848  0.41358  1.0000
  C   C340      1.0  0.40010  0.59195  0.43591  1.0000
  H   H566      1.0  0.38064  0.94386  0.53091  1.0000
  H   H567      1.0  0.12584  0.80649  0.40866  1.0000
  S   S65       1.0  0.42032  0.84994  0.41692  1.0000
  H   H568      1.0  0.08713  0.81395  0.52423  1.0000
  H   H569      1.0  0.13882  0.92539  0.50696  1.0000
  H   H570      1.0  0.42838  0.58520  0.60183  1.0000
  H   H571      1.0  0.44930  0.92552  0.46585  1.0000
  H   H572      1.0  0.41601  0.99094  0.46568  1.0000
  H   H573      1.0  0.41942  0.87013  0.58744  1.0000
  C   C341      1.0  0.00057  0.01528  0.53156  1.0000
  C   C342      1.0  0.28582  0.61964  0.58925  1.0000
  C   C343      1.0  0.42623  0.89326  0.55817  1.0000
  C   C344      1.0  0.05254  0.67601  0.63863  1.0000
  H   H574      1.0  0.99080  0.76362  0.41029  1.0000
  S   S66       1.0  0.45394  0.57166  0.45873  1.0000
  C   C345      1.0  0.11081  0.83495  0.61591  1.0000
  H   H575      1.0  0.29004  0.71077  0.57111  1.0000
  N   N19       1.0  0.46825  0.91036  0.56968  1.0000
  H   H576      1.0  0.47485  0.00351  0.46362  1.0000
  H   H577      1.0  0.33254  0.87671  0.57142  1.0000
  H   H578      1.0  0.21231  0.83430  0.54835  1.0000
  H   H579      1.0  0.08088  0.65934  0.42035  1.0000
  H   H580      1.0  0.39831  0.71339  0.53723  1.0000
  H   H581      1.0  0.13140  0.81238  0.59138  1.0000
  H   H582      1.0  0.26441  0.85020  0.56590  1.0000
  H   H583      1.0  0.34172  0.95586  0.44740  1.0000
  H   H584      1.0  0.14398  0.73547  0.49664  1.0000
  H   H585      1.0  0.36583  0.92945  0.59903  1.0000
  C   C346      1.0  0.13478  0.60967  0.41909  1.0000
  C   C347      1.0  0.36573  0.71297  0.56655  1.0000
  H   H586      1.0  0.03940  0.91229  0.48339  1.0000
  H   H587      1.0  0.34997  0.88950  0.50241  1.0000
  H   H588      1.0  0.27540  0.70809  0.45929  1.0000
  C   C348      1.0  0.21830  0.95996  0.60846  1.0000
  C   C349      1.0  0.47184  0.94619  0.53786  1.0000
  H   H589      1.0  0.99523  0.87300  0.53444  1.0000
  S   S67       1.0  0.01166  0.71080  0.49458  1.0000
  H   H590      1.0  0.04443  0.67113  0.59853  1.0000
  H   H591      1.0  0.31560  0.03589  0.63206  1.0000
  H   H592      1.0  0.40681  0.68095  0.62367  1.0000
  H   H593      1.0  0.02711  0.84198  0.46301  1.0000
  H   H594      1.0  0.02166  0.61382  0.62814  1.0000
  H   H595      1.0  0.20444  0.77110  0.51408  1.0000
  H   H596      1.0  0.46015  0.98120  0.40848  1.0000
  C   C350      1.0  0.10720  0.66231  0.63838  1.0000
  H   H597      1.0  0.38401  0.65354  0.58009  1.0000
  H   H598      1.0  0.31101  0.82677  0.47951  1.0000
  C   C351      1.0  0.32056  0.71251  0.53903  1.0000
  H   H599      1.0  0.16790  0.60088  0.43768  1.0000
  H   H600      1.0  0.28029  0.58768  0.46130  1.0000
  H   H601      1.0  0.01908  0.83712  0.57718  1.0000
  H   H602      1.0  0.34395  0.67672  0.63389  1.0000
  S   S68       1.0  0.25687  0.05727  0.50878  1.0000
  H   H603      1.0  0.23827  0.87030  0.50809  1.0000
  H   H604      1.0  0.42155  0.77798  0.58500  1.0000
  H   H605      1.0  0.08721  0.97759  0.46602  1.0000
  H   H606      1.0  0.42848  0.93939  0.63676  1.0000
  H   H607      1.0  0.29161  0.96424  0.61295  1.0000
  H   H608      1.0  0.32421  0.61160  0.59461  1.0000
  H   H609      1.0  0.09106  0.89505  0.60799  1.0000
  C   C352      1.0  0.00057  0.04919  0.50288  1.0000
  C   C353      1.0  0.46055  0.91814  0.62774  1.0000
  H   H610      1.0  0.99980  0.91989  0.60359  1.0000
  C   C354      1.0  0.06615  0.84171  0.45267  1.0000
  C   C355      1.0  0.24643  0.84435  0.53234  1.0000
  H   H611      1.0  0.34005  0.77290  0.43076  1.0000
  C   C356      1.0  0.06725  0.90929  0.51064  1.0000
  H   H612      1.0  0.43459  0.88012  0.51943  1.0000
  H   H613      1.0  0.05452  0.93162  0.53873  1.0000
  H   H614      1.0  0.17565  0.67239  0.59542  1.0000
  C   C357      1.0  0.42171  0.81006  0.51109  1.0000
  H   H615      1.0  0.38978  0.69349  0.45465  1.0000
  H   H616      1.0  0.23752  0.02313  0.64277  1.0000
  C   C358      1.0  0.21716  0.74172  0.50531  1.0000
  C   C359      1.0  0.31343  0.59657  0.44301  1.0000
  H   H617      1.0  0.28281  0.62449  0.54637  1.0000
  H   H618      1.0  0.26482  0.77535  0.56491  1.0000
  C   C360      1.0  0.44507  0.81476  0.45956  1.0000
  H   H619      1.0  0.21734  0.72519  0.54332  1.0000
  C   C361      1.0  0.11348  0.64796  0.43871  1.0000
  C   C362      1.0  0.33908  0.90003  0.54279  1.0000
  H   H620      1.0  0.44250  0.96818  0.55342  1.0000
  C   C363      1.0  0.37359  0.71611  0.42866  1.0000
  C   C364      1.0  0.09057  0.84119  0.50322  1.0000
  C   C365      1.0  0.10491  0.95350  0.44268  1.0000
  H   H621      1.0  0.13927  0.96016  0.42072  1.0000
  C   C366      1.0  0.08653  0.80776  0.42049  1.0000
  H   H622      1.0  0.18306  0.96202  0.63407  1.0000
  H   H623      1.0  0.37905  0.75960  0.47873  1.0000
  H   H624      1.0  0.21628  0.98171  0.57601  1.0000
  H   H625      1.0  0.25846  0.81036  0.46565  1.0000
  H   H626      1.0  0.32574  0.68595  0.51879  1.0000
  H   H627      1.0  0.13974  0.87597  0.56284  1.0000
  H   H628      1.0  0.12984  0.84045  0.49094  1.0000
  C   C367      1.0  0.18065  0.72947  0.47450  1.0000
  C   C368      1.0  0.31212  0.62570  0.40478  1.0000
  H   H629      1.0  0.38885  0.82782  0.52438  1.0000
  C   C369      1.0  0.45484  0.98242  0.45229  1.0000
  C   C370      1.0  0.10338  0.87146  0.58164  1.0000
  C   C371      1.0  0.47231  0.94446  0.47705  1.0000
  H   H630      1.0  0.11615  0.63249  0.63049  1.0000
  H   H631      1.0  0.10364  0.64634  0.48237  1.0000
  H   H632      1.0  0.32381  0.78516  0.55136  1.0000
  N   N20       1.0  0.30817  0.74482  0.50091  1.0000
  H   H633      1.0  0.10898  0.59061  0.43364  1.0000
  H   H634      1.0  0.40588  0.04660  0.61311  1.0000
  H   H635      1.0  0.34632  0.70580  0.40948  1.0000
  H   H636      1.0  0.33264  0.02731  0.41577  1.0000
  H   H637      1.0  0.26560  0.75432  0.43534  1.0000
  H   H638      1.0  0.36118  0.73734  0.59095  1.0000
  C   C372      1.0  0.11470  0.91920  0.47925  1.0000
  H   H639      1.0  0.13068  0.71300  0.60214  1.0000
  H   H640      1.0  0.12721  0.67872  0.55561  1.0000
  H   H641      1.0  0.14002  0.66724  0.42845  1.0000
  C   C373      1.0  0.02051  0.86658  0.56448  1.0000
  H   H642      1.0  0.22557  0.93254  0.59069  1.0000
  N   N21       1.0  0.07059  0.87208  0.54001  1.0000
  H   H643      1.0  0.13413  0.89654  0.45448  1.0000
  C   C374      1.0  0.13685  0.68298  0.59517  1.0000
  H   H644      1.0  0.27174  0.64587  0.60919  1.0000
  C   C375      1.0  0.48013  0.75636  0.52724  1.0000
  S   S69       1.0  0.14612  0.04842  0.62021  1.0000
  H   H645      1.0  0.07150  0.86659  0.42697  1.0000
  C   C376      1.0  0.25686  0.58959  0.61338  1.0000
  H   H646      1.0  0.21889  0.59901  0.60717  1.0000
  C   C377      1.0  0.99843  0.89015  0.61257  1.0000
  H   H647      1.0  0.34532  0.99138  0.64406  1.0000
  H   H648      1.0  0.27556  0.81824  0.65142  1.0000
  H   H649      1.0  0.42867  0.00318  0.64451  1.0000
  C   C378      1.0  0.25828  0.96399  0.64089  1.0000
  H   H650      1.0  0.45169  0.89339  0.65210  1.0000
  C   C379      1.0  0.41205  0.03207  0.65164  1.0000
  H   H651      1.0  0.04595  0.70659  0.64134  1.0000
  H   H652      1.0  0.17370  0.84889  0.64590  1.0000
  C   C380      1.0  0.34233  0.94892  0.40566  1.0000
  H   H653      1.0  0.32290  0.92502  0.40528  1.0000
  Fe  Fe32      1.0  0.87622  0.22107  0.80659  1.0000
  S   S70       1.0  0.70122  0.26862  0.86492  1.0000
  C   C381      1.0  0.69262  0.34622  0.70674  1.0000
  C   C382      1.0  0.68725  0.38100  0.79027  1.0000
  Fe  Fe33      1.0  0.56828  0.40856  0.65929  1.0000
  Fe  Fe34      1.0  0.82104  0.20486  0.72005  1.0000
  H   H654      1.0  0.65552  0.36793  0.80688  1.0000
  C   C383      1.0  0.71899  0.35304  0.75224  1.0000
  S   S71       1.0  0.81570  0.16555  0.65861  1.0000
  H   H655      1.0  0.72773  0.32613  0.77370  1.0000
  H   H656      1.0  0.56806  0.19618  0.88410  1.0000
  C   C384      1.0  0.61666  0.30257  0.83253  1.0000
  H   H657      1.0  0.85155  0.11523  0.85814  1.0000
  H   H658      1.0  0.69465  0.34426  0.88183  1.0000
  H   H659      1.0  0.67244  0.40547  0.76649  1.0000
  C   C385      1.0  0.67584  0.42134  0.86481  1.0000
  C   C386      1.0  0.65387  0.27260  0.82699  1.0000
  H   H660      1.0  0.57832  0.24272  0.88968  1.0000
  H   H661      1.0  0.89215  0.48059  0.67007  1.0000
  H   H662      1.0  0.48721  0.06680  0.80771  1.0000
  Fe  Fe35      1.0  0.76952  0.25015  0.81250  1.0000
  C   C387      1.0  0.66280  0.13925  0.68280  1.0000
  C   C388      1.0  0.98211  0.16877  0.82133  1.0000
  H   H663      1.0  0.61656  0.32293  0.86118  1.0000
  S   S72       1.0  0.85356  0.33492  0.68288  1.0000
  H   H664      1.0  0.89228  0.55480  0.65942  1.0000
  C   C389      1.0  0.65337  0.24589  0.79075  1.0000
  H   H665      1.0  0.96868  0.54083  0.71503  1.0000
  C   C390      1.0  0.96210  0.06891  0.90371  1.0000
  H   H666      1.0  0.49871  0.56300  0.82522  1.0000
  H   H667      1.0  0.71975  0.46251  0.77987  1.0000
  H   H668      1.0  0.83179  0.07046  0.86466  1.0000
  H   H669      1.0  0.96710  0.08804  0.86844  1.0000
  H   H670      1.0  0.67568  0.54771  0.68466  1.0000
  H   H671      1.0  0.61458  0.22768  0.73318  1.0000
  C   C391      1.0  0.79506  0.45652  0.75098  1.0000
  H   H672      1.0  0.57861  0.52310  0.80839  1.0000
  C   C392      1.0  0.50946  0.54989  0.78649  1.0000
  H   H673      1.0  0.93954  0.44275  0.68005  1.0000
  H   H674      1.0  0.82552  0.43468  0.73808  1.0000
  S   S73       1.0  0.61593  0.44097  0.69310  1.0000
  S   S74       1.0  0.60387  0.12929  0.69386  1.0000
  H   H675      1.0  0.51934  0.18792  0.70825  1.0000
  C   C393      1.0  0.89815  0.08391  0.67679  1.0000
  H   H676      1.0  0.71556  0.32581  0.68034  1.0000
  H   H677      1.0  0.84232  0.11984  0.76206  1.0000
  C   C394      1.0  0.48970  0.17911  0.73706  1.0000
  H   H678      1.0  0.75289  0.36282  0.73479  1.0000
  H   H679      1.0  0.80377  0.47076  0.78459  1.0000
  H   H680      1.0  0.74008  0.17649  0.74570  1.0000
  H   H681      1.0  0.49442  0.14850  0.73935  1.0000
  H   H682      1.0  0.95043  0.45305  0.90395  1.0000
  C   C395      1.0  0.84627  0.09225  0.78312  1.0000
  H   H683      1.0  0.65695  0.16237  0.75912  1.0000
  N   N22       1.0  0.71111  0.39269  0.83403  1.0000
  S   S75       1.0  0.88813  0.22958  0.71825  1.0000
  H   H684      1.0  0.66106  0.44376  0.83735  1.0000
  H   H685      1.0  0.72177  0.09027  0.79695  1.0000
  H   H686      1.0  0.76903  0.42200  0.84409  1.0000
  S   S76       1.0  0.50342  0.39040  0.70732  1.0000
  C   C396      1.0  0.57894  0.27924  0.76497  1.0000
  C   C397      1.0  0.72572  0.35911  0.86878  1.0000
  C   C398      1.0  0.63188  0.40735  0.89879  1.0000
  H   H687      1.0  0.55238  0.33044  0.80251  1.0000
  H   H688      1.0  0.92046  0.09559  0.78113  1.0000
  Fe  Fe36      1.0  0.53256  0.33497  0.67552  1.0000
  C   C399      1.0  0.72716  0.16355  0.71504  1.0000
  C   C400      1.0  0.68010  0.15559  0.72255  1.0000
  H   H689      1.0  0.69410  0.43529  0.89151  1.0000
  H   H690      1.0  0.89917  0.48814  0.81042  1.0000
  H   H691      1.0  0.79134  0.11114  0.84775  1.0000
  H   H692      1.0  0.88826  0.35426  0.77659  1.0000
  S   S77       1.0  0.83343  0.27743  0.81839  1.0000
  H   H693      1.0  0.64245  0.08146  0.78228  1.0000
  S   S78       1.0  0.77331  0.25935  0.72446  1.0000
  H   H694      1.0  0.52992  0.49672  0.82626  1.0000
  H   H695      1.0  0.82179  0.07632  0.76826  1.0000
  H   H696      1.0  0.98141  0.08498  0.70490  1.0000
  H   H697      1.0  0.78525  0.38754  0.79695  1.0000
  H   H698      1.0  0.95026  0.17123  0.74948  1.0000
  H   H699      1.0  0.65237  0.19692  0.89218  1.0000
  H   H700      1.0  0.65902  0.33512  0.72235  1.0000
  H   H701      1.0  0.79009  0.47714  0.71751  1.0000
  H   H702      1.0  0.51811  0.34336  0.88748  1.0000
  H   H703      1.0  0.96788  0.36940  0.79001  1.0000
  C   C401      1.0  0.91495  0.45841  0.81057  1.0000
  H   H704      1.0  0.49157  0.21352  0.87564  1.0000
  C   C402      1.0  0.58007  0.30653  0.80013  1.0000
  H   H705      1.0  0.55652  0.50038  0.75815  1.0000
  C   C403      1.0  0.82937  0.09752  0.84209  1.0000
  Fe  Fe37      1.0  0.83954  0.28333  0.73005  1.0000
  S   S79       1.0  0.93385  0.19705  0.85618  1.0000
  H   H706      1.0  0.90472  0.44590  0.77631  1.0000
  C   C404      1.0  0.89951  0.07371  0.77356  1.0000
  H   H707      1.0  0.85697  0.44068  0.86389  1.0000
  C   C405      1.0  0.89650  0.43834  0.86199  1.0000
  H   H708      1.0  0.49256  0.18888  0.77652  1.0000
  C   C406      1.0  0.91725  0.35303  0.74407  1.0000
  H   H709      1.0  0.72652  0.07942  0.72836  1.0000
  C   C407      1.0  0.90966  0.34390  0.69388  1.0000
  C   C408      1.0  0.74897  0.43980  0.76714  1.0000
  C   C409      1.0  0.96215  0.36144  0.75171  1.0000
  H   H710      1.0  0.74031  0.42826  0.73126  1.0000
  H   H711      1.0  0.95477  0.45599  0.80574  1.0000
  S   S80       1.0  0.53186  0.28317  0.72675  1.0000
  H   H712      1.0  0.68397  0.37222  0.68289  1.0000
  H   H713      1.0  0.75286  0.33890  0.84604  1.0000
  H   H714      1.0  0.68185  0.22262  0.78691  1.0000
  H   H715      1.0  0.97076  0.31934  0.86756  1.0000
  H   H716      1.0  0.85834  0.08811  0.68207  1.0000
  C   C410      1.0  0.61531  0.24871  0.76063  1.0000
  C   C411      1.0  0.54602  0.51547  0.79528  1.0000
  S   S81       1.0  0.81159  0.19320  0.80810  1.0000
  C   C412      1.0  0.75539  0.40937  0.81200  1.0000
  H   H717      1.0  0.91224  0.40880  0.85921  1.0000
  C   C413      1.0  0.75737  0.15456  0.66821  1.0000
  H   H718      1.0  0.50597  0.27522  0.88324  1.0000
  H   H719      1.0  0.55203  0.56146  0.71074  1.0000
  C   C414      1.0  0.71953  0.06839  0.76983  1.0000
  H   H720      1.0  0.60987  0.39562  0.87364  1.0000
  C   C415      1.0  0.98206  0.16245  0.76801  1.0000
  H   H721      1.0  0.48525  0.53750  0.68267  1.0000
  H   H722      1.0  0.90738  0.11206  0.67961  1.0000
  C   C416      1.0  0.98433  0.29210  0.88595  1.0000
  H   H723      1.0  0.58608  0.46114  0.89985  1.0000
  C   C417      1.0  0.75097  0.22148  0.13338  1.0000
  S   S82       1.0  0.84755  0.56217  0.91319  1.0000
  S   S83       1.0  0.69240  0.38944  0.05390  1.0000
  H   H724      1.0  0.85991  0.10574  0.04772  1.0000
  H   H725      1.0  0.56808  0.42835  0.95168  1.0000
  H   H726      1.0  0.98198  0.33872  0.00574  1.0000
  C   C418      1.0  0.62531  0.20112  0.92797  1.0000
  S   S84       1.0  0.86178  0.27906  0.10566  1.0000
  C   C419      1.0  0.59083  0.30411  0.06862  1.0000
  Fe  Fe38      1.0  0.61837  0.13575  0.07786  1.0000
  C   C420      1.0  0.63934  0.29289  0.07381  1.0000
  N   N23       1.0  0.89478  0.43730  0.96412  1.0000
  H   H727      1.0  0.83316  0.41519  0.94559  1.0000
  H   H728      1.0  0.95688  0.16709  0.95464  1.0000
  C   C421      1.0  0.76219  0.18722  0.97653  1.0000
  C   C422      1.0  0.90512  0.46022  0.00674  1.0000
  H   H729      1.0  0.79275  0.14440  0.02849  1.0000
  H   H730      1.0  0.80142  0.53427  0.08346  1.0000
  C   C423      1.0  0.95874  0.46236  0.00922  1.0000
  S   S85       1.0  0.58015  0.46436  0.08243  1.0000
  C   C424      1.0  0.72589  0.08565  0.03715  1.0000
  H   H731      1.0  0.63650  0.22117  0.95263  1.0000
  H   H732      1.0  0.52558  0.35966  0.95011  1.0000
  S   S86       1.0  0.65538  0.18491  0.07902  1.0000
  Fe  Fe39      1.0  0.60709  0.51728  0.09147  1.0000
  H   H733      1.0  0.96086  0.39840  0.95534  1.0000
  H   H734      1.0  0.91057  0.38124  0.93841  1.0000
  H   H735      1.0  0.78256  0.37695  0.90640  1.0000
  H   H736      1.0  0.95305  0.27996  0.90687  1.0000
  H   H737      1.0  0.97561  0.47467  0.97175  1.0000
  Fe  Fe40      1.0  0.65292  0.43753  0.09945  1.0000
  H   H738      1.0  0.78602  0.30997  0.92861  1.0000
  H   H739      1.0  0.94860  0.07026  0.98819  1.0000
  H   H740      1.0  0.92870  0.39137  0.05228  1.0000
  C   C425      1.0  0.85975  0.12102  0.14794  1.0000
  H   H741      1.0  0.65225  0.26440  0.08398  1.0000
  C   C426      1.0  0.53692  0.22002  0.96061  1.0000
  N   N24       1.0  0.48736  0.23846  0.95080  1.0000
  H   H742      1.0  0.83955  0.16752  0.09619  1.0000
  H   H743      1.0  0.77780  0.25926  0.07224  1.0000
  H   H744      1.0  0.72907  0.17482  0.97642  1.0000
  H   H745      1.0  0.90763  0.22448  0.98502  1.0000
  C   C427      1.0  0.57590  0.21592  0.91151  1.0000
  C   C428      1.0  0.90508  0.11892  0.95412  1.0000
  H   H746      1.0  0.75491  0.20834  0.00698  1.0000
  C   C429      1.0  0.51325  0.30272  0.95377  1.0000
  H   H747      1.0  0.71212  0.10314  0.07000  1.0000
  S   S87       1.0  0.63425  0.09719  0.01127  1.0000
  H   H748      1.0  0.64312  0.38593  0.92922  1.0000
  H   H749      1.0  0.92873  0.32187  0.99147  1.0000
  C   C430      1.0  0.85066  0.17315  0.98753  1.0000
  C   C431      1.0  0.77343  0.35190  0.13626  1.0000
  C   C432      1.0  0.81448  0.51082  0.11016  1.0000
  C   C433      1.0  0.87178  0.14665  0.09983  1.0000
  C   C434      1.0  0.92171  0.39849  0.96720  1.0000
  N   N25       1.0  0.89470  0.14604  0.99781  1.0000
  C   C435      1.0  0.78341  0.24457  0.10963  1.0000
  C   C436      1.0  0.95200  0.09056  0.95408  1.0000
  S   S88       1.0  0.54947  0.27303  0.08155  1.0000
  H   H750      1.0  0.77079  0.20089  0.93687  1.0000
  H   H751      1.0  0.81198  0.49301  0.99244  1.0000
  C   C437      1.0  0.65412  0.35620  0.05629  1.0000
  S   S89       1.0  0.68140  0.49046  0.10364  1.0000
  C   C438      1.0  0.74823  0.36612  0.91818  1.0000
  C   C439      1.0  0.88686  0.12422  0.04956  1.0000
  H   H752      1.0  0.53707  0.34974  0.05088  1.0000
  C   C440      1.0  0.67108  0.31891  0.06722  1.0000
  H   H753      1.0  0.61935  0.45053  0.95595  1.0000
  H   H754      1.0  0.77345  0.33603  0.98776  1.0000
  C   C441      1.0  0.93790  0.16577  0.99570  1.0000
  C   C442      1.0  0.80336  0.15700  0.98869  1.0000
  H   H755      1.0  0.77222  0.37898  0.11396  1.0000
  Fe  Fe41      1.0  0.58239  0.21596  0.10546  1.0000
  H   H756      1.0  0.74569  0.45501  0.01191  1.0000
  H   H757      1.0  0.73219  0.49436  0.96731  1.0000
  H   H758      1.0  0.87579  0.10197  0.95591  1.0000
  C   C443      1.0  0.57438  0.34107  0.05558  1.0000
  H   H759      1.0  0.94340  0.51501  0.04808  1.0000
  H   H760      1.0  0.87699  0.37479  0.03499  1.0000
  S   S90       1.0  0.54515  0.16823  0.09617  1.0000
  H   H761      1.0  0.93959  0.32395  0.05871  1.0000
  C   C444      1.0  0.60590  0.36708  0.04971  1.0000
  H   H762      1.0  0.70835  0.31027  0.07207  1.0000
  H   H763      1.0  0.55258  0.29316  0.95049  1.0000
  H   H764      1.0  0.79753  0.48668  0.10317  1.0000
  H   H765      1.0  0.96481  0.14980  0.01949  1.0000
  H   H766      1.0  0.98384  0.10403  0.95610  1.0000
  H   H767      1.0  0.48650  0.47072  0.03238  1.0000
  H   H768      1.0  0.90929  0.20901  0.05320  1.0000
  C   C445      1.0  0.48845  0.27665  0.92510  1.0000
  H   H769      1.0  0.62483  0.17422  0.95064  1.0000
  C   C446      1.0  0.84160  0.43557  0.97180  1.0000
  C   C447      1.0  0.94321  0.33811  0.01888  1.0000
  H   H770      1.0  0.82994  0.42508  0.01277  1.0000
  H   H771      1.0  0.72581  0.31789  0.96359  1.0000
  C   C448      1.0  0.50530  0.34233  0.93046  1.0000
  H   H772      1.0  0.55050  0.23479  0.99046  1.0000
  H   H773      1.0  0.72048  0.21892  0.11442  1.0000
  H   H774      1.0  0.81603  0.48514  0.92304  1.0000
  C   C449      1.0  0.75561  0.46731  0.97168  1.0000
  H   H775      1.0  0.50401  0.53975  0.03092  1.0000
  C   C450      1.0  0.96345  0.48678  0.05385  1.0000
  C   C451      1.0  0.69541  0.07909  0.00156  1.0000
  H   H776      1.0  0.72365  0.38619  0.94352  1.0000
  H   H777      1.0  0.88757  0.48931  0.00139  1.0000
  H   H778      1.0  0.51090  0.09774  0.13743  1.0000
  C   C452      1.0  0.91523  0.37728  0.02173  1.0000
  H   H779      1.0  0.88905  0.45035  0.04648  1.0000
  C   C453      1.0  0.97627  0.22140  0.01096  1.0000
  C   C454      1.0  0.75907  0.33028  0.95144  1.0000
  H   H780      1.0  0.94971  0.47451  0.09293  1.0000
  C   C455      1.0  0.80822  0.47279  0.96358  1.0000
  H   H781      1.0  0.90168  0.16054  0.10780  1.0000
  C   C456      1.0  0.92894  0.20638  0.01269  1.0000
  H   H782      1.0  0.77228  0.33037  0.10826  1.0000
  H   H783      1.0  0.96889  0.24991  0.02527  1.0000
  H   H784      1.0  0.85778  0.18786  0.94817  1.0000
  H   H785      1.0  0.59281  0.39550  0.03973  1.0000
  H   H786      1.0  0.85398  0.50362  0.10060  1.0000
  C   C457      1.0  0.82234  0.24931  0.13473  1.0000
  H   H787      1.0  0.82840  0.10776  0.14265  1.0000
  H   H788      1.0  0.74917  0.44880  0.94193  1.0000
  H   H789      1.0  0.80674  0.13599  0.95869  1.0000
  H   H790      1.0  0.97945  0.43468  0.01669  1.0000
  C   C458      1.0  0.59947  0.43890  0.92823  1.0000
  H   H791      1.0  0.84244  0.19508  0.01675  1.0000
  H   H792      1.0  0.92025  0.10528  0.05649  1.0000
  H   H793      1.0  0.89086  0.09930  0.15353  1.0000
  H   H794      1.0  0.53581  0.19167  0.97844  1.0000
  H   H795      1.0  0.49848  0.30394  0.99620  1.0000
  C   C459      1.0  0.77409  0.06881  0.03093  1.0000
  H   H796      1.0  0.79699  0.07319  0.05936  1.0000
  C   C460      1.0  0.91063  0.45498  0.91075  1.0000
  H   H797      1.0  0.90644  0.13410  0.91481  1.0000
  H   H798      1.0  0.80764  0.34612  0.15321  1.0000
  H   H799      1.0  0.89713  0.48513  0.90952  1.0000
  H   H800      1.0  0.69779  0.35527  0.16124  1.0000
  H   H801      1.0  0.64712  0.35815  0.35924  1.0000
  H   H802      1.0  0.49561  0.51607  0.36405  1.0000
  C   C461      1.0  0.55112  0.55701  0.30470  1.0000
  H   H803      1.0  0.73936  0.44580  0.20047  1.0000
  H   H804      1.0  0.68993  0.56292  0.33906  1.0000
  H   H805      1.0  0.65714  0.12418  0.27957  1.0000
  C   C462      1.0  0.84476  0.52954  0.26832  1.0000
  C   C463      1.0  0.64989  0.33240  0.25646  1.0000
  C   C464      1.0  0.65046  0.08853  0.35189  1.0000
  H   H806      1.0  0.57153  0.15031  0.28367  1.0000
  H   H807      1.0  0.86010  0.23377  0.20149  1.0000
  H   H808      1.0  0.97875  0.14978  0.17909  1.0000
  H   H809      1.0  0.63515  0.14958  0.33814  1.0000
  H   H810      1.0  0.70554  0.37654  0.28460  1.0000
  H   H811      1.0  0.90096  0.15928  0.24657  1.0000
  C   C465      1.0  0.73096  0.35308  0.18010  1.0000
  H   H812      1.0  0.55749  0.12619  0.34606  1.0000
  H   H813      1.0  0.57846  0.10062  0.28684  1.0000
  H   H814      1.0  0.82078  0.08115  0.26080  1.0000
  H   H815      1.0  0.75246  0.34374  0.30522  1.0000
  H   H816      1.0  0.86975  0.32588  0.39388  1.0000
  C   C466      1.0  0.75085  0.44568  0.23911  1.0000
  H   H817      1.0  0.57025  0.30594  0.17971  1.0000
  H   H818      1.0  0.59141  0.25158  0.36698  1.0000
  S   S91       1.0  0.85600  0.39153  0.31811  1.0000
  C   C467      1.0  0.92138  0.17691  0.26523  1.0000
  H   H819      1.0  0.76147  0.52740  0.17581  1.0000
  H   H820      1.0  0.93841  0.10299  0.23484  1.0000
  C   C468      1.0  0.73814  0.09221  0.33227  1.0000
  H   H821      1.0  0.96279  0.08099  0.28992  1.0000
  H   H822      1.0  0.57553  0.49913  0.29877  1.0000
  S   S92       1.0  0.97479  0.34664  0.24945  1.0000
  H   H823      1.0  0.50885  0.20716  0.28156  1.0000
  H   H824      1.0  0.64539  0.36129  0.23978  1.0000
  C   C469      1.0  0.51070  0.22971  0.30763  1.0000
  H   H825      1.0  0.61575  0.45662  0.37363  1.0000
  C   C470      1.0  0.79027  0.42039  0.25217  1.0000
  C   C471      1.0  0.56876  0.51932  0.33021  1.0000
  H   H826      1.0  0.69240  0.32345  0.38283  1.0000
  C   C472      1.0  0.63177  0.30764  0.21923  1.0000
  H   H827      1.0  0.90631  0.21463  0.33011  1.0000
  H   H828      1.0  0.62412  0.33308  0.29349  1.0000
  C   C473      1.0  0.96412  0.15387  0.28986  1.0000
  C   C474      1.0  0.80544  0.42092  0.30178  1.0000
  H   H829      1.0  0.51885  0.35220  0.34488  1.0000
  C   C475      1.0  0.82442  0.55442  0.17958  1.0000
  H   H830      1.0  0.69136  0.14572  0.38713  1.0000
  S   S93       1.0  0.62476  0.11726  0.16246  1.0000
  H   H831      1.0  0.72928  0.37864  0.20105  1.0000
  H   H832      1.0  0.51958  0.55521  0.28461  1.0000
  Fe  Fe42      1.0  0.65700  0.16909  0.16548  1.0000
  H   H833      1.0  0.98410  0.17362  0.30516  1.0000
  H   H834      1.0  0.51361  0.21739  0.34826  1.0000
  C   C476      1.0  0.75821  0.20203  0.18129  1.0000
  C   C477      1.0  0.72769  0.47178  0.27534  1.0000
  C   C478      1.0  0.53176  0.50883  0.37710  1.0000
  S   S94       1.0  0.48798  0.13838  0.23337  1.0000
  H   H835      1.0  0.77148  0.09760  0.22316  1.0000
  H   H836      1.0  0.60342  0.52088  0.34437  1.0000
  C   C479      1.0  0.78891  0.07365  0.24596  1.0000
  S   S95       1.0  0.57923  0.51932  0.17778  1.0000
  H   H837      1.0  0.77095  0.09400  0.35024  1.0000
  H   H838      1.0  0.73364  0.29402  0.19545  1.0000
  C   C480      1.0  0.71317  0.34819  0.30281  1.0000
  H   H839      1.0  0.82126  0.50776  0.27579  1.0000
  H   H840      1.0  0.85037  0.13708  0.18416  1.0000
  C   C481      1.0  0.58225  0.12511  0.30819  1.0000
  H   H841      1.0  0.85655  0.26160  0.38884  1.0000
  S   S96       1.0  0.68119  0.50517  0.25843  1.0000
  C   C482      1.0  0.89498  0.51101  0.24358  1.0000
  H   H842      1.0  0.59307  0.31689  0.38388  1.0000
  C   C483      1.0  0.83275  0.31891  0.40033  1.0000
  H   H843      1.0  0.84895  0.53768  0.30840  1.0000
  H   H844      1.0  0.54327  0.24258  0.29369  1.0000
  H   H845      1.0  0.80354  0.19131  0.24291  1.0000
  H   H846      1.0  0.67341  0.28179  0.32893  1.0000
  Fe  Fe43      1.0  0.89497  0.35722  0.25188  1.0000
  S   S97       1.0  0.88584  0.29781  0.25390  1.0000
  C   C484      1.0  0.97321  0.09400  0.25026  1.0000
  H   H847      1.0  0.54378  0.38346  0.29474  1.0000
  H   H848      1.0  0.72480  0.49249  0.35273  1.0000
  H   H849      1.0  0.93548  0.36602  0.38858  1.0000
  H   H850      1.0  0.69334  0.40717  0.37051  1.0000
  Fe  Fe44      1.0  0.96584  0.28754  0.24824  1.0000
  H   H851      1.0  0.89271  0.49774  0.20643  1.0000
  H   H852      1.0  0.77331  0.31352  0.22813  1.0000
  H   H853      1.0  0.69768  0.26177  0.26786  1.0000
  H   H854      1.0  0.78265  0.21842  0.36051  1.0000
  H   H855      1.0  0.83776  0.48964  0.39199  1.0000
  C   C485      1.0  0.68617  0.35016  0.35996  1.0000
  Fe  Fe45      1.0  0.56043  0.46319  0.17079  1.0000
  C   C486      1.0  0.74269  0.47206  0.32499  1.0000
  H   H856      1.0  0.62666  0.28058  0.23963  1.0000
  C   C487      1.0  0.73588  0.31830  0.21828  1.0000
  H   H857      1.0  0.76034  0.28576  0.34412  1.0000
  H   H858      1.0  0.73043  0.11919  0.30998  1.0000
  H   H859      1.0  0.94825  0.13897  0.32585  1.0000
  S   S98       1.0  0.71924  0.17153  0.21035  1.0000
  C   C488      1.0  0.79758  0.20654  0.20609  1.0000
  Fe  Fe46      1.0  0.55334  0.15303  0.18092  1.0000
  S   S99       1.0  0.58603  0.20320  0.19152  1.0000
  C   C489      1.0  0.58351  0.32553  0.20312  1.0000
  C   C490      1.0  0.53141  0.40332  0.37445  1.0000
  H   H860      1.0  0.85888  0.21760  0.29015  1.0000
  C   C491      1.0  0.91586  0.48090  0.28174  1.0000
  S   S100      1.0  0.63142  0.43284  0.18711  1.0000
  H   H861      1.0  0.65710  0.30244  0.18246  1.0000
  H   H862      1.0  0.49473  0.45524  0.34276  1.0000
  H   H863      1.0  0.80901  0.40076  0.22383  1.0000
  H   H864      1.0  0.93415  0.19733  0.23463  1.0000
  N   N26       1.0  0.82148  0.56228  0.23729  1.0000
  C   C492      1.0  0.82944  0.23039  0.18294  1.0000
  Fe  Fe47      1.0  0.65152  0.48880  0.18940  1.0000
  H   H865      1.0  0.79203  0.44569  0.37739  1.0000
  C   C493      1.0  0.51792  0.38167  0.33140  1.0000
  H   H866      1.0  0.55671  0.33202  0.23847  1.0000
  H   H867      1.0  0.55688  0.44561  0.32138  1.0000
  H   H868      1.0  0.81294  0.49598  0.19275  1.0000
  H   H869      1.0  0.49257  0.29488  0.24575  1.0000
  H   H870      1.0  0.81812  0.32342  0.36201  1.0000
  H   H871      1.0  0.73861  0.20950  0.32077  1.0000
  H   H872      1.0  0.92676  0.49330  0.31578  1.0000
  H   H873      1.0  0.77535  0.55933  0.34529  1.0000
  H   H874      1.0  0.94752  0.46389  0.26064  1.0000
  C   C494      1.0  0.88676  0.19823  0.30807  1.0000
  C   C495      1.0  0.63402  0.12390  0.31843  1.0000
  H   H875      1.0  0.78086  0.26274  0.28355  1.0000
  N   N27       1.0  0.70055  0.32024  0.26843  1.0000
  H   H876      1.0  0.75197  0.54596  0.25933  1.0000
  H   H877      1.0  0.65216  0.06537  0.32579  1.0000
  C   C496      1.0  0.78097  0.44606  0.33862  1.0000
  H   H878      1.0  0.71969  0.23310  0.38192  1.0000
  H   H879      1.0  0.86862  0.17886  0.33613  1.0000
  H   H880      1.0  0.88938  0.46232  0.29689  1.0000
  H   H881      1.0  0.92036  0.53127  0.23453  1.0000
  N   N28       1.0  0.69679  0.08717  0.37475  1.0000
  C   C497      1.0  0.75112  0.26685  0.31671  1.0000
  C   C498      1.0  0.70320  0.28237  0.29562  1.0000
  C   C499      1.0  0.74773  0.22968  0.34680  1.0000
  S   S101      1.0  0.49997  0.43891  0.21830  1.0000
  C   C500      1.0  0.52981  0.44480  0.35722  1.0000
  H   H882      1.0  0.58730  0.35124  0.17827  1.0000
  H   H883      1.0  0.62107  0.08495  0.38477  1.0000
  C   C501      1.0  0.80124  0.52082  0.16802  1.0000
  H   H884      1.0  0.49100  0.32959  0.16728  1.0000
  C   C502      1.0  0.70236  0.37945  0.39002  1.0000
  H   H885      1.0  0.74166  0.37367  0.39132  1.0000
  H   H886      1.0  0.56825  0.39099  0.38115  1.0000
  N   N29       1.0  0.53914  0.46934  0.39848  1.0000
  S   S102      1.0  0.89853  0.36401  0.16349  1.0000
  Fe  Fe48      1.0  0.89757  0.30292  0.16514  1.0000
  Fe  Fe49      1.0  0.97775  0.34792  0.16104  1.0000
  H   H887      1.0  0.86240  0.55098  0.16031  1.0000
  S   S103      1.0  0.97704  0.28713  0.15969  1.0000
  C   C503      1.0  0.65536  0.53014  0.57056  1.0000
  H   H888      1.0  0.78996  0.51727  0.43372  1.0000
  H   H889      1.0  0.80558  0.56455  0.60534  1.0000
  H   H890      1.0  0.89282  0.27610  0.46310  1.0000
  S   S104      1.0  0.61007  0.10963  0.54169  1.0000
  H   H891      1.0  0.75319  0.27425  0.50240  1.0000
  C   C504      1.0  0.72230  0.15437  0.47661  1.0000
  H   H892      1.0  0.68365  0.37971  0.43128  1.0000
  C   C505      1.0  0.85795  0.20473  0.46142  1.0000
  Fe  Fe50      1.0  0.55729  0.15396  0.50853  1.0000
  H   H893      1.0  0.58003  0.54114  0.56272  1.0000
  H   H894      1.0  0.68160  0.24669  0.53918  1.0000
  H   H895      1.0  0.55835  0.49264  0.62988  1.0000
  H   H896      1.0  0.74845  0.15246  0.50536  1.0000
  C   C506      1.0  0.60756  0.52452  0.58268  1.0000
  H   H897      1.0  0.88980  0.48213  0.46139  1.0000
  H   H898      1.0  0.76443  0.11049  0.43133  1.0000
  C   C507      1.0  0.58007  0.24525  0.50159  1.0000
  H   H899      1.0  0.89751  0.13780  0.41116  1.0000
  C   C508      1.0  0.60708  0.48164  0.44993  1.0000
  C   C509      1.0  0.71545  0.23878  0.55694  1.0000
  C   C510      1.0  0.58163  0.28220  0.51108  1.0000
  S   S105      1.0  0.58876  0.35428  0.47955  1.0000
  H   H900      1.0  0.60854  0.51012  0.43317  1.0000
  H   H901      1.0  0.53225  0.52793  0.40881  1.0000
  H   H902      1.0  0.95415  0.07496  0.60828  1.0000
  H   H903      1.0  0.77767  0.34728  0.60328  1.0000
  C   C511      1.0  0.50485  0.46630  0.44891  1.0000
  Fe  Fe51      1.0  0.55912  0.36696  0.56351  1.0000
  C   C512      1.0  0.89690  0.41051  0.50762  1.0000
  N   N30       1.0  0.85195  0.23419  0.50139  1.0000
  H   H904      1.0  0.92797  0.22003  0.50627  1.0000
  S   S106      1.0  0.50455  0.11618  0.50093  1.0000
  H   H905      1.0  0.76437  0.12959  0.59315  1.0000
  H   H906      1.0  0.97802  0.47656  0.46555  1.0000
  H   H907      1.0  0.51440  0.43946  0.47085  1.0000
  H   H908      1.0  0.74553  0.34586  0.54766  1.0000
  C   C513      1.0  0.75841  0.24460  0.51557  1.0000
  C   C514      1.0  0.88749  0.09549  0.57992  1.0000
  H   H909      1.0  0.68286  0.46118  0.42557  1.0000
  H   H910      1.0  0.79030  0.42666  0.59238  1.0000
  H   H911      1.0  0.84749  0.51384  0.50208  1.0000
  H   H912      1.0  0.93294  0.34438  0.45436  1.0000
  C   C515      1.0  0.86453  0.13731  0.44005  1.0000
  H   H913      1.0  0.89167  0.54512  0.59076  1.0000
  H   H914      1.0  0.82758  0.20883  0.43786  1.0000
  H   H915      1.0  0.89134  0.12486  0.58257  1.0000
  H   H916      1.0  0.50810  0.48780  0.47631  1.0000
  H   H917      1.0  0.94144  0.33463  0.61327  1.0000
  S   S107      1.0  0.93120  0.55157  0.47040  1.0000
  H   H918      1.0  0.83864  0.47513  0.59572  1.0000
  H   H919      1.0  0.71376  0.25607  0.59143  1.0000
  S   S108      1.0  0.49411  0.34478  0.60424  1.0000
  H   H920      1.0  0.71786  0.20934  0.57111  1.0000
  H   H921      1.0  0.83241  0.14444  0.41917  1.0000
  C   C516      1.0  0.76063  0.36432  0.57135  1.0000
  H   H922      1.0  0.79684  0.27218  0.42307  1.0000
  H   H923      1.0  0.73057  0.38469  0.58954  1.0000
  C   C517      1.0  0.85459  0.27156  0.47314  1.0000
  C   C518      1.0  0.59023  0.29691  0.41666  1.0000
  H   H924      1.0  0.84890  0.09246  0.58809  1.0000
  H   H925      1.0  0.89482  0.47465  0.55461  1.0000
  C   C519      1.0  0.94633  0.24655  0.59297  1.0000
  C   C520      1.0  0.85103  0.49179  0.47340  1.0000
  C   C521      1.0  0.58983  0.45767  0.41079  1.0000
  C   C522      1.0  0.80609  0.23463  0.53941  1.0000
  C   C523      1.0  0.65730  0.46513  0.46244  1.0000
  C   C524      1.0  0.82948  0.50917  0.42445  1.0000
  H   H926      1.0  0.89076  0.19977  0.55871  1.0000
  H   H927      1.0  0.83674  0.29393  0.49984  1.0000
  Fe  Fe52      1.0  0.57021  0.12529  0.62076  1.0000
  H   H928      1.0  0.68067  0.11622  0.60587  1.0000
  C   C525      1.0  0.91591  0.07174  0.61943  1.0000
  H   H929      1.0  0.82584  0.36236  0.51784  1.0000
  H   H930      1.0  0.81434  0.44514  0.46826  1.0000
  H   H931      1.0  0.86953  0.25608  0.60609  1.0000
  H   H932      1.0  0.83319  0.15961  0.51484  1.0000
  C   C526      1.0  0.89828  0.25536  0.57172  1.0000
  C   C527      1.0  0.86326  0.16413  0.48364  1.0000
  C   C528      1.0  0.69128  0.50753  0.59493  1.0000
  H   H933      1.0  0.72971  0.17649  0.44616  1.0000
  H   H934      1.0  0.80582  0.20776  0.56206  1.0000
  H   H935      1.0  0.75757  0.22755  0.48178  1.0000
  H   H936      1.0  0.90663  0.38431  0.53111  1.0000
  C   C529      1.0  0.83370  0.27870  0.41983  1.0000
  H   H937      1.0  0.72074  0.09613  0.48297  1.0000
  H   H938      1.0  0.65392  0.12219  0.43455  1.0000
  H   H939      1.0  0.57943  0.29053  0.55130  1.0000
  C   C530      1.0  0.69326  0.12978  0.63606  1.0000
  C   C531      1.0  0.58328  0.23425  0.44962  1.0000
  H   H940      1.0  0.94740  0.26599  0.62403  1.0000
  H   H941      1.0  0.89775  0.15666  0.50012  1.0000
  H   H942      1.0  0.97616  0.24959  0.56062  1.0000
  H   H943      1.0  0.89605  0.42514  0.42267  1.0000
  H   H944      1.0  0.89651  0.28348  0.55261  1.0000
  C   C532      1.0  0.93576  0.37079  0.43102  1.0000
  H   H945      1.0  0.95140  0.21789  0.61053  1.0000
  C   C533      1.0  0.89345  0.22550  0.53334  1.0000
  C   C534      1.0  0.58882  0.26005  0.40717  1.0000
  H   H946      1.0  0.86026  0.39018  0.44632  1.0000
  H   H947      1.0  0.86520  0.10872  0.45757  1.0000
  C   C535      1.0  0.58671  0.30805  0.46856  1.0000
  H   H948      1.0  0.79052  0.47291  0.52198  1.0000
  Fe  Fe53      1.0  0.55512  0.07293  0.53974  1.0000
  H   H949      1.0  0.89079  0.20699  0.43246  1.0000
  S   S109      1.0  0.58005  0.18861  0.43655  1.0000
  C   C536      1.0  0.74074  0.13711  0.62901  1.0000
  C   C537      1.0  0.82515  0.45987  0.49995  1.0000
  C   C538      1.0  0.89396  0.40048  0.45014  1.0000
  H   H950      1.0  0.68554  0.16193  0.49808  1.0000
  C   C539      1.0  0.72702  0.11741  0.45074  1.0000
  H   H951      1.0  0.67057  0.48407  0.48689  1.0000
  C   C540      1.0  0.59540  0.49684  0.62023  1.0000
  S   S110      1.0  0.60013  0.35206  0.63223  1.0000
  C   C541      1.0  0.79750  0.38405  0.53560  1.0000
  H   H952      1.0  0.58310  0.48322  0.48818  1.0000
  C   C542      1.0  0.89687  0.43432  0.61933  1.0000
  H   H953      1.0  0.59394  0.42912  0.42882  1.0000
  H   H954      1.0  0.94630  0.47361  0.62258  1.0000
  S   S111      1.0  0.53199  0.42510  0.58686  1.0000
  H   H955      1.0  0.83935  0.39026  0.59609  1.0000
  H   H956      1.0  0.80408  0.25508  0.57011  1.0000
  C   C543      1.0  0.86977  0.45639  0.57565  1.0000
  H   H957      1.0  0.65634  0.43820  0.48495  1.0000
  H   H958      1.0  0.72833  0.51160  0.58504  1.0000
  H   H959      1.0  0.92907  0.42472  0.50455  1.0000
  H   H960      1.0  0.57687  0.22534  0.53450  1.0000
  H   H961      1.0  0.97048  0.37958  0.43527  1.0000
  N   N31       1.0  0.85327  0.43360  0.53652  1.0000
  C   C544      1.0  0.82005  0.40935  0.56779  1.0000
  S   S112      1.0  0.51871  0.08514  0.62152  1.0000
  H   H962      1.0  0.77871  0.39972  0.50401  1.0000
  S   S113      1.0  0.52097  0.17258  0.58808  1.0000
  H   H963      1.0  0.92592  0.41300  0.60195  1.0000
  C   C545      1.0  0.67901  0.48030  0.63323  1.0000
  C   C546      1.0  0.91997  0.45956  0.64978  1.0000
  H   H964      1.0  0.90149  0.08673  0.53923  1.0000
  C   C547      1.0  0.69016  0.11918  0.41080  1.0000
  H   H965      1.0  0.97636  0.08277  0.43666  1.0000
  H   H966      1.0  0.87185  0.42060  0.64860  1.0000
  C   C548      1.0  0.63105  0.47510  0.64587  1.0000
  H   H967      1.0  0.80990  0.33764  0.42928  1.0000
  H   H968      1.0  0.50665  0.39902  0.41117  1.0000
  C   C549      1.0  0.94709  0.34200  0.65197  1.0000
  H   H969      1.0  0.84590  0.53418  0.41053  1.0000
  H   H970      1.0  0.54574  0.06515  0.43345  1.0000
  H   H971      1.0  0.70656  0.46314  0.65271  1.0000
  H   H972      1.0  0.52156  0.94181  0.72659  1.0000
  C   C550      1.0  0.79312  0.75721  0.77503  1.0000
  H   H973      1.0  0.91439  0.00327  0.75452  1.0000
  H   H974      1.0  0.52364  0.00417  0.77593  1.0000
  C   C551      1.0  0.48923  0.93833  0.70902  1.0000
  H   H975      1.0  0.59143  0.04178  0.84833  1.0000
  H   H976      1.0  0.70827  0.76949  0.84157  1.0000
  Fe  Fe54      1.0  0.92243  0.57210  0.88250  1.0000
  H   H977      1.0  0.63551  0.90455  0.85961  1.0000
  C   C552      1.0  0.91171  0.73951  0.87251  1.0000
  C   C553      1.0  0.71696  0.71476  0.67236  1.0000
  S   S114      1.0  0.84115  0.97814  0.85157  1.0000
  H   H978      1.0  0.93202  0.05363  0.90053  1.0000
  H   H979      1.0  0.84116  0.03334  0.67751  1.0000
  H   H980      1.0  0.50176  0.63995  0.79268  1.0000
  H   H981      1.0  0.92809  0.78051  0.81183  1.0000
  H   H982      1.0  0.98115  0.81087  0.76049  1.0000
  C   C554      1.0  0.74434  0.88670  0.78401  1.0000
  H   H983      1.0  0.81448  0.97361  0.69053  1.0000
  S   S115      1.0  0.71918  0.93736  0.86179  1.0000
  H   H984      1.0  0.68758  0.90526  0.65587  1.0000
  C   C555      1.0  0.90690  0.01943  0.71754  1.0000
  C   C556      1.0  0.55784  0.65525  0.70409  1.0000
  H   H985      1.0  0.69165  0.73934  0.66085  1.0000
  H   H986      1.0  0.76057  0.84939  0.71971  1.0000
  C   C557      1.0  0.97181  0.05661  0.71094  1.0000
  C   C558      1.0  0.58786  0.01217  0.85040  1.0000
  C   C559      1.0  0.85492  0.01505  0.71001  1.0000
  C   C560      1.0  0.52552  0.02877  0.74851  1.0000
  S   S116      1.0  0.56243  0.68241  0.83360  1.0000
  H   H987      1.0  0.64181  0.57870  0.73195  1.0000
  H   H988      1.0  0.96678  0.70762  0.68278  1.0000
  H   H989      1.0  0.78135  0.80091  0.82881  1.0000
  H   H990      1.0  0.94461  0.66840  0.71464  1.0000
  H   H991      1.0  0.69565  0.96735  0.67806  1.0000
  C   C561      1.0  0.52411  0.63183  0.68348  1.0000
  C   C562      1.0  0.57484  0.04271  0.74395  1.0000
  H   H992      1.0  0.69498  0.00823  0.73766  1.0000
  C   C563      1.0  0.96876  0.67738  0.67948  1.0000
  H   H993      1.0  0.65060  0.97877  0.80869  1.0000
  H   H994      1.0  0.58677  0.97361  0.70956  1.0000
  S   S117      1.0  0.67267  0.82038  0.71454  1.0000
  H   H995      1.0  0.66855  0.04224  0.82103  1.0000
  H   H996      1.0  0.74770  0.04457  0.77662  1.0000
  Fe  Fe55      1.0  0.90203  0.93156  0.83664  1.0000
  Fe  Fe56      1.0  0.52605  0.81858  0.84600  1.0000
  C   C564      1.0  0.70883  0.90263  0.82306  1.0000
  H   H997      1.0  0.76207  0.76854  0.75378  1.0000
  H   H998      1.0  0.71731  0.82332  0.88953  1.0000
  C   C565      1.0  0.65484  0.92634  0.66167  1.0000
  C   C566      1.0  0.71308  0.61505  0.81307  1.0000
  H   H999      1.0  0.72650  0.58955  0.70586  1.0000
  H   H1000     1.0  0.87206  0.68503  0.66813  1.0000
  H   H1001     1.0  0.50022  0.91293  0.84800  1.0000
  H   H1002     1.0  0.86150  0.95581  0.72966  1.0000
  H   H1003     1.0  0.57267  0.06436  0.77272  1.0000
  H   H1004     1.0  0.55903  0.58776  0.76372  1.0000
  C   C567      1.0  0.66996  0.05635  0.78124  1.0000
  H   H1005     1.0  0.66570  0.04551  0.69972  1.0000
  H   H1006     1.0  0.70059  0.70241  0.71005  1.0000
  H   H1007     1.0  0.90561  0.05181  0.80539  1.0000
  Fe  Fe57      1.0  0.79527  0.93417  0.87609  1.0000
  H   H1008     1.0  0.73903  0.66711  0.79526  1.0000
  H   H1009     1.0  0.59538  0.60529  0.84579  1.0000
  H   H1010     1.0  0.95121  0.60636  0.69898  1.0000
  H   H1011     1.0  0.57969  0.05804  0.70494  1.0000
  H   H1012     1.0  0.61740  0.85850  0.80311  1.0000
  H   H1013     1.0  0.75104  0.72383  0.67867  1.0000
  H   H1014     1.0  0.92079  0.83033  0.87416  1.0000
  S   S118      1.0  0.81389  0.65147  0.89255  1.0000
  H   H1015     1.0  0.64429  0.00096  0.90106  1.0000
  H   H1016     1.0  0.67057  0.94245  0.73573  1.0000
  S   S119      1.0  0.89934  0.60609  0.81190  1.0000
  H   H1017     1.0  0.63221  0.58531  0.66320  1.0000
  H   H1018     1.0  0.81701  0.75919  0.85036  1.0000
  H   H1019     1.0  0.76100  0.64643  0.68435  1.0000
  C   C568      1.0  0.66313  0.95602  0.69710  1.0000
  Fe  Fe58      1.0  0.55349  0.74166  0.80335  1.0000
  S   S120      1.0  0.56288  0.76327  0.71843  1.0000
  H   H1020     1.0  0.80064  0.58338  0.66805  1.0000
  N   N32       1.0  0.61743  0.01295  0.74828  1.0000
  C   C569      1.0  0.66315  0.89225  0.82970  1.0000
  H   H1021     1.0  0.61861  0.00325  0.66507  1.0000
  C   C570      1.0  0.70772  0.65368  0.80662  1.0000
  C   C571      1.0  0.78465  0.77033  0.83164  1.0000
  S   S121      1.0  0.95466  0.93013  0.76202  1.0000
  Fe  Fe59      1.0  0.60091  0.80496  0.74881  1.0000
  H   H1022     1.0  0.54886  0.01058  0.85505  1.0000
  C   C572      1.0  0.62658  0.61890  0.83459  1.0000
  H   H1023     1.0  0.79870  0.72655  0.77524  1.0000
  C   C573      1.0  0.61929  0.98729  0.70388  1.0000
  Fe  Fe60      1.0  0.89114  0.65397  0.86357  1.0000
  H   H1024     1.0  0.83054  0.02060  0.74723  1.0000
  H   H1025     1.0  0.51994  0.02054  0.70901  1.0000
  C   C574      1.0  0.66296  0.03007  0.73899  1.0000
  C   C575      1.0  0.73352  0.86108  0.75072  1.0000
  H   H1026     1.0  0.82578  0.76699  0.75329  1.0000
  S   S122      1.0  0.53398  0.84601  0.76519  1.0000
  C   C576      1.0  0.53152  0.57728  0.74460  1.0000
  H   H1027     1.0  0.74358  0.72701  0.85907  1.0000
  S   S123      1.0  0.59567  0.78069  0.83178  1.0000
  C   C577      1.0  0.91318  0.80344  0.88888  1.0000
  C   C578      1.0  0.73894  0.75735  0.86330  1.0000
  C   C579      1.0  0.67242  0.59781  0.82702  1.0000
  H   H1028     1.0  0.59548  0.96680  0.79904  1.0000
  S   S124      1.0  0.85406  0.88808  0.85325  1.0000
  N   N33       1.0  0.91784  0.05824  0.71975  1.0000
  C   C580      1.0  0.85182  0.97561  0.69667  1.0000
  C   C581      1.0  0.68753  0.85101  0.75721  1.0000
  S   S125      1.0  0.91608  0.70546  0.82670  1.0000
  H   H1029     1.0  0.68259  0.62934  0.69548  1.0000
  C   C582      1.0  0.65277  0.86620  0.79738  1.0000
  H   H1030     1.0  0.77953  0.89503  0.77819  1.0000
  C   C583      1.0  0.69853  0.60157  0.68123  1.0000
  Fe  Fe61      1.0  0.49478  0.80260  0.74174  1.0000
  H   H1031     1.0  0.93182  0.00438  0.68560  1.0000
  S   S126      1.0  0.76958  0.58762  0.79863  1.0000
  H   H1032     1.0  0.58257  0.63832  0.72912  1.0000
  H   H1033     1.0  0.53660  0.67792  0.72782  1.0000
  C   C584      1.0  0.66151  0.67480  0.81273  1.0000
  Fe  Fe62      1.0  0.82415  0.60061  0.84662  1.0000
  H   H1034     1.0  0.65730  0.70451  0.80654  1.0000
  C   C585      1.0  0.65952  0.57690  0.69049  1.0000
  C   C586      1.0  0.91900  0.77497  0.85378  1.0000
  C   C587      1.0  0.61398  0.99115  0.80075  1.0000
  C   C588      1.0  0.62090  0.65735  0.82668  1.0000
  H   H1035     1.0  0.93128  0.90329  0.66423  1.0000
  H   H1036     1.0  0.67633  0.56802  0.83195  1.0000
  C   C589      1.0  0.60705  0.99543  0.90099  1.0000
  H   H1037     1.0  0.61402  0.68757  0.67533  1.0000
  H   H1038     1.0  0.62459  0.91217  0.68056  1.0000
  H   H1039     1.0  0.87615  0.96774  0.65983  1.0000
  C   C590      1.0  0.58848  0.67316  0.65872  1.0000
  N   N34       1.0  0.49675  0.60906  0.72511  1.0000
  H   H1040     1.0  0.49922  0.65114  0.66065  1.0000
  H   H1041     1.0  0.60738  0.96514  0.90389  1.0000
  N   N35       1.0  0.74120  0.97164  0.13677  1.0000
  C   C591      1.0  0.89827  0.79696  0.94268  1.0000
  H   H1042     1.0  0.97954  0.88772  0.99550  1.0000
  H   H1043     1.0  0.49600  0.79497  0.07921  1.0000
  C   C592      1.0  0.55188  0.92900  0.98796  1.0000
  H   H1044     1.0  0.75058  0.61081  0.95451  1.0000
  H   H1045     1.0  0.52164  0.76710  0.97229  1.0000
  H   H1046     1.0  0.71699  0.88167  0.94313  1.0000
  C   C593      1.0  0.71947  0.86368  0.97958  1.0000
  C   C594      1.0  0.61793  0.71313  0.95332  1.0000
  C   C595      1.0  0.75944  0.74771  0.01133  1.0000
  C   C596      1.0  0.76136  0.03934  0.95341  1.0000
  H   H1047     1.0  0.78831  0.92494  0.10073  1.0000
  H   H1048     1.0  0.87406  0.89664  0.13084  1.0000
  H   H1049     1.0  0.83304  0.96910  0.08816  1.0000
  S   S127      1.0  0.91876  0.62046  0.93266  1.0000
  H   H1050     1.0  0.82524  0.70891  0.01923  1.0000
  H   H1051     1.0  0.51894  0.90677  0.06370  1.0000
  H   H1052     1.0  0.83458  0.01620  0.09647  1.0000
  H   H1053     1.0  0.76075  0.98204  0.05274  1.0000
  C   C597      1.0  0.50032  0.98375  0.07019  1.0000
  H   H1054     1.0  0.76929  0.81110  0.92206  1.0000
  H   H1055     1.0  0.77377  0.77308  0.01859  1.0000
  H   H1056     1.0  0.51686  0.57653  0.10491  1.0000
  H   H1057     1.0  0.90173  0.70214  0.06446  1.0000
  H   H1058     1.0  0.65217  0.57624  0.12076  1.0000
  H   H1059     1.0  0.61444  0.68335  0.95460  1.0000
  H   H1060     1.0  0.57599  0.87023  0.97778  1.0000
  C   C598      1.0  0.69463  0.95962  0.06132  1.0000
  C   C599      1.0  0.70194  0.82730  0.97309  1.0000
  H   H1061     1.0  0.60118  0.72490  0.99168  1.0000
  H   H1062     1.0  0.76475  0.71329  0.94437  1.0000
  S   S128      1.0  0.50392  0.84910  0.92047  1.0000
  H   H1063     1.0  0.65463  0.95829  0.99558  1.0000
  C   C600      1.0  0.65660  0.58334  0.03573  1.0000
  S   S129      1.0  0.92124  0.92859  0.91919  1.0000
  H   H1064     1.0  0.89346  0.70480  0.94148  1.0000
  H   H1065     1.0  0.70791  0.97908  0.97875  1.0000
  C   C601      1.0  0.59641  0.71995  0.12654  1.0000
  C   C602      1.0  0.67087  0.71746  0.94234  1.0000
  S   S130      1.0  0.48567  0.85688  0.14468  1.0000
  H   H1066     1.0  0.70411  0.90334  0.13118  1.0000
  H   H1067     1.0  0.88043  0.75605  0.00336  1.0000
  C   C603      1.0  0.72787  0.98307  0.08231  1.0000
  H   H1068     1.0  0.56836  0.95270  0.99706  1.0000
  H   H1069     1.0  0.78871  0.72133  0.08099  1.0000
  C   C604      1.0  0.71785  0.59571  0.08653  1.0000
  H   H1070     1.0  0.73071  0.59613  0.12427  1.0000
  C   C605      1.0  0.89921  0.73227  0.92681  1.0000
  S   S131      1.0  0.80473  0.61417  0.04129  1.0000
  H   H1071     1.0  0.66483  0.76807  0.98120  1.0000
  H   H1072     1.0  0.51442  0.60554  0.02118  1.0000
  H   H1073     1.0  0.76144  0.02587  0.14002  1.0000
  C   C606      1.0  0.76371  0.86273  0.14782  1.0000
  C   C607      1.0  0.68382  0.59428  0.98913  1.0000
  H   H1074     1.0  0.77858  0.85884  0.10555  1.0000
  C   C608      1.0  0.74640  0.60462  0.03959  1.0000
  Fe  Fe63      1.0  0.87026  0.88739  0.93684  1.0000
  C   C609      1.0  0.91611  0.74839  0.10514  1.0000
  H   H1075     1.0  0.68426  0.72397  0.13823  1.0000
  C   C610      1.0  0.90463  0.70914  0.10540  1.0000
  H   H1076     1.0  0.77434  0.02120  0.92140  1.0000
  H   H1077     1.0  0.50830  0.73309  0.93119  1.0000
  S   S132      1.0  0.88516  0.83392  0.98514  1.0000
  H   H1078     1.0  0.68990  0.05138  0.93161  1.0000
  H   H1079     1.0  0.71077  0.01250  0.08077  1.0000
  C   C611      1.0  0.73093  0.80716  0.92445  1.0000
  C   C612      1.0  0.62762  0.83679  0.12073  1.0000
  Fe  Fe64      1.0  0.85675  0.97224  0.93553  1.0000
  H   H1080     1.0  0.56454  0.94660  0.09138  1.0000
  S   S133      1.0  0.85115  0.02210  0.98373  1.0000
  H   H1081     1.0  0.54637  0.67917  0.07549  1.0000
  C   C613      1.0  0.82745  0.99011  0.11842  1.0000
  H   H1082     1.0  0.94693  0.75092  0.07414  1.0000
  H   H1083     1.0  0.48632  0.98739  0.96894  1.0000
  H   H1084     1.0  0.71492  0.93189  0.05232  1.0000
  H   H1085     1.0  0.61725  0.78999  0.07981  1.0000
  H   H1086     1.0  0.90205  0.97736  0.13216  1.0000
  H   H1087     1.0  0.52304  0.63355  0.92694  1.0000
  N   N36       1.0  0.72790  0.76665  0.92116  1.0000
  C   C614      1.0  0.67709  0.97651  0.00999  1.0000
  C   C615      1.0  0.76453  0.74285  0.95094  1.0000
  C   C616      1.0  0.89218  0.76115  0.96188  1.0000
  H   H1088     1.0  0.77002  0.69038  0.03924  1.0000
  H   H1089     1.0  0.54105  0.93414  0.94759  1.0000
  H   H1090     1.0  0.68540  0.70426  0.90459  1.0000
  H   H1091     1.0  0.70415  0.81101  0.01076  1.0000
  H   H1092     1.0  0.66237  0.95687  0.09030  1.0000
  H   H1093     1.0  0.59003  0.85077  0.12071  1.0000
  C   C617      1.0  0.78782  0.71512  0.03925  1.0000
  H   H1094     1.0  0.97726  0.85789  0.10149  1.0000
  C   C618      1.0  0.79185  0.04539  0.98923  1.0000
  S   S134      1.0  0.60389  0.56511  0.03276  1.0000
  H   H1095     1.0  0.59848  0.72702  0.92102  1.0000
  C   C619      1.0  0.49697  0.74699  0.96927  1.0000
  H   H1096     1.0  0.66345  0.83333  0.96738  1.0000
  H   H1097     1.0  0.66903  0.78318  0.11421  1.0000
  H   H1098     1.0  0.65515  0.00410  0.01657  1.0000
  H   H1099     1.0  0.75735  0.85854  0.98783  1.0000
  H   H1100     1.0  0.90151  0.88367  0.06510  1.0000
  C   C620      1.0  0.67332  0.58450  0.08454  1.0000
  H   H1101     1.0  0.69693  0.87835  0.01303  1.0000
  C   C621      1.0  0.92260  0.82380  0.13463  1.0000
  H   H1102     1.0  0.52228  0.99941  0.03978  1.0000
  C   C622      1.0  0.50737  0.92331  0.02837  1.0000
  H   H1103     1.0  0.86981  0.70705  0.13016  1.0000
  H   H1104     1.0  0.68916  0.70164  0.97435  1.0000
  H   H1105     1.0  0.65022  0.84794  0.08634  1.0000
  H   H1106     1.0  0.72173  0.74948  0.03029  1.0000
  H   H1107     1.0  0.67112  0.59326  0.95131  1.0000
  H   H1108     1.0  0.91811  0.81801  0.09361  1.0000
  H   H1109     1.0  0.48831  0.90492  0.00908  1.0000
  C   C623      1.0  0.72899  0.60430  0.99101  1.0000
  Fe  Fe65      1.0  0.84174  0.61348  0.95766  1.0000
  H   H1110     1.0  0.88443  0.76752  0.09371  1.0000
  C   C624      1.0  0.55345  0.99406  0.13800  1.0000
  H   H1111     1.0  0.80122  0.74806  0.93496  1.0000
  H   H1112     1.0  0.60862  0.66513  0.04794  1.0000
  S   S135      1.0  0.80750  0.93070  0.96106  1.0000
  C   C625      1.0  0.67769  0.75876  0.94062  1.0000
  H   H1113     1.0  0.93338  0.68871  0.12048  1.0000
  C   C626      1.0  0.53339  0.96524  0.11098  1.0000
  H   H1114     1.0  0.62092  0.89949  0.95617  1.0000
  H   H1115     1.0  0.95575  0.57695  0.11029  1.0000
  H   H1116     1.0  0.51374  0.94876  0.14219  1.0000
  H   H1117     1.0  0.62066  0.72617  0.08997  1.0000
  C   C627      1.0  0.63056  0.79513  0.11710  1.0000
  H   H1118     1.0  0.60396  0.89015  0.02596  1.0000
  C   C628      1.0  0.59856  0.67735  0.13128  1.0000
  H   H1119     1.0  0.57447  0.01084  0.10836  1.0000
  C   C629      1.0  0.59048  0.89501  0.98701  1.0000
  H   H1120     1.0  0.58432  0.00807  0.93611  1.0000
  C   C630      1.0  0.58150  0.66332  0.08339  1.0000
  H   H1121     1.0  0.57698  0.63392  0.09117  1.0000
  H   H1122     1.0  0.55981  0.73273  0.11832  1.0000
  C   C631      1.0  0.76613  0.93194  0.13930  1.0000
  H   H1123     1.0  0.65197  0.77526  0.91591  1.0000
  C   C632      1.0  0.77553  0.99640  0.14902  1.0000
  C   C633      1.0  0.90857  0.89128  0.10427  1.0000
  H   H1124     1.0  0.92502  0.91692  0.09819  1.0000
  H   H1125     1.0  0.63583  0.66335  0.13369  1.0000
  H   H1126     1.0  0.49990  0.72603  0.00258  1.0000
  C   C634      1.0  0.94296  0.86069  0.12868  1.0000
  H   H1127     1.0  0.64920  0.02363  0.14816  1.0000
  C   C635      1.0  0.71339  0.05644  0.95923  1.0000
  H   H1128     1.0  0.94829  0.73314  0.17685  1.0000
  C   C636      1.0  0.74061  0.84804  0.29025  1.0000
  H   H1129     1.0  0.89199  0.76221  0.18677  1.0000
  H   H1130     1.0  0.58731  0.74171  0.25767  1.0000
  H   H1131     1.0  0.62989  0.89958  0.30781  1.0000
  C   C637      1.0  0.76033  0.69137  0.36682  1.0000
  C   C638      1.0  0.75322  0.06168  0.29184  1.0000
  H   H1132     1.0  0.74334  0.69936  0.22335  1.0000
  H   H1133     1.0  0.75772  0.81980  0.28469  1.0000
  C   C639      1.0  0.85136  0.79494  0.36767  1.0000
  H   H1134     1.0  0.77180  0.03648  0.31116  1.0000
  H   H1135     1.0  0.67155  0.95873  0.17382  1.0000
  S   S136      1.0  0.88574  0.63368  0.37742  1.0000
  H   H1136     1.0  0.59195  0.69655  0.23607  1.0000
  S   S137      1.0  0.91111  0.96355  0.28428  1.0000
  H   H1137     1.0  0.79143  0.92829  0.16950  1.0000
  C   C640      1.0  0.54975  0.99557  0.35195  1.0000
  H   H1138     1.0  0.83286  0.69005  0.21543  1.0000
  C   C641      1.0  0.72286  0.68406  0.34069  1.0000
  C   C642      1.0  0.76859  0.87631  0.29057  1.0000
  C   C643      1.0  0.85223  0.66278  0.22722  1.0000
  H   H1139     1.0  0.58012  0.56581  0.27500  1.0000
  C   C644      1.0  0.59990  0.77847  0.16532  1.0000
  S   S138      1.0  0.92854  0.71077  0.38384  1.0000
  H   H1140     1.0  0.94157  0.03292  0.21638  1.0000
  H   H1141     1.0  0.62265  0.85746  0.40004  1.0000
  C   C645      1.0  0.63293  0.01909  0.23310  1.0000
  C   C646      1.0  0.69609  0.92096  0.30446  1.0000
  Fe  Fe66      1.0  0.95021  0.65854  0.34022  1.0000
  C   C647      1.0  0.49985  0.71910  0.27751  1.0000
  H   H1142     1.0  0.91706  0.80781  0.23736  1.0000
  H   H1143     1.0  0.88761  0.65811  0.20218  1.0000
  C   C648      1.0  0.75947  0.58176  0.31888  1.0000
  H   H1144     1.0  0.89094  0.78877  0.36586  1.0000
  H   H1145     1.0  0.51215  0.68934  0.28645  1.0000
  H   H1146     1.0  0.68209  0.77418  0.20502  1.0000
  S   S139      1.0  0.92715  0.03654  0.38329  1.0000
  H   H1147     1.0  0.60378  0.79201  0.20192  1.0000
  S   S140      1.0  0.89610  0.88144  0.33728  1.0000
  C   C649      1.0  0.73797  0.72966  0.21559  1.0000
  S   S141      1.0  0.77963  0.94920  0.29203  1.0000
  S   S142      1.0  0.96947  0.65783  0.25199  1.0000
  H   H1148     1.0  0.88456  0.58924  0.21997  1.0000
  H   H1149     1.0  0.97268  0.82298  0.21944  1.0000
  H   H1150     1.0  0.57738  0.97969  0.16607  1.0000
  S   S143      1.0  0.96914  0.92909  0.38294  1.0000
  S   S144      1.0  0.65472  0.82207  0.29471  1.0000
  H   H1151     1.0  0.52343  0.05373  0.34673  1.0000
  S   S145      1.0  0.51556  0.82162  0.28597  1.0000
  N   N37       1.0  0.95239  0.79129  0.15980  1.0000
  Fe  Fe67      1.0  0.95810  0.91086  0.30431  1.0000
  C   C650      1.0  0.92684  0.75817  0.16007  1.0000
  Fe  Fe68      1.0  0.85006  0.93585  0.32359  1.0000
  H   H1152     1.0  0.79363  0.85879  0.17224  1.0000
  C   C651      1.0  0.68468  0.74433  0.21620  1.0000
  S   S146      1.0  0.52439  0.98620  0.29664  1.0000
  H   H1153     1.0  0.80734  0.87007  0.28419  1.0000
  C   C652      1.0  0.69795  0.97696  0.17876  1.0000
  H   H1154     1.0  0.60866  0.04595  0.23297  1.0000
  H   H1155     1.0  0.77784  0.99468  0.19239  1.0000
  C   C653      1.0  0.70557  0.58885  0.33785  1.0000
  H   H1156     1.0  0.84279  0.81541  0.33509  1.0000
  Fe  Fe69      1.0  0.51926  0.92614  0.29446  1.0000
  Fe  Fe70      1.0  0.57813  0.84943  0.29574  1.0000
  H   H1157     1.0  0.77456  0.60706  0.32411  1.0000
  H   H1158     1.0  0.51504  0.71576  0.19372  1.0000
  H   H1159     1.0  0.76814  0.83890  0.38820  1.0000
  H   H1160     1.0  0.94997  0.74848  0.26705  1.0000
  C   C654      1.0  0.95401  0.79907  0.21676  1.0000
  H   H1161     1.0  0.86137  0.95438  0.17907  1.0000
  H   H1162     1.0  0.73054  0.66727  0.30670  1.0000
  H   H1163     1.0  0.71844  0.90283  0.19679  1.0000
  H   H1164     1.0  0.54038  0.57829  0.33468  1.0000
  C   C655      1.0  0.66841  0.89291  0.30364  1.0000
  H   H1165     1.0  0.83747  0.76913  0.36171  1.0000
  S   S147      1.0  0.62832  0.68039  0.33528  1.0000
  C   C656      1.0  0.57473  0.96711  0.38101  1.0000
  C   C657      1.0  0.84743  0.59447  0.24141  1.0000
  H   H1166     1.0  0.74922  0.59204  0.23548  1.0000
  C   C658      1.0  0.97743  0.76602  0.25035  1.0000
  H   H1167     1.0  0.79710  0.68086  0.35211  1.0000
  H   H1168     1.0  0.69215  0.03787  0.18471  1.0000
  H   H1169     1.0  0.72205  0.05499  0.27492  1.0000
  H   H1170     1.0  0.82135  0.63196  0.17655  1.0000
  H   H1171     1.0  0.97123  0.79606  0.32234  1.0000
  H   H1172     1.0  0.71085  0.01008  0.34651  1.0000
  H   H1173     1.0  0.85760  0.66348  0.26934  1.0000
  C   C659      1.0  0.58047  0.72603  0.22438  1.0000
  C   C660      1.0  0.67504  0.69657  0.36056  1.0000
  C   C661      1.0  0.76938  0.57064  0.26034  1.0000
  C   C662      1.0  0.69394  0.01588  0.38725  1.0000
  H   H1174     1.0  0.66713  0.69385  0.19171  1.0000
  H   H1175     1.0  0.68689  0.60957  0.31106  1.0000
  H   H1176     1.0  0.67850  0.94912  0.30968  1.0000
  H   H1177     1.0  0.61093  0.99663  0.23583  1.0000
  C   C663      1.0  0.69041  0.85648  0.29664  1.0000
  H   H1178     1.0  0.69902  0.59953  0.37833  1.0000
  H   H1179     1.0  0.74039  0.84141  0.16114  1.0000
  C   C664      1.0  0.54115  0.03133  0.37004  1.0000
  S   S148      1.0  0.53615  0.88461  0.35992  1.0000
  H   H1180     1.0  0.53605  0.60983  0.17794  1.0000
  H   H1181     1.0  0.78694  0.64010  0.24045  1.0000
  H   H1182     1.0  0.65474  0.01837  0.38724  1.0000
  Fe  Fe71      1.0  0.91716  0.97966  0.36554  1.0000
  S   S149      1.0  0.56476  0.89258  0.23124  1.0000
  H   H1183     1.0  0.88573  0.82869  0.15705  1.0000
  H   H1184     1.0  0.97080  0.59158  0.17108  1.0000
  H   H1185     1.0  0.70961  0.96847  0.21808  1.0000
  C   C665      1.0  0.66915  0.01655  0.18276  1.0000
  N   N38       1.0  0.60970  0.73700  0.17337  1.0000
  H   H1186     1.0  0.65174  0.01641  0.26869  1.0000
  H   H1187     1.0  0.75206  0.74258  0.24704  1.0000
  C   C666      1.0  0.82355  0.63234  0.21954  1.0000
  C   C667      1.0  0.74618  0.91280  0.29738  1.0000
  H   H1188     1.0  0.49120  0.64448  0.21062  1.0000
  H   H1189     1.0  0.75832  0.73638  0.17668  1.0000
  H   H1190     1.0  0.94874  0.86990  0.16739  1.0000
  C   C668      1.0  0.66202  0.72348  0.17775  1.0000
  H   H1191     1.0  0.58470  0.94019  0.36561  1.0000
  H   H1192     1.0  0.51124  0.76123  0.21710  1.0000
  H   H1193     1.0  0.66661  0.74109  0.25737  1.0000
  H   H1194     1.0  0.80120  0.05074  0.21889  1.0000
  C   C669      1.0  0.52533  0.73175  0.22437  1.0000
  H   H1195     1.0  0.85220  0.59768  0.28332  1.0000
  H   H1196     1.0  0.50678  0.73544  0.30989  1.0000
  Fe  Fe72      1.0  0.49930  0.86768  0.22570  1.0000
  H   H1197     1.0  0.86352  0.00291  0.18328  1.0000
  C   C670      1.0  0.98005  0.02803  0.22229  1.0000
  H   H1198     1.0  0.98340  0.01652  0.26325  1.0000
  H   H1199     1.0  0.57538  0.66852  0.16693  1.0000
  C   C671      1.0  0.49707  0.61760  0.19133  1.0000
  H   H1200     1.0  0.56181  0.78780  0.15942  1.0000
  H   H1201     1.0  0.52407  0.01266  0.16073  1.0000
  H   H1202     1.0  0.50552  0.79436  0.40279  1.0000
  S   S150      1.0  0.85308  0.95547  0.40383  1.0000
  H   H1203     1.0  0.80606  0.57842  0.15758  1.0000
  C   C672      1.0  0.73424  0.90116  0.15466  1.0000
  C   C673      1.0  0.86579  0.98048  0.15562  1.0000
  H   H1204     1.0  0.64103  0.84305  0.15744  1.0000
  H   H1205     1.0  0.48482  0.59649  0.22109  1.0000
  S   S151      1.0  0.49730  0.71723  0.56732  1.0000
  H   H1206     1.0  0.81868  0.77874  0.61924  1.0000
  H   H1207     1.0  0.51651  0.87658  0.51294  1.0000
  C   C674      1.0  0.94774  0.99771  0.47453  1.0000
  H   H1208     1.0  0.73785  0.70120  0.59083  1.0000
  S   S152      1.0  0.58773  0.59411  0.41976  1.0000
  C   C675      1.0  0.66861  0.82226  0.44909  1.0000
  C   C676      1.0  0.61887  0.83930  0.43637  1.0000
  C   C677      1.0  0.95082  0.03038  0.44348  1.0000
  C   C678      1.0  0.77466  0.82101  0.42409  1.0000
  S   S153      1.0  0.61028  0.66221  0.48407  1.0000
  Fe  Fe73      1.0  0.53216  0.67189  0.51442  1.0000
  C   C679      1.0  0.95009  0.81208  0.44684  1.0000
  C   C680      1.0  0.94600  0.88575  0.63022  1.0000
  C   C681      1.0  0.93606  0.80822  0.54266  1.0000
  H   H1209     1.0  0.50792  0.56981  0.63395  1.0000
  H   H1210     1.0  0.75435  0.78290  0.62282  1.0000
  H   H1211     1.0  0.67472  0.86695  0.49553  1.0000
  N   N39       1.0  0.76622  0.62011  0.60984  1.0000
  H   H1212     1.0  0.62796  0.72871  0.41971  1.0000
  C   C682      1.0  0.50416  0.76126  0.47601  1.0000
  Fe  Fe74      1.0  0.60703  0.60217  0.49925  1.0000
  H   H1213     1.0  0.69368  0.73960  0.46782  1.0000
  H   H1214     1.0  0.68630  0.80691  0.41390  1.0000
  Fe  Fe75      1.0  0.51100  0.60784  0.45715  1.0000
  H   H1215     1.0  0.92006  0.82037  0.57961  1.0000
  H   H1216     1.0  0.60297  0.95062  0.45444  1.0000
  C   C683      1.0  0.74703  0.81367  0.52075  1.0000
  H   H1217     1.0  0.94392  0.64368  0.62332  1.0000
  H   H1218     1.0  0.69008  0.98580  0.46407  1.0000
  H   H1219     1.0  0.80576  0.86657  0.49020  1.0000
  H   H1220     1.0  0.82463  0.80800  0.52986  1.0000
  H   H1221     1.0  0.70927  0.91750  0.50580  1.0000
  C   C684      1.0  0.85760  0.60057  0.61254  1.0000
  Fe  Fe76      1.0  0.93163  0.60996  0.43940  1.0000
  H   H1222     1.0  0.74837  0.94508  0.56968  1.0000
  C   C685      1.0  0.69682  0.85279  0.46115  1.0000
  H   H1223     1.0  0.94301  0.85664  0.64309  1.0000
  C   C686      1.0  0.70675  0.05154  0.40767  1.0000
  H   H1224     1.0  0.59605  0.83299  0.56779  1.0000
  H   H1225     1.0  0.74549  0.78523  0.50904  1.0000
  H   H1226     1.0  0.59841  0.81718  0.42916  1.0000
  H   H1227     1.0  0.48728  0.83233  0.58768  1.0000
  C   C687      1.0  0.57313  0.00832  0.45137  1.0000
  H   H1228     1.0  0.50538  0.95679  0.54292  1.0000
  H   H1229     1.0  0.71357  0.82095  0.54884  1.0000
  H   H1230     1.0  0.78566  0.94299  0.50629  1.0000
  H   H1231     1.0  0.69654  0.87361  0.42709  1.0000
  H   H1232     1.0  0.83845  0.78779  0.45172  1.0000
  H   H1233     1.0  0.50936  0.93442  0.45852  1.0000
  H   H1234     1.0  0.59866  0.85602  0.46911  1.0000
  H   H1235     1.0  0.84736  0.83397  0.42703  1.0000
  H   H1236     1.0  0.56556  0.69398  0.63622  1.0000
  C   C688      1.0  0.74975  0.71089  0.41332  1.0000
  C   C689      1.0  0.70207  0.72490  0.43165  1.0000
  C   C690      1.0  0.98189  0.75637  0.49502  1.0000
  H   H1237     1.0  0.74521  0.04609  0.41416  1.0000
  H   H1238     1.0  0.79948  0.66459  0.63230  1.0000
  H   H1239     1.0  0.64698  0.93868  0.62228  1.0000
  H   H1240     1.0  0.80174  0.64925  0.54223  1.0000
  S   S154      1.0  0.50756  0.66840  0.43568  1.0000
  C   C691      1.0  0.51836  0.84674  0.58885  1.0000
  C   C692      1.0  0.70872  0.98213  0.42304  1.0000
  C   C693      1.0  0.77066  0.92618  0.54054  1.0000
  C   C694      1.0  0.56319  0.82012  0.56871  1.0000
  H   H1241     1.0  0.77318  0.89081  0.44179  1.0000
  H   H1242     1.0  0.80072  0.91017  0.55974  1.0000
  S   S155      1.0  0.90858  0.65814  0.49059  1.0000
  H   H1243     1.0  0.78582  0.83710  0.57594  1.0000
  C   C695      1.0  0.78657  0.59880  0.51337  1.0000
  C   C696      1.0  0.77353  0.63111  0.55153  1.0000
  C   C697      1.0  0.58580  0.97325  0.43106  1.0000
  C   C698      1.0  0.78908  0.81145  0.55426  1.0000
  H   H1244     1.0  0.78623  0.58859  0.43066  1.0000
  H   H1245     1.0  0.74048  0.64878  0.54020  1.0000
  C   C699      1.0  0.93038  0.82818  0.49463  1.0000
  S   S156      1.0  0.79492  0.71649  0.45097  1.0000
  H   H1246     1.0  0.52056  0.85153  0.63077  1.0000
  H   H1247     1.0  0.86463  0.61251  0.57185  1.0000
  H   H1248     1.0  0.53522  0.91002  0.64560  1.0000
  C   C700      1.0  0.97557  0.05679  0.45899  1.0000
  S   S157      1.0  0.90014  0.87365  0.49511  1.0000
  H   H1249     1.0  0.87883  0.69082  0.59680  1.0000
  H   H1250     1.0  0.69116  0.62037  0.60029  1.0000
  Fe  Fe77      1.0  0.86749  0.68401  0.42566  1.0000
  H   H1251     1.0  0.96694  0.75719  0.58005  1.0000
  H   H1252     1.0  0.76119  0.79485  0.41915  1.0000
  Fe  Fe78      1.0  0.97110  0.68149  0.44580  1.0000
  C   C701      1.0  0.82964  0.81008  0.42161  1.0000
  N   N40       1.0  0.74771  0.84003  0.47252  1.0000
  H   H1253     1.0  0.51186  0.95722  0.62908  1.0000
  C   C702      1.0  0.89505  0.69466  0.63268  1.0000
  H   H1254     1.0  0.68515  0.05422  0.44767  1.0000
  H   H1255     1.0  0.74810  0.97759  0.42353  1.0000
  H   H1256     1.0  0.73532  0.62022  0.45862  1.0000
  H   H1257     1.0  0.56614  0.79494  0.59553  1.0000
  S   S158      1.0  0.53077  0.61239  0.53804  1.0000
  H   H1258     1.0  0.72463  0.57624  0.60706  1.0000
  C   C703      1.0  0.77465  0.61146  0.45791  1.0000
  H   H1259     1.0  0.96702  0.68383  0.59336  1.0000
  H   H1260     1.0  0.76718  0.57542  0.52714  1.0000
  H   H1261     1.0  0.72502  0.88436  0.55788  1.0000
  H   H1262     1.0  0.92663  0.97795  0.46446  1.0000
  Fe  Fe79      1.0  0.90421  0.90335  0.41507  1.0000
  S   S159      1.0  0.58069  0.01453  0.51688  1.0000
  H   H1263     1.0  0.92407  0.89464  0.59765  1.0000
  H   H1264     1.0  0.66431  0.80256  0.48376  1.0000
  C   C704      1.0  0.96255  0.77254  0.54293  1.0000
  H   H1265     1.0  0.79341  0.63496  0.44265  1.0000
  H   H1266     1.0  0.94637  0.82748  0.40972  1.0000
  H   H1267     1.0  0.79334  0.75269  0.57593  1.0000
  C   C705      1.0  0.76896  0.87411  0.47990  1.0000
  H   H1268     1.0  0.82559  0.58816  0.51036  1.0000
  C   C706      1.0  0.78868  0.77936  0.59556  1.0000
  H   H1269     1.0  0.97068  0.96456  0.54163  1.0000
  C   C707      1.0  0.73988  0.90018  0.52249  1.0000
  C   C708      1.0  0.76482  0.65374  0.64100  1.0000
  S   S160      1.0  0.67089  0.56544  0.52543  1.0000
  C   C709      1.0  0.97538  0.77605  0.44712  1.0000
  C   C710      1.0  0.94595  0.67297  0.62908  1.0000
  H   H1270     1.0  0.69874  0.95720  0.40782  1.0000
  H   H1271     1.0  0.54597  0.89686  0.55733  1.0000
  H   H1272     1.0  0.91236  0.04255  0.61482  1.0000
  C   C711      1.0  0.55310  0.03770  0.41963  1.0000
  C   C712      1.0  0.71970  0.60443  0.62197  1.0000
  C   C713      1.0  0.80617  0.59066  0.62481  1.0000
  H   H1273     1.0  0.56033  0.81133  0.52868  1.0000
  H   H1274     1.0  0.53566  0.74203  0.46205  1.0000
  C   C714      1.0  0.97253  0.99017  0.51858  1.0000
  C   C715      1.0  0.72591  0.68683  0.62904  1.0000
  H   H1275     1.0  0.60896  0.65225  0.63138  1.0000
  H   H1276     1.0  0.93179  0.57436  0.60696  1.0000
  C   C716      1.0  0.89549  0.56650  0.61798  1.0000
  C   C717      1.0  0.51372  0.88373  0.55513  1.0000
  H   H1277     1.0  0.69131  0.67790  0.62538  1.0000
  C   C718      1.0  0.50266  0.93125  0.64989  1.0000
  C   C719      1.0  0.48712  0.79091  0.44246  1.0000
  H   H1278     1.0  0.89587  0.72465  0.63503  1.0000
  H   H1279     1.0  0.86276  0.62079  0.64075  1.0000
  C   C720      1.0  0.66484  0.71829  0.40481  1.0000
  Fe  Fe80      1.0  0.58631  0.65527  0.40604  1.0000
  H   H1280     1.0  0.54655  0.61368  0.65342  1.0000
