data_image0
_chemical_formula_structural       CH5C2HC2H3C2H4CH3NHCSH3C2H2C2H2C4HCHCHC3NH2CH9C2H4CH5CHSHC2H2SFe2C3HCH2C2HCHCHCHFeSH4FeH2C2H2FeH2CSHFeCSH2CH3SHSC2SCSH2SCSH2CFeCH3C3HC2HCHCH6NHFeSFeSFeS4C6H3SCH4Fe2CH2SC2H3SNC2FeHSFeS2FeSHCH2CHCH4CSH3CH4CH5CH2CH4CH5CH2CH2CH3CHCH3CHC2H2CHC2H2C2H3CHNHC3SH4CHCHNHCSH2C2HCH2C3H2CHC2HSH5CH2CH6CH2C3HNH4C2SCFeSH4FeSH3C4H2SCHNHCHSH4CH2C2H4SHCH5CH3CHC2HC2H4CFeH3SH4CSC2FeH4NFeC4HC3H3C2SH5CHSCNH3C2FeH6CHCHC2H5CHC2H2NHCH2C2H4C2HNCH3C2HCH2CH3C3H3CH6CH3FeS2FeS2FeSFeS3FeS4HFe2CHSH2C4HC6HCH2CHC6H4CH2CH8CHCH4CH2NC7H2CH13CSH2CH3CH5CHC2HCH2C2H3CH4CH4CH3NC3H4CH3CHC3HCH4NH5CHC2H2CH3CH5CFeH2CH3C2H2CH5C2H3NH2C3H5CHC2HC3H3CHCH2SH2C2HSHCH5CHCHCH2CHCHSH2CH5C2H2CHS2HCHSFeH3CSH4FeSHCH2SH5CH6CSCHCFeCH2CH3CHCH3SHCHC2H5CH4CH2FeHC2H4C2H3C2HSH2C2HCH2CHCHCHCH2C2HC3H2CHC5H2NHCH4CFeCHNC2H2CHNHCSC2H5CH2C2H2C4FeHSHFeS2HC2FeSCSHFeS2FeSCFeSFeHS2CNHCH3CHCH3C2HC6H3CSH2CH2CH2C2H5C2HCHCHCH2SH6C2H3C2H4CH2CNH6CHCH2SH2CH6NCH4FeHCH5CH2CH2CH2FeH6C4HC2HC3HC2HCH10CS2H2CH4C2H5FeH4C2SHFeHSH2NC3SH2C2HSCH3FeCH3C3SH2C2H3C2H2C3HC2HCH4CHSH2CHCH9CH2SHSCHNCH6SFeCH5C2H2CH2FeC2HC2H4CH3CHCH3CH2C2SH2CH2CSH2C2H7CH4C2HC2H3SCH2SCHCHC3HC2H3CHSCH3C
_chemical_formula_sum              "C432 H768 N24 S96 Fe48"
_cell_length_a       36.7708
_cell_length_b       37.6354
_cell_length_c       53.926
_cell_angle_alpha    89.9443
_cell_angle_beta     89.9203
_cell_angle_gamma    114.993

_space_group_name_H-M_alt    "P 1"
_space_group_IT_number       1

loop_
  _space_group_symop_operation_xyz
  'x, y, z'

loop_
  _atom_site_type_symbol
  _atom_site_label
  _atom_site_symmetry_multiplicity
  _atom_site_fract_x
  _atom_site_fract_y
  _atom_site_fract_z
  _atom_site_occupancy
  C   C1        1.0  0.20303  0.33234  0.25898  1.0000
  H   H1        1.0  0.25751  0.25589  0.26586  1.0000
  H   H2        1.0  0.24784  0.13394  0.21917  1.0000
  H   H3        1.0  0.21158  0.05294  0.20945  1.0000
  H   H4        1.0  0.28450  0.37394  0.26624  1.0000
  H   H5        1.0  0.20015  0.30304  0.26506  1.0000
  C   C2        1.0  0.25302  0.10414  0.25159  1.0000
  C   C3        1.0  0.28224  0.25781  0.30243  1.0000
  H   H6        1.0  0.23733  0.37877  0.23404  1.0000
  C   C4        1.0  0.23610  0.34984  0.23949  1.0000
  C   C5        1.0  0.26913  0.12178  0.22562  1.0000
  H   H7        1.0  0.26832  0.08668  0.25905  1.0000
  H   H8        1.0  0.23467  0.10342  0.17922  1.0000
  H   H9        1.0  0.24441  0.04175  0.22849  1.0000
  C   C6        1.0  0.24200  0.05318  0.20992  1.0000
  C   C7        1.0  0.28009  0.25157  0.27662  1.0000
  H   H10       1.0  0.24989  0.15986  0.15037  1.0000
  H   H11       1.0  0.28787  0.39594  0.20493  1.0000
  H   H12       1.0  0.29814  0.43177  0.24899  1.0000
  H   H13       1.0  0.27218  0.32517  0.25760  1.0000
  C   C8        1.0  0.27713  0.35423  0.24980  1.0000
  H   H14       1.0  0.29154  0.17208  0.18851  1.0000
  H   H15       1.0  0.27817  0.33088  0.20110  1.0000
  H   H16       1.0  0.29818  0.14799  0.22824  1.0000
  N   N1        1.0  0.27353  0.09458  0.20627  1.0000
  H   H17       1.0  0.23444  0.02862  0.17208  1.0000
  C   C9        1.0  0.24227  0.02230  0.19092  1.0000
  S   S1        1.0  0.30662  0.23462  0.23241  1.0000
  H   H18       1.0  0.22715  0.33025  0.22312  1.0000
  H   H19       1.0  0.32513  0.15619  0.17265  1.0000
  H   H20       1.0  0.30137  0.19347  0.14488  1.0000
  C   C10       1.0  0.26660  0.10812  0.18103  1.0000
  C   C11       1.0  0.30777  0.24062  0.26475  1.0000
  H   H21       1.0  0.34058  0.41402  0.20460  1.0000
  H   H22       1.0  0.28354  0.14349  0.13445  1.0000
  C   C12       1.0  0.28115  0.16259  0.14948  1.0000
  C   C13       1.0  0.29342  0.15154  0.17436  1.0000
  H   H23       1.0  0.27204  0.02145  0.19019  1.0000
  H   H24       1.0  0.27214  0.09067  0.16605  1.0000
  C   C14       1.0  0.33649  0.23453  0.27880  1.0000
  C   C15       1.0  0.30416  0.33511  0.21315  1.0000
  C   C16       1.0  0.33966  0.34066  0.19556  1.0000
  C   C17       1.0  0.33682  0.23823  0.30462  1.0000
  H   H25       1.0  0.29534  0.30656  0.22291  1.0000
  C   C18       1.0  0.32784  0.30758  0.17657  1.0000
  H   H26       1.0  0.30657  0.05028  0.23419  1.0000
  C   C19       1.0  0.31542  0.09670  0.20660  1.0000
  H   H27       1.0  0.34954  0.36837  0.18497  1.0000
  C   C20       1.0  0.31944  0.43956  0.23322  1.0000
  C   C21       1.0  0.35000  0.37812  0.24550  1.0000
  C   C22       1.0  0.31430  0.40347  0.21730  1.0000
  N   N2        1.0  0.31145  0.36779  0.23145  1.0000
  H   H28       1.0  0.24395  0.12280  0.28832  1.0000
  H   H29       1.0  0.32916  0.09989  0.24623  1.0000
  C   C23       1.0  0.32768  0.08100  0.23015  1.0000
  H   H30       1.0  0.35419  0.31202  0.16474  1.0000
  H   H31       1.0  0.30333  0.30737  0.16448  1.0000
  H   H32       1.0  0.33778  0.12755  0.20471  1.0000
  H   H33       1.0  0.20969  0.35190  0.27537  1.0000
  H   H34       1.0  0.32080  0.08180  0.19009  1.0000
  H   H35       1.0  0.17390  0.32902  0.25109  1.0000
  H   H36       1.0  0.32988  0.33241  0.27432  1.0000
  H   H37       1.0  0.22042  0.08466  0.25035  1.0000
  H   H38       1.0  0.33799  0.41836  0.30263  1.0000
  C   C24       1.0  0.33090  0.44322  0.29992  1.0000
  C   C25       1.0  0.25825  0.13619  0.27044  1.0000
  H   H39       1.0  0.29063  0.15429  0.27386  1.0000
  H   H40       1.0  0.24419  0.15537  0.26370  1.0000
  H   H41       1.0  0.29551  0.42123  0.11717  1.0000
  H   H42       1.0  0.35400  0.40105  0.25959  1.0000
  C   C26       1.0  0.29273  0.44022  0.30623  1.0000
  H   H43       1.0  0.35776  0.22581  0.26990  1.0000
  H   H44       1.0  0.35048  0.45349  0.24061  1.0000
  H   H45       1.0  0.31298  0.43511  0.08585  1.0000
  H   H46       1.0  0.34982  0.31938  0.24699  1.0000
  H   H47       1.0  0.31788  0.27877  0.18600  1.0000
  C   C27       1.0  0.35317  0.34367  0.25966  1.0000
  H   H48       1.0  0.36562  0.34084  0.20609  1.0000
  S   S2        1.0  0.33998  0.08105  0.06439  1.0000
  H   H49       1.0  0.34054  0.14610  0.09223  1.0000
  C   C28       1.0  0.35364  0.13102  0.10375  1.0000
  C   C29       1.0  0.30765  0.44621  0.10395  1.0000
  H   H50       1.0  0.26143  0.26704  0.31152  1.0000
  H   H51       1.0  0.28495  0.45818  0.10157  1.0000
  S   S3        1.0  0.31966  0.98601  0.02472  1.0000
  Fe  Fe1       1.0  0.36206  0.00793  0.99263  1.0000
  Fe  Fe2       1.0  0.36146  0.04008  0.04485  1.0000
  C   C30       1.0  0.35974  0.47843  0.28986  1.0000
  C   C31       1.0  0.34677  0.47760  0.11415  1.0000
  C   C32       1.0  0.35664  0.09739  0.09467  1.0000
  H   H52       1.0  0.36739  0.46339  0.11707  1.0000
  C   C33       1.0  0.21137  0.98121  0.19791  1.0000
  H   H53       1.0  0.18072  0.98016  0.19848  1.0000
  H   H54       1.0  0.28115  0.45874  0.21141  1.0000
  C   C34       1.0  0.31278  0.47029  0.21776  1.0000
  C   C35       1.0  0.28346  0.47220  0.30253  1.0000
  H   H55       1.0  0.25390  0.46985  0.30722  1.0000
  C   C36       1.0  0.47684  0.15417  0.09159  1.0000
  H   H56       1.0  0.35756  0.23147  0.31548  1.0000
  C   C37       1.0  0.31057  0.25085  0.31648  1.0000
  H   H57       1.0  0.37038  0.06407  0.21103  1.0000
  C   C38       1.0  0.36944  0.08195  0.22719  1.0000
  H   H58       1.0  0.37735  0.06998  0.24414  1.0000
  Fe  Fe3       1.0  0.36680  0.24074  0.21867  1.0000
  S   S4        1.0  0.37942  0.23946  0.17797  1.0000
  H   H59       1.0  0.37632  0.39159  0.23291  1.0000
  H   H60       1.0  0.39232  0.11256  0.22453  1.0000
  H   H61       1.0  0.45584  0.38244  0.20427  1.0000
  H   H62       1.0  0.43490  0.37608  0.12575  1.0000
  Fe  Fe4       1.0  0.40904  0.20041  0.18882  1.0000
  H   H63       1.0  0.40940  0.42709  0.12913  1.0000
  H   H64       1.0  0.39509  0.33086  0.28185  1.0000
  C   C39       1.0  0.39359  0.35653  0.27248  1.0000
  C   C40       1.0  0.37341  0.07792  0.10964  1.0000
  H   H65       1.0  0.37544  0.05176  0.10292  1.0000
  H   H66       1.0  0.45193  0.14620  0.10529  1.0000
  Fe  Fe5       1.0  0.43838  0.28917  0.18741  1.0000
  H   H67       1.0  0.40760  0.18751  0.99895  1.0000
  H   H68       1.0  0.36701  0.17230  0.13399  1.0000
  C   C41       1.0  0.36850  0.14584  0.12738  1.0000
  S   S5        1.0  0.39157  0.19773  0.22893  1.0000
  H   H69       1.0  0.43367  0.43637  0.20733  1.0000
  Fe  Fe6       1.0  0.44956  0.25073  0.23387  1.0000
  C   C42       1.0  0.41434  0.17538  0.30982  1.0000
  S   S6        1.0  0.39957  0.01196  0.06036  1.0000
  H   H70       1.0  0.41842  0.36837  0.25874  1.0000
  H   H71       1.0  0.47824  0.20579  0.12552  1.0000
  C   C43       1.0  0.38553  0.12647  0.14225  1.0000
  H   H72       1.0  0.46528  0.42047  0.28617  1.0000
  H   H73       1.0  0.46603  0.35966  0.30930  1.0000
  H   H74       1.0  0.42171  0.17355  0.29000  1.0000
  S   S7        1.0  0.42344  0.29404  0.22722  1.0000
  H   H75       1.0  0.46203  0.08445  0.11665  1.0000
  S   S8        1.0  0.46572  0.34028  0.16144  1.0000
  C   C44       1.0  0.43366  0.42302  0.18959  1.0000
  C   C45       1.0  0.42003  0.43526  0.16840  1.0000
  S   S9        1.0  0.46935  0.25007  0.19470  1.0000
  C   C46       1.0  0.38742  0.09222  0.13345  1.0000
  S   S10       1.0  0.40051  0.47042  0.17009  1.0000
  H   H76       1.0  0.41963  0.23362  0.30530  1.0000
  H   H77       1.0  0.42706  0.19289  0.09128  1.0000
  S   S11       1.0  0.40533  0.14400  0.17176  1.0000
  C   C47       1.0  0.43418  0.38881  0.14362  1.0000
  S   S12       1.0  0.40046  0.06456  0.01145  1.0000
  H   H78       1.0  0.39699  0.37903  0.28670  1.0000
  H   H79       1.0  0.43028  0.23591  0.12829  1.0000
  C   C48       1.0  0.41996  0.41782  0.14552  1.0000
  Fe  Fe7       1.0  0.43567  0.03274  0.02536  1.0000
  C   C49       1.0  0.44611  0.39249  0.18787  1.0000
  H   H80       1.0  0.41669  0.14534  0.06044  1.0000
  H   H81       1.0  0.38422  0.14588  0.01928  1.0000
  H   H82       1.0  0.40037  0.07700  0.14496  1.0000
  C   C50       1.0  0.44683  0.37574  0.16477  1.0000
  C   C51       1.0  0.46208  0.25401  0.12317  1.0000
  C   C52       1.0  0.41347  0.16766  0.01196  1.0000
  H   H83       1.0  0.42522  0.20851  0.04165  1.0000
  C   C53       1.0  0.45949  0.20991  0.08694  1.0000
  C   C54       1.0  0.44030  0.19147  0.03312  1.0000
  H   H84       1.0  0.44092  0.09701  0.07474  1.0000
  C   C55       1.0  0.44666  0.16424  0.05256  1.0000
  H   H85       1.0  0.42836  0.15206  0.00150  1.0000
  C   C56       1.0  0.47236  0.11426  0.08087  1.0000
  H   H86       1.0  0.45564  0.14379  0.04218  1.0000
  H   H87       1.0  0.38116  0.16212  0.31186  1.0000
  H   H88       1.0  0.46366  0.27757  0.11020  1.0000
  H   H89       1.0  0.46921  0.21203  0.02488  1.0000
  H   H90       1.0  0.46133  0.23473  0.07499  1.0000
  H   H91       1.0  0.46492  0.23053  0.31462  1.0000
  N   N3        1.0  0.47547  0.18427  0.07339  1.0000
  H   H92       1.0  0.47757  0.06132  0.09215  1.0000
  Fe  Fe8       1.0  0.23978  0.32332  0.39719  1.0000
  S   S13       1.0  0.18159  0.29925  0.41906  1.0000
  Fe  Fe9       1.0  0.02635  0.31591  0.55879  1.0000
  S   S14       1.0  0.02516  0.37301  0.56915  1.0000
  Fe  Fe10      1.0  0.11516  0.35333  0.54375  1.0000
  S   S15       1.0  0.17204  0.34983  0.53036  1.0000
  S   S16       1.0  0.08294  0.32597  0.57904  1.0000
  S   S17       1.0  0.05820  0.33734  0.52237  1.0000
  S   S18       1.0  0.23652  0.30504  0.35720  1.0000
  C   C57       1.0  0.18007  0.31292  0.45020  1.0000
  C   C58       1.0  0.14314  0.29775  0.46275  1.0000
  C   C59       1.0  0.14042  0.30871  0.48737  1.0000
  C   C60       1.0  0.17474  0.33474  0.49968  1.0000
  C   C61       1.0  0.21189  0.34928  0.48732  1.0000
  C   C62       1.0  0.21452  0.33876  0.46255  1.0000
  H   H93       1.0  0.11657  0.27729  0.45337  1.0000
  H   H94       1.0  0.11188  0.29675  0.49694  1.0000
  H   H95       1.0  0.24317  0.35039  0.45308  1.0000
  S   S19       1.0  0.12123  0.41348  0.55384  1.0000
  C   C63       1.0  0.04571  0.30562  0.45181  1.0000
  H   H96       1.0  0.15150  0.40111  0.49853  1.0000
  H   H97       1.0  0.06023  0.29477  0.46612  1.0000
  H   H98       1.0  0.19075  0.41183  0.47564  1.0000
  H   H99       1.0  0.11744  0.36170  0.46878  1.0000
  Fe  Fe11      1.0  0.08417  0.38477  0.58728  1.0000
  Fe  Fe12      1.0  0.06205  0.39576  0.53459  1.0000
  C   C64       1.0  0.10033  0.37446  0.45794  1.0000
  H   H100      1.0  0.16634  0.38593  0.43635  1.0000
  H   H101      1.0  0.23862  0.36917  0.49684  1.0000
  S   S20       1.0  0.09561  0.40259  0.62723  1.0000
  C   C65       1.0  0.07645  0.34221  0.43894  1.0000
  C   C66       1.0  0.17305  0.42420  0.48634  1.0000
  H   H102      1.0  0.09731  0.33310  0.42866  1.0000
  H   H103      1.0  0.02200  0.31200  0.46073  1.0000
  H   H104      1.0  0.07880  0.37789  0.47126  1.0000
  S   S21       1.0  0.05699  0.43479  0.50439  1.0000
  N   N4        1.0  0.12802  0.41391  0.44745  1.0000
  C   C67       1.0  0.14759  0.40382  0.40211  1.0000
  C   C68       1.0  0.15868  0.41023  0.43008  1.0000
  Fe  Fe13      1.0  0.27365  0.36869  0.34942  1.0000
  H   H105      1.0  0.05984  0.35220  0.42562  1.0000
  S   S22       1.0  0.27240  0.38747  0.38873  1.0000
  Fe  Fe14      1.0  0.32816  0.37782  0.39329  1.0000
  S   S23       1.0  0.33268  0.36529  0.35300  1.0000
  S   S24       1.0  0.31368  0.25669  0.34888  1.0000
  Fe  Fe15      1.0  0.29554  0.30273  0.36388  1.0000
  S   S25       1.0  0.29579  0.31483  0.40481  1.0000
  H   H106      1.0  0.38439  0.25967  0.37149  1.0000
  C   C69       1.0  0.01146  0.43841  0.49998  1.0000
  H   H107      1.0  0.11819  0.37889  0.39898  1.0000
  H   H108      1.0  0.20898  0.42087  0.38928  1.0000
  C   C70       1.0  0.17897  0.39596  0.38744  1.0000
  H   H109      1.0  0.08705  0.41498  0.41876  1.0000
  C   C71       1.0  0.10068  0.44996  0.63400  1.0000
  H   H110      1.0  0.01985  0.29489  0.62923  1.0000
  H   H111      1.0  0.18050  0.36871  0.39413  1.0000
  H   H112      1.0  0.17084  0.39213  0.36747  1.0000
  H   H113      1.0  0.38911  0.20985  0.34640  1.0000
  C   C72       1.0  0.02684  0.24174  0.62513  1.0000
  S   S26       1.0  0.38193  0.42280  0.41266  1.0000
  H   H114      1.0  0.38578  0.34938  0.42450  1.0000
  H   H115      1.0  0.03141  0.28200  0.43794  1.0000
  H   H116      1.0  0.03683  0.24961  0.60564  1.0000
  C   C73       1.0  0.37773  0.23290  0.41818  1.0000
  H   H117      1.0  0.34834  0.22767  0.40972  1.0000
  H   H118      1.0  0.04424  0.22668  0.63334  1.0000
  H   H119      1.0  0.08211  0.47678  0.55192  1.0000
  H   H120      1.0  0.37269  0.20996  0.43243  1.0000
  C   C74       1.0  0.03356  0.27871  0.63988  1.0000
  H   H121      1.0  0.14624  0.43028  0.39394  1.0000
  H   H122      1.0  0.00644  0.34094  0.64206  1.0000
  H   H123      1.0  0.18766  0.43691  0.43091  1.0000
  H   H124      1.0  0.21610  0.44314  0.51635  1.0000
  H   H125      1.0  0.07797  0.42984  0.44816  1.0000
  C   C75       1.0  0.10266  0.43179  0.43537  1.0000
  H   H126      1.0  0.39010  0.26193  0.42748  1.0000
  H   H127      1.0  0.06643  0.29661  0.64056  1.0000
  C   C76       1.0  0.14991  0.44010  0.46889  1.0000
  H   H128      1.0  0.35355  0.47592  0.37676  1.0000
  H   H129      1.0  0.27998  0.46840  0.35631  1.0000
  H   H130      1.0  0.99458  0.22115  0.62493  1.0000
  H   H131      1.0  0.11550  0.47163  0.59669  1.0000
  C   C77       1.0  0.20174  0.45623  0.50331  1.0000
  H   H132      1.0  0.12867  0.44665  0.48069  1.0000
  H   H133      1.0  0.38996  0.45721  0.33653  1.0000
  H   H134      1.0  0.99685  0.34593  0.48685  1.0000
  H   H135      1.0  0.99826  0.46229  0.64074  1.0000
  H   H136      1.0  0.98758  0.41814  0.53638  1.0000
  C   C78       1.0  0.00456  0.45170  0.47702  1.0000
  H   H137      1.0  0.28736  0.47425  0.38945  1.0000
  H   H138      1.0  0.18516  0.46953  0.51435  1.0000
  C   C79       1.0  0.11026  0.47848  0.61545  1.0000
  H   H139      1.0  0.97933  0.38948  0.64430  1.0000
  H   H140      1.0  0.02726  0.45990  0.46268  1.0000
  C   C80       1.0  0.12525  0.47560  0.42796  1.0000
  H   H141      1.0  0.17219  0.46895  0.46192  1.0000
  H   H142      1.0  0.09574  0.47126  0.39231  1.0000
  H   H143      1.0  0.98130  0.46458  0.59662  1.0000
  C   C81       1.0  0.98209  0.42806  0.51854  1.0000
  H   H144      1.0  0.47818  0.47186  0.34013  1.0000
  C   C82       1.0  0.40682  0.23120  0.39841  1.0000
  H   H145      1.0  0.39338  0.20126  0.39043  1.0000
  H   H146      1.0  0.42227  0.35754  0.32606  1.0000
  H   H147      1.0  0.40795  0.28639  0.33325  1.0000
  C   C83       1.0  0.41428  0.26301  0.37824  1.0000
  H   H148      1.0  0.43898  0.43586  0.32166  1.0000
  C   C84       1.0  0.41525  0.37025  0.41864  1.0000
  C   C85       1.0  0.45971  0.33645  0.34693  1.0000
  H   H149      1.0  0.46550  0.46534  0.40065  1.0000
  H   H150      1.0  0.43526  0.23578  0.40783  1.0000
  C   C86       1.0  0.46002  0.43559  0.40527  1.0000
  H   H151      1.0  0.42700  0.15852  0.32101  1.0000
  C   C87       1.0  0.43956  0.29315  0.33829  1.0000
  C   C88       1.0  0.44541  0.45319  0.33896  1.0000
  H   H152      1.0  0.47159  0.39422  0.33360  1.0000
  H   H153      1.0  0.45438  0.29227  0.32057  1.0000
  C   C89       1.0  0.42164  0.40854  0.41233  1.0000
  C   C90       1.0  0.43232  0.21834  0.31782  1.0000
  H   H154      1.0  0.42722  0.29140  0.38812  1.0000
  H   H155      1.0  0.44645  0.34115  0.36435  1.0000
  H   H156      1.0  0.43148  0.20244  0.35636  1.0000
  C   C91       1.0  0.42253  0.22250  0.34536  1.0000
  H   H157      1.0  0.43593  0.43238  0.35483  1.0000
  N   N5        1.0  0.44053  0.26314  0.35658  1.0000
  H   H158      1.0  0.44267  0.33007  0.42349  1.0000
  C   C92       1.0  0.45445  0.36347  0.32764  1.0000
  C   C93       1.0  0.44729  0.35921  0.41786  1.0000
  C   C94       1.0  0.42178  0.47805  0.33868  1.0000
  S   S27       1.0  0.25537  0.39662  0.31787  1.0000
  H   H159      1.0  0.06752  0.35646  0.69608  1.0000
  H   H160      1.0  0.09836  0.31446  0.71013  1.0000
  H   H161      1.0  0.02539  0.24650  0.67388  1.0000
  H   H162      1.0  0.07093  0.34551  0.66460  1.0000
  C   C95       1.0  0.09760  0.31872  0.68978  1.0000
  H   H163      1.0  0.03434  0.26786  0.71369  1.0000
  C   C96       1.0  0.06415  0.33198  0.68328  1.0000
  H   H164      1.0  0.09265  0.29080  0.68045  1.0000
  N   N6        1.0  0.02181  0.30057  0.68434  1.0000
  H   H165      1.0  0.16241  0.34014  0.68738  1.0000
  C   C97       1.0  0.01481  0.28323  0.71016  1.0000
  S   S28       1.0  0.33952  0.01146  0.95441  1.0000
  H   H166      1.0  0.08902  0.43769  0.67300  1.0000
  H   H167      1.0  0.03971  0.41575  0.79649  1.0000
  C   C98       1.0  0.13881  0.34970  0.68196  1.0000
  C   C99       1.0  0.01819  0.42766  0.76178  1.0000
  H   H168      1.0  0.02329  0.30695  0.72436  1.0000
  C   C100      1.0  0.01881  0.40360  0.78139  1.0000
  H   H169      1.0  0.14516  0.37819  0.69108  1.0000
  H   H170      1.0  0.11772  0.43538  0.81726  1.0000
  C   C101      1.0  0.99247  0.31870  0.68054  1.0000
  C   C102      1.0  0.00303  0.35134  0.66063  1.0000
  C   C103      1.0  0.01453  0.26769  0.66608  1.0000
  H   H171      1.0  0.16488  0.47464  0.82591  1.0000
  H   H172      1.0  0.35929  0.99748  0.88296  1.0000
  C   C104      1.0  0.09531  0.45928  0.65845  1.0000
  H   H173      1.0  0.12228  0.45914  0.84685  1.0000
  C   C105      1.0  0.13176  0.46392  0.82709  1.0000
  C   C106      1.0  0.99132  0.41160  0.74218  1.0000
  H   H174      1.0  0.36313  0.98509  0.83736  1.0000
  S   S29       1.0  0.05110  0.47765  0.76278  1.0000
  H   H175      1.0  0.03116  0.37692  0.66554  1.0000
  H   H176      1.0  0.98612  0.21542  0.74056  1.0000
  H   H177      1.0  0.14010  0.35393  0.66150  1.0000
  H   H178      1.0  0.39369  0.03445  0.91421  1.0000
  H   H179      1.0  0.41311  0.98342  0.92334  1.0000
  C   C107      1.0  0.37770  0.98240  0.87638  1.0000
  H   H180      1.0  0.39754  0.09139  0.94359  1.0000
  H   H181      1.0  0.98882  0.33249  0.69814  1.0000
  C   C108      1.0  0.99204  0.36392  0.78181  1.0000
  H   H182      1.0  0.28286  0.99652  0.91598  1.0000
  H   H183      1.0  0.99227  0.34572  0.79730  1.0000
  H   H184      1.0  0.99149  0.43014  0.72687  1.0000
  H   H185      1.0  0.98177  0.25011  0.66318  1.0000
  H   H186      1.0  0.98056  0.25560  0.75599  1.0000
  H   H187      1.0  0.47560  0.09024  0.86071  1.0000
  C   C109      1.0  0.44339  0.99860  0.91475  1.0000
  H   H188      1.0  0.43807  0.99759  0.86264  1.0000
  H   H189      1.0  0.42292  0.07528  0.89600  1.0000
  C   C110      1.0  0.42212  0.01212  0.87328  1.0000
  C   C111      1.0  0.42525  0.05356  0.90917  1.0000
  C   C112      1.0  0.44563  0.07454  0.93355  1.0000
  H   H190      1.0  0.44430  0.11798  0.95945  1.0000
  N   N7        1.0  0.44450  0.02986  0.89684  1.0000
  H   H191      1.0  0.43858  0.05272  0.94881  1.0000
  H   H192      1.0  0.42175  0.03537  0.86073  1.0000
  H   H193      1.0  0.46387  0.01223  0.93062  1.0000
  H   H194      1.0  0.43930  0.12890  0.92739  1.0000
  C   C113      1.0  0.43067  0.10505  0.94138  1.0000
  C   C114      1.0  0.27900  0.67099  0.99017  1.0000
  S   S30       1.0  0.38685  0.55654  0.27734  1.0000
  C   C115      1.0  0.40502  0.62141  0.05250  1.0000
  Fe  Fe16      1.0  0.43244  0.51957  0.19669  1.0000
  S   S31       1.0  0.43725  0.74487  0.05846  1.0000
  H   H195      1.0  0.33985  0.48698  0.13237  1.0000
  H   H196      1.0  0.33344  0.55580  0.12133  1.0000
  H   H197      1.0  0.41660  0.64795  0.06434  1.0000
  H   H198      1.0  0.27783  0.81850  0.02611  1.0000
  Fe  Fe17      1.0  0.41262  0.73124  0.02003  1.0000
  S   S32       1.0  0.34648  0.69248  0.01803  1.0000
  H   H199      1.0  0.44262  0.87795  0.99164  1.0000
  H   H200      1.0  0.38921  0.48089  0.28489  1.0000
  H   H201      1.0  0.23056  0.91672  0.04086  1.0000
  C   C116      1.0  0.40917  0.91007  0.06975  1.0000
  C   C117      1.0  0.37463  0.84876  0.04789  1.0000
  C   C118      1.0  0.40735  0.83963  0.05182  1.0000
  C   C119      1.0  0.39585  0.75463  0.11960  1.0000
  H   H202      1.0  0.40633  0.81232  0.04494  1.0000
  H   H203      1.0  0.34097  0.52168  0.09133  1.0000
  S   S33       1.0  0.45863  0.71065  0.00752  1.0000
  C   C120      1.0  0.23057  0.84879  0.99649  1.0000
  H   H204      1.0  0.27533  0.76021  0.99676  1.0000
  N   N8        1.0  0.25252  0.82363  0.99068  1.0000
  H   H205      1.0  0.34886  0.82872  0.03771  1.0000
  C   C121      1.0  0.45223  0.68169  0.13285  1.0000
  H   H206      1.0  0.44629  0.69919  0.09573  1.0000
  S   S34       1.0  0.45993  0.66067  0.18017  1.0000
  H   H207      1.0  0.18767  0.87535  0.02900  1.0000
  H   H208      1.0  0.42731  0.68675  0.13996  1.0000
  H   H209      1.0  0.37233  0.55915  0.05564  1.0000
  H   H210      1.0  0.40362  0.80822  0.13690  1.0000
  C   C122      1.0  0.37601  0.88446  0.05626  1.0000
  H   H211      1.0  0.19798  0.82990  0.99932  1.0000
  H   H212      1.0  0.40990  0.93729  0.07672  1.0000
  C   C123      1.0  0.46311  0.68900  0.10780  1.0000
  C   C124      1.0  0.26099  0.74393  0.03473  1.0000
  H   H213      1.0  0.27619  0.89938  0.01570  1.0000
  H   H214      1.0  0.32789  0.81570  0.99256  1.0000
  H   H215      1.0  0.23843  0.74201  0.04900  1.0000
  H   H216      1.0  0.43778  0.57300  0.07172  1.0000
  S   S35       1.0  0.33658  0.89712  0.04935  1.0000
  H   H217      1.0  0.31926  0.49678  0.22926  1.0000
  C   C125      1.0  0.25259  0.75971  0.01031  1.0000
  H   H218      1.0  0.31051  0.87058  0.99871  1.0000
  H   H219      1.0  0.38309  0.73868  0.13712  1.0000
  H   H220      1.0  0.43700  0.51587  0.09245  1.0000
  H   H221      1.0  0.43011  0.62097  0.04119  1.0000
  H   H222      1.0  0.22474  0.79448  0.02507  1.0000
  C   C126      1.0  0.31262  0.50765  0.29353  1.0000
  H   H223      1.0  0.39016  0.54191  0.14434  1.0000
  H   H224      1.0  0.38220  0.62346  0.03981  1.0000
  H   H225      1.0  0.36164  0.58667  0.07941  1.0000
  C   C127      1.0  0.35238  0.58614  0.15558  1.0000
  H   H226      1.0  0.21813  0.91507  0.00847  1.0000
  C   C128      1.0  0.36525  0.51276  0.09595  1.0000
  C   C129      1.0  0.21869  0.89699  0.02465  1.0000
  H   H227      1.0  0.25957  0.71416  0.03175  1.0000
  C   C130      1.0  0.36071  0.74987  0.10271  1.0000
  C   C131      1.0  0.47330  0.66764  0.14870  1.0000
  H   H228      1.0  0.42585  0.51120  0.12472  1.0000
  H   H229      1.0  0.46831  0.59113  0.30422  1.0000
  H   H230      1.0  0.26610  0.64661  0.00293  1.0000
  H   H231      1.0  0.42702  0.81522  0.10728  1.0000
  C   C132      1.0  0.44116  0.86589  0.06449  1.0000
  Fe  Fe18      1.0  0.42537  0.55730  0.24485  1.0000
  H   H232      1.0  0.46249  0.74192  0.20049  1.0000
  H   H233      1.0  0.42304  0.58924  0.13479  1.0000
  H   H234      1.0  0.29150  0.76312  0.04158  1.0000
  S   S36       1.0  0.45007  0.51361  0.23570  1.0000
  H   H235      1.0  0.37960  0.60845  0.16452  1.0000
  H   H236      1.0  0.30559  0.53266  0.29143  1.0000
  H   H237      1.0  0.22283  0.73838  0.00350  1.0000
  H   H238      1.0  0.34089  0.55891  0.16691  1.0000
  C   C133      1.0  0.25223  0.80060  0.01384  1.0000
  S   S37       1.0  0.40255  0.55848  0.20661  1.0000
  C   C134      1.0  0.31849  0.69886  0.99348  1.0000
  C   C135      1.0  0.42247  0.79861  0.12501  1.0000
  Fe  Fe19      1.0  0.36137  0.96002  0.03724  1.0000
  H   H239      1.0  0.37167  0.60556  0.11860  1.0000
  H   H240      1.0  0.34206  0.71825  0.09918  1.0000
  H   H241      1.0  0.34161  0.76265  0.11150  1.0000
  H   H242      1.0  0.37179  0.76454  0.08457  1.0000
  N   N9        1.0  0.40250  0.54715  0.10480  1.0000
  Fe  Fe20      1.0  0.46224  0.60826  0.19932  1.0000
  C   C136      1.0  0.41774  0.57882  0.08506  1.0000
  C   C137      1.0  0.29484  0.85044  0.98326  1.0000
  C   C138      1.0  0.39555  0.56345  0.12902  1.0000
  C   C139      1.0  0.36179  0.57774  0.12921  1.0000
  H   H243      1.0  0.41287  0.74005  0.11052  1.0000
  C   C140      1.0  0.43433  0.53231  0.10903  1.0000
  C   C141      1.0  0.38603  0.58446  0.06846  1.0000
  C   C142      1.0  0.35062  0.51078  0.28696  1.0000
  H   H244      1.0  0.24662  0.86009  0.03636  1.0000
  H   H245      1.0  0.32911  0.59763  0.15512  1.0000
  H   H246      1.0  0.43426  0.79583  0.17323  1.0000
  C   C143      1.0  0.24572  0.87623  0.01933  1.0000
  C   C144      1.0  0.45492  0.78773  0.16192  1.0000
  S   S38       1.0  0.40108  0.97812  0.00348  1.0000
  H   H247      1.0  0.37189  0.50137  0.07824  1.0000
  H   H248      1.0  0.43894  0.75539  0.15953  1.0000
  H   H249      1.0  0.21176  0.95980  0.18386  1.0000
  H   H250      1.0  0.43686  0.60755  0.09363  1.0000
  H   H251      1.0  0.43528  0.87003  0.14500  1.0000
  C   C145      1.0  0.44123  0.90018  0.07446  1.0000
  H   H252      1.0  0.21853  0.97237  0.21628  1.0000
  S   S39       1.0  0.44624  0.79272  0.00601  1.0000
  C   C146      1.0  0.47706  0.56371  0.11519  1.0000
  N   N10       1.0  0.46261  0.80787  0.13701  1.0000
  H   H253      1.0  0.45598  0.86060  0.17334  1.0000
  H   H254      1.0  0.46634  0.91942  0.08542  1.0000
  H   H255      1.0  0.47684  0.57936  0.13249  1.0000
  C   C147      1.0  0.46720  0.90656  0.98638  1.0000
  C   C148      1.0  0.46323  0.87277  0.15430  1.0000
  Fe  Fe21      1.0  0.47510  0.80456  0.04360  1.0000
  H   H256      1.0  0.45500  0.92898  0.98570  1.0000
  H   H257      1.0  0.46247  0.78630  0.21356  1.0000
  H   H258      1.0  0.47399  0.93107  0.16704  1.0000
  H   H259      1.0  0.47672  0.79217  0.10062  1.0000
  H   H260      1.0  0.47828  0.76130  0.12492  1.0000
  H   H261      1.0  0.33302  0.47884  0.20137  1.0000
  C   C149      1.0  0.05074  0.54530  0.57613  1.0000
  H   H262      1.0  0.12237  0.53857  0.60728  1.0000
  C   C150      1.0  0.10065  0.48792  0.40993  1.0000
  H   H263      1.0  0.08298  0.61127  0.60865  1.0000
  C   C151      1.0  0.08338  0.50660  0.55412  1.0000
  C   C152      1.0  0.97918  0.53183  0.56828  1.0000
  H   H264      1.0  0.01024  0.54337  0.53225  1.0000
  H   H265      1.0  0.45841  0.53015  0.40793  1.0000
  H   H266      1.0  0.07926  0.66529  0.63232  1.0000
  H   H267      1.0  0.98598  0.53872  0.62296  1.0000
  H   H268      1.0  0.26889  0.50452  0.37250  1.0000
  C   C153      1.0  0.41353  0.54663  0.39074  1.0000
  H   H269      1.0  0.39842  0.57437  0.34623  1.0000
  C   C154      1.0  0.47074  0.61118  0.31989  1.0000
  C   C155      1.0  0.04705  0.50406  0.56910  1.0000
  H   H270      1.0  0.03606  0.60804  0.57474  1.0000
  H   H271      1.0  0.99473  0.59289  0.59562  1.0000
  N   N11       1.0  0.40602  0.52741  0.36543  1.0000
  H   H272      1.0  0.02876  0.52828  0.62144  1.0000
  C   C156      1.0  0.02294  0.58976  0.59143  1.0000
  H   H273      1.0  0.06920  0.66960  0.59999  1.0000
  H   H274      1.0  0.02839  0.65170  0.62231  1.0000
  C   C157      1.0  0.46095  0.58861  0.34440  1.0000
  C   C158      1.0  0.11387  0.51616  0.62138  1.0000
  H   H275      1.0  0.33257  0.53815  0.35100  1.0000
  H   H276      1.0  0.40835  0.57372  0.39015  1.0000
  H   H277      1.0  0.08326  0.51886  0.53539  1.0000
  H   H278      1.0  0.39162  0.52686  0.40455  1.0000
  C   C159      1.0  0.46023  0.58114  0.42644  1.0000
  C   C160      1.0  0.05762  0.65170  0.61702  1.0000
  H   H279      1.0  0.07555  0.55708  0.58978  1.0000
  N   N12       1.0  0.01353  0.54718  0.58650  1.0000
  C   C161      1.0  0.41690  0.55749  0.34499  1.0000
  H   H280      1.0  0.43175  0.49764  0.32229  1.0000
  H   H281      1.0  0.11186  0.52510  0.56365  1.0000
  H   H282      1.0  0.06190  0.56489  0.55971  1.0000
  C   C162      1.0  0.33260  0.52070  0.36763  1.0000
  C   C163      1.0  0.98782  0.55080  0.54209  1.0000
  H   H283      1.0  0.41980  0.48066  0.37843  1.0000
  C   C164      1.0  0.05285  0.60979  0.61290  1.0000
  H   H284      1.0  0.15474  0.48180  0.41934  1.0000
  H   H285      1.0  0.46134  0.51917  0.36463  1.0000
  C   C165      1.0  0.42844  0.50197  0.36291  1.0000
  H   H286      1.0  0.34083  0.54039  0.38394  1.0000
  H   H287      1.0  0.04567  0.48712  0.58621  1.0000
  H   H288      1.0  0.45871  0.60939  0.42225  1.0000
  C   C166      1.0  0.36169  0.50096  0.36349  1.0000
  C   C167      1.0  0.10623  0.52475  0.64555  1.0000
  C   C168      1.0  0.00152  0.52535  0.61092  1.0000
  H   H289      1.0  0.35404  0.48772  0.34476  1.0000
  H   H290      1.0  0.40920  0.54283  0.32666  1.0000
  H   H291      1.0  0.11703  0.51966  0.40566  1.0000
  C   C169      1.0  0.28961  0.49001  0.37169  1.0000
  H   H292      1.0  0.46594  0.61006  0.35960  1.0000
  H   H293      1.0  0.43647  0.56435  0.44009  1.0000
  H   H294      1.0  0.13072  0.49429  0.44475  1.0000
  H   H295      1.0  0.07116  0.48272  0.41826  1.0000
  H   H296      1.0  0.04252  0.59405  0.63076  1.0000
  H   H297      1.0  0.02013  0.48757  0.55773  1.0000
  C   C170      1.0  0.45526  0.55732  0.40274  1.0000
  H   H298      1.0  0.99901  0.58308  0.54291  1.0000
  H   H299      1.0  0.22563  0.47935  0.49230  1.0000
  H   H300      1.0  0.44994  0.62517  0.31657  1.0000
  Fe  Fe22      1.0  0.35010  0.80081  0.86827  1.0000
  S   S40       1.0  0.31599  0.81907  0.84072  1.0000
  S   S41       1.0  0.41651  0.81945  0.86557  1.0000
  Fe  Fe23      1.0  0.27513  0.74822  0.89646  1.0000
  S   S42       1.0  0.23474  0.76158  0.87060  1.0000
  S   S43       1.0  0.24471  0.70526  0.92706  1.0000
  Fe  Fe24      1.0  0.27299  0.75541  0.84013  1.0000
  S   S44       1.0  0.25532  0.72301  0.80368  1.0000
  Fe  Fe25      1.0  0.28153  0.82362  0.87404  1.0000
  S   S45       1.0  0.26222  0.87263  0.87759  1.0000
  S   S46       1.0  0.30964  0.73666  0.86571  1.0000
  S   S47       1.0  0.31937  0.81060  0.90191  1.0000
  Fe  Fe26      1.0  0.06090  0.60531  0.73379  1.0000
  S   S48       1.0  0.09849  0.57287  0.72563  1.0000
  S   S49       1.0  0.07937  0.65695  0.75997  1.0000
  S   S50       1.0  0.00733  0.55157  0.74591  1.0000
  S   S51       1.0  0.01941  0.50771  0.69634  1.0000
  H   H301      1.0  0.43940  0.76061  0.88188  1.0000
  Fe  Fe27      1.0  0.04332  0.51876  0.73514  1.0000
  Fe  Fe28      1.0  0.07158  0.56486  0.68758  1.0000
  C   C171      1.0  0.43671  0.75824  0.92757  1.0000
  H   H302      1.0  0.47194  0.64963  0.96062  1.0000
  S   S52       1.0  0.03879  0.60255  0.69456  1.0000
  H   H303      1.0  0.18109  0.72226  0.82350  1.0000
  H   H304      1.0  0.18615  0.83131  0.78736  1.0000
  C   C172      1.0  0.28307  0.90896  0.90054  1.0000
  C   C173      1.0  0.14643  0.76379  0.72817  1.0000
  C   C174      1.0  0.30970  0.90745  0.91869  1.0000
  C   C175      1.0  0.09763  0.49648  0.66416  1.0000
  H   H305      1.0  0.31802  0.88323  0.91890  1.0000
  C   C176      1.0  0.44600  0.86909  0.85936  1.0000
  C   C177      1.0  0.21203  0.83466  0.79914  1.0000
  C   C178      1.0  0.18200  0.77037  0.74509  1.0000
  C   C179      1.0  0.41584  0.70388  0.86575  1.0000
  C   C180      1.0  0.27310  0.70472  0.95309  1.0000
  C   C181      1.0  0.31217  0.73338  0.95675  1.0000
  H   H306      1.0  0.46676  0.83876  0.91586  1.0000
  C   C182      1.0  0.29143  0.93871  0.75493  1.0000
  H   H307      1.0  0.46782  0.77460  0.92032  1.0000
  H   H308      1.0  0.32485  0.75737  0.94376  1.0000
  C   C183      1.0  0.40715  0.71634  0.84025  1.0000
  H   H309      1.0  0.12532  0.52826  0.84795  1.0000
  C   C184      1.0  0.20569  0.70328  0.79268  1.0000
  C   C185      1.0  0.19739  0.68410  0.76973  1.0000
  C   C186      1.0  0.15857  0.66935  0.75974  1.0000
  C   C187      1.0  0.12785  0.67393  0.77262  1.0000
  C   C188      1.0  0.13611  0.69319  0.79560  1.0000
  C   C189      1.0  0.17490  0.70753  0.80576  1.0000
  H   H310      1.0  0.22121  0.68103  0.75947  1.0000
  H   H311      1.0  0.15261  0.65518  0.74182  1.0000
  H   H312      1.0  0.11241  0.69696  0.80556  1.0000
  H   H313      1.0  0.21978  0.81831  0.83688  1.0000
  C   C190      1.0  0.19521  0.81679  0.82439  1.0000
  H   H314      1.0  0.17970  0.83331  0.83314  1.0000
  H   H315      1.0  0.39414  0.67317  0.86896  1.0000
  C   C191      1.0  0.06883  0.58327  0.80732  1.0000
  H   H316      1.0  0.23126  0.86626  0.80223  1.0000
  H   H317      1.0  0.37615  0.71435  0.83959  1.0000
  H   H318      1.0  0.13094  0.78207  0.73418  1.0000
  H   H319      1.0  0.41612  0.66702  0.95073  1.0000
  H   H320      1.0  0.37443  0.95888  0.88971  1.0000
  H   H321      1.0  0.39786  0.78423  0.91108  1.0000
  H   H322      1.0  0.15648  0.77083  0.70862  1.0000
  H   H323      1.0  0.42867  0.74700  0.83604  1.0000
  C   C192      1.0  0.44567  0.68413  0.94189  1.0000
  H   H324      1.0  0.41012  0.69680  0.82574  1.0000
  C   C193      1.0  0.43035  0.89186  0.84658  1.0000
  H   H325      1.0  0.29887  0.87051  0.74177  1.0000
  H   H326      1.0  0.34719  0.93715  0.95001  1.0000
  H   H327      1.0  0.42902  0.84786  0.93207  1.0000
  H   H328      1.0  0.25931  0.82781  0.93600  1.0000
  C   C194      1.0  0.34964  0.65736  0.91329  1.0000
  H   H329      1.0  0.01819  0.56886  0.83257  1.0000
  H   H330      1.0  0.46738  0.91796  0.91564  1.0000
  N   N13       1.0  0.24961  0.82412  0.76090  1.0000
  C   C195      1.0  0.21378  0.81360  0.74402  1.0000
  C   C196      1.0  0.27832  0.86685  0.75778  1.0000
  C   C197      1.0  0.27123  0.79948  0.75312  1.0000
  C   C198      1.0  0.23744  0.81491  0.78770  1.0000
  C   C199      1.0  0.31251  0.80944  0.76559  1.0000
  C   C200      1.0  0.25987  0.89641  0.75259  1.0000
  C   C201      1.0  0.33162  0.78333  0.75554  1.0000
  H   H331      1.0  0.22411  0.82024  0.72441  1.0000
  H   H332      1.0  0.29815  0.87724  0.77435  1.0000
  C   C202      1.0  0.36306  0.86005  0.96707  1.0000
  H   H333      1.0  0.27616  0.80148  0.73266  1.0000
  H   H334      1.0  0.25264  0.76796  0.75721  1.0000
  H   H335      1.0  0.22126  0.78280  0.79046  1.0000
  H   H336      1.0  0.26433  0.82368  0.79970  1.0000
  H   H337      1.0  0.19483  0.75002  0.73884  1.0000
  H   H338      1.0  0.30907  0.80457  0.78587  1.0000
  H   H339      1.0  0.33399  0.84030  0.76223  1.0000
  H   H340      1.0  0.23494  0.89260  0.76534  1.0000
  H   H341      1.0  0.09337  0.50341  0.68307  1.0000
  H   H342      1.0  0.33748  0.78817  0.73532  1.0000
  H   H343      1.0  0.36057  0.79039  0.76514  1.0000
  H   H344      1.0  0.31172  0.75192  0.75895  1.0000
  H   H345      1.0  0.27773  0.95917  0.75038  1.0000
  C   C203      1.0  0.25634  0.67401  0.97011  1.0000
  S   S53       1.0  0.10576  0.57017  0.65220  1.0000
  H   H346      1.0  0.19682  0.56246  0.79400  1.0000
  H   H347      1.0  0.39944  0.87904  0.84064  1.0000
  C   C204      1.0  0.02407  0.56982  0.81233  1.0000
  H   H348      1.0  0.17001  0.76225  0.76415  1.0000
  H   H349      1.0  0.18742  0.60639  0.74816  1.0000
  H   H350      1.0  0.24283  0.77502  0.96556  1.0000
  C   C205      1.0  0.19993  0.78600  0.92673  1.0000
  H   H351      1.0  0.20074  0.80041  0.90862  1.0000
  H   H352      1.0  0.17330  0.78572  0.82232  1.0000
  H   H353      1.0  0.06814  0.52646  0.80591  1.0000
  H   H354      1.0  0.20833  0.76128  0.92373  1.0000
  H   H355      1.0  0.37577  0.69678  0.94432  1.0000
  C   C206      1.0  0.08371  0.55308  0.81739  1.0000
  H   H356      1.0  0.39425  0.77827  0.94360  1.0000
  C   C207      1.0  0.31659  0.97022  0.93519  1.0000
  C   C208      1.0  0.45898  0.94034  0.92412  1.0000
  H   H357      1.0  0.20599  0.61363  0.79300  1.0000
  C   C209      1.0  0.44105  0.69783  0.91541  1.0000
  H   H358      1.0  0.36568  0.63838  0.91542  1.0000
  H   H359      1.0  0.34280  0.65924  0.89346  1.0000
  C   C210      1.0  0.14243  0.57338  0.79039  1.0000
  C   C211      1.0  0.41553  0.78625  0.92794  1.0000
  H   H360      1.0  0.36011  0.87369  0.94940  1.0000
  H   H361      1.0  0.38278  0.84490  0.96386  1.0000
  H   H362      1.0  0.12453  0.73251  0.72911  1.0000
  C   C212      1.0  0.32618  0.93793  0.93624  1.0000
  H   H363      1.0  0.07317  0.58622  0.78693  1.0000
  H   H364      1.0  0.12657  0.60395  0.84689  1.0000
  H   H365      1.0  0.44340  0.94851  0.83053  1.0000
  H   H366      1.0  0.07194  0.54482  0.83662  1.0000
  C   C213      1.0  0.18703  0.61057  0.84638  1.0000
  H   H367      1.0  0.25274  0.94241  0.88600  1.0000
  H   H368      1.0  0.43986  0.75220  0.94740  1.0000
  H   H369      1.0  0.31676  0.94437  0.74193  1.0000
  H   H370      1.0  0.29045  0.65302  0.92299  1.0000
  C   C214      1.0  0.22909  0.81580  0.94464  1.0000
  H   H371      1.0  0.19737  0.83184  0.74784  1.0000
  H   H372      1.0  0.19857  0.77800  0.97583  1.0000
  H   H373      1.0  0.44645  0.70483  0.86505  1.0000
  N   N14       1.0  0.41590  0.72069  0.91311  1.0000
  C   C215      1.0  0.41391  0.73191  0.88628  1.0000
  C   C216      1.0  0.32217  0.83025  0.97609  1.0000
  C   C217      1.0  0.30945  0.63725  0.92674  1.0000
  H   H374      1.0  0.36488  0.75266  0.98024  1.0000
  H   H375      1.0  0.17886  0.55546  0.74945  1.0000
  H   H376      1.0  0.22607  0.65188  0.96744  1.0000
  H   H377      1.0  0.16881  0.77437  0.93407  1.0000
  C   C218      1.0  0.44531  0.82891  0.93158  1.0000
  H   H378      1.0  0.16935  0.54162  0.82990  1.0000
  H   H379      1.0  0.24797  0.89240  0.73335  1.0000
  H   H380      1.0  0.21941  0.83979  0.94631  1.0000
  C   C219      1.0  0.27315  0.94092  0.89998  1.0000
  H   H381      1.0  0.29328  0.60673  0.91992  1.0000
  C   C220      1.0  0.13670  0.53332  0.82849  1.0000
  C   C221      1.0  0.45523  0.93108  0.84081  1.0000
  C   C222      1.0  0.23007  0.79628  0.96988  1.0000
  H   H382      1.0  0.38640  0.73661  0.88302  1.0000
  C   C223      1.0  0.14767  0.60315  0.83225  1.0000
  H   H383      1.0  0.08492  0.61263  0.81578  1.0000
  H   H384      1.0  0.18115  0.58804  0.86105  1.0000
  H   H385      1.0  0.22842  0.59362  0.75470  1.0000
  H   H386      1.0  0.01384  0.59079  0.80361  1.0000
  N   N15       1.0  0.12859  0.56590  0.81701  1.0000
  H   H387      1.0  0.18199  0.65210  0.87297  1.0000
  H   H388      1.0  0.15365  0.62929  0.82042  1.0000
  H   H389      1.0  0.23174  0.65471  0.86953  1.0000
  H   H390      1.0  0.12396  0.54797  0.77852  1.0000
  H   H391      1.0  0.21138  0.67442  0.84568  1.0000
  C   C224      1.0  0.20391  0.65037  0.85937  1.0000
  H   H392      1.0  0.13713  0.59813  0.78268  1.0000
  C   C225      1.0  0.18730  0.58398  0.78557  1.0000
  C   C226      1.0  0.19589  0.58489  0.75776  1.0000
  H   H393      1.0  0.21046  0.60973  0.83379  1.0000
  H   H394      1.0  0.35615  0.71566  0.92052  1.0000
  C   C227      1.0  0.37439  0.69887  0.92376  1.0000
  H   H395      1.0  0.29475  0.86988  0.96776  1.0000
  H   H396      1.0  0.30866  0.80856  0.96112  1.0000
  H   H397      1.0  0.42889  0.67105  0.90383  1.0000
  C   C228      1.0  0.33483  0.73059  0.97711  1.0000
  H   H398      1.0  0.31391  0.63633  0.94707  1.0000
  H   H399      1.0  0.30308  0.94472  0.77421  1.0000
  H   H400      1.0  0.00663  0.54032  0.80424  1.0000
  H   H401      1.0  0.42997  0.92510  0.93403  1.0000
  H   H402      1.0  0.37726  0.88329  0.98121  1.0000
  C   C229      1.0  0.46843  0.65829  0.94138  1.0000
  Fe  Fe29      1.0  0.98845  0.54587  0.70606  1.0000
  H   H403      1.0  0.43248  0.94803  0.89042  1.0000
  H   H404      1.0  0.12790  0.49610  0.79527  1.0000
  C   C230      1.0  0.45530  0.96692  0.90382  1.0000
  H   H405      1.0  0.46212  0.83238  0.94919  1.0000
  H   H406      1.0  0.23272  0.86870  0.98079  1.0000
  H   H407      1.0  0.45177  0.63129  0.93041  1.0000
  C   C231      1.0  0.36014  0.96279  0.85168  1.0000
  C   C232      1.0  0.29015  0.97154  0.91700  1.0000
  H   H408      1.0  0.32779  0.94331  0.85405  1.0000
  H   H409      1.0  0.08518  0.47999  0.81585  1.0000
  C   C233      1.0  0.11840  0.49316  0.81498  1.0000
  H   H410      1.0  0.46321  0.70952  0.95377  1.0000
  H   H411      1.0  0.47186  0.71581  0.90813  1.0000
  H   H412      1.0  0.37552  0.94462  0.84526  1.0000
  H   H413      1.0  0.47860  0.90350  0.96779  1.0000
  H   H414      1.0  0.51660  0.23591  0.05383  1.0000
  C   C234      1.0  0.51817  0.32731  0.28012  1.0000
  C   C235      1.0  0.53756  0.19072  0.04723  1.0000
  H   H415      1.0  0.55591  0.34366  0.22963  1.0000
  H   H416      1.0  0.52221  0.44654  0.20848  1.0000
  H   H417      1.0  0.59082  0.20688  0.02431  1.0000
  N   N16       1.0  0.57605  0.46236  0.23070  1.0000
  H   H418      1.0  0.51882  0.45099  0.16271  1.0000
  H   H419      1.0  0.58740  0.01715  0.04803  1.0000
  C   C236      1.0  0.55306  0.35449  0.21092  1.0000
  C   C237      1.0  0.58847  0.36694  0.28975  1.0000
  C   C238      1.0  0.56242  0.11852  0.00028  1.0000
  H   H420      1.0  0.54114  0.39947  0.19364  1.0000
  H   H421      1.0  0.59101  0.04933  0.99657  1.0000
  H   H422      1.0  0.55276  0.02183  0.02732  1.0000
  H   H423      1.0  0.49317  0.43715  0.24396  1.0000
  H   H424      1.0  0.48755  0.32398  0.27898  1.0000
  C   C239      1.0  0.57607  0.22153  0.03579  1.0000
  H   H425      1.0  0.51674  0.38314  0.22294  1.0000
  C   C240      1.0  0.49652  0.44208  0.28325  1.0000
  C   C241      1.0  0.56018  0.99967  0.03694  1.0000
  H   H426      1.0  0.52730  0.03384  0.06969  1.0000
  C   C242      1.0  0.52730  0.29599  0.27355  1.0000
  C   C243      1.0  0.56685  0.30019  0.27515  1.0000
  C   C244      1.0  0.59749  0.33589  0.28261  1.0000
  H   H427      1.0  0.61855  0.98210  0.99369  1.0000
  H   H428      1.0  0.50492  0.16680  0.10274  1.0000
  H   H429      1.0  0.57393  0.27596  0.27023  1.0000
  C   C245      1.0  0.60471  0.03171  0.98737  1.0000
  H   H430      1.0  0.51304  0.24757  0.10853  1.0000
  C   C246      1.0  0.48080  0.22854  0.11163  1.0000
  H   H431      1.0  0.57072  0.13635  0.01682  1.0000
  H   H432      1.0  0.60739  0.43092  0.21376  1.0000
  S   S54       1.0  0.48964  0.25036  0.26500  1.0000
  H   H433      1.0  0.57278  0.45208  0.27044  1.0000
  H   H434      1.0  0.66478  0.07712  0.99437  1.0000
  C   C247      1.0  0.51208  0.43343  0.25878  1.0000
  C   C248      1.0  0.51693  0.21025  0.06394  1.0000
  H   H435      1.0  0.49829  0.99128  0.08798  1.0000
  S   S55       1.0  0.62782  0.41167  0.29820  1.0000
  H   H436      1.0  0.58548  0.46237  0.17954  1.0000
  C   C249      1.0  0.58071  0.42495  0.22574  1.0000
  H   H437      1.0  0.49202  0.11783  0.06473  1.0000
  H   H438      1.0  0.58086  0.36069  0.20016  1.0000
  H   H439      1.0  0.53777  0.22317  0.07972  1.0000
  H   H440      1.0  0.59734  0.23867  0.05051  1.0000
  H   H441      1.0  0.58715  0.41313  0.24334  1.0000
  C   C250      1.0  0.54526  0.39114  0.21283  1.0000
  H   H442      1.0  0.51813  0.17403  0.03173  1.0000
  C   C251      1.0  0.60745  0.00024  0.00503  1.0000
  H   H443      1.0  0.56920  0.24177  0.02364  1.0000
  C   C252      1.0  0.48207  0.08998  0.10029  1.0000
  H   H444      1.0  0.62819  0.33926  0.28319  1.0000
  H   H445      1.0  0.54628  0.17089  0.05849  1.0000
  C   C253      1.0  0.52897  0.08229  0.00067  1.0000
  H   H446      1.0  0.55233  0.01131  0.08858  1.0000
  C   C254      1.0  0.52590  0.00552  0.07659  1.0000
  H   H447      1.0  0.50775  0.40247  0.25936  1.0000
  S   S56       1.0  0.50251  0.06612  0.02855  1.0000
  H   H448      1.0  0.52759  0.33116  0.20124  1.0000
  H   H449      1.0  0.64719  0.46651  0.25335  1.0000
  C   C255      1.0  0.54868  0.36252  0.28886  1.0000
  H   H450      1.0  0.63172  0.01613  0.01854  1.0000
  H   H451      1.0  0.51382  0.10535  0.10631  1.0000
  H   H452      1.0  0.54168  0.38645  0.29448  1.0000
  H   H453      1.0  0.47873  0.26815  0.14023  1.0000
  H   H454      1.0  0.51498  0.44031  0.29907  1.0000
  C   C256      1.0  0.55706  0.46096  0.25572  1.0000
  C   C257      1.0  0.55192  0.47139  0.21107  1.0000
  H   H455      1.0  0.49699  0.47178  0.28284  1.0000
  H   H456      1.0  0.52366  0.97910  0.99481  1.0000
  C   C258      1.0  0.52493  0.97872  0.05503  1.0000
  H   H457      1.0  0.75591  0.40998  0.47067  1.0000
  S   S57       1.0  0.63011  0.41330  0.37112  1.0000
  S   S58       1.0  0.97144  0.25871  0.56134  1.0000
  H   H458      1.0  0.55034  0.37686  0.47872  1.0000
  C   C259      1.0  0.90150  0.31820  0.51242  1.0000
  H   H459      1.0  0.67442  0.30458  0.63311  1.0000
  S   S59       1.0  0.52394  0.37062  0.40557  1.0000
  Fe  Fe30      1.0  0.61802  0.43511  0.33461  1.0000
  H   H460      1.0  0.91715  0.27650  0.64208  1.0000
  H   H461      1.0  0.82051  0.40462  0.60792  1.0000
  H   H462      1.0  0.58039  0.30798  0.34320  1.0000
  C   C260      1.0  0.81187  0.28526  0.51382  1.0000
  S   S60       1.0  0.79271  0.40306  0.51797  1.0000
  H   H463      1.0  0.70081  0.34863  0.48271  1.0000
  H   H464      1.0  0.88022  0.43313  0.41007  1.0000
  H   H465      1.0  0.77677  0.31965  0.51349  1.0000
  H   H466      1.0  0.86333  0.34842  0.42438  1.0000
  Fe  Fe31      1.0  0.80462  0.40203  0.55833  1.0000
  S   S61       1.0  0.78263  0.34136  0.57356  1.0000
  H   H467      1.0  0.56114  0.44225  0.49448  1.0000
  C   C261      1.0  0.85922  0.40194  0.41212  1.0000
  H   H468      1.0  0.80205  0.36433  0.42689  1.0000
  H   H469      1.0  0.69913  0.32780  0.45236  1.0000
  S   S62       1.0  0.71636  0.44658  0.51193  1.0000
  H   H470      1.0  0.89536  0.39219  0.44112  1.0000
  H   H471      1.0  0.89750  0.36810  0.61567  1.0000
  H   H472      1.0  0.65922  0.41723  0.47249  1.0000
  H   H473      1.0  0.68524  0.36817  0.45637  1.0000
  H   H474      1.0  0.92746  0.18267  0.58113  1.0000
  C   C262      1.0  0.70599  0.35547  0.46261  1.0000
  H   H475      1.0  0.72752  0.32696  0.63583  1.0000
  H   H476      1.0  0.94162  0.47816  0.60499  1.0000
  H   H477      1.0  0.73971  0.41599  0.42837  1.0000
  H   H478      1.0  0.88890  0.15840  0.61983  1.0000
  H   H479      1.0  0.74582  0.43849  0.39097  1.0000
  H   H480      1.0  0.66557  0.33547  0.55191  1.0000
  C   C263      1.0  0.74964  0.38441  0.45840  1.0000
  S   S63       1.0  0.78279  0.44751  0.56835  1.0000
  C   C264      1.0  0.75714  0.39827  0.43099  1.0000
  H   H481      1.0  0.90185  0.34684  0.50668  1.0000
  C   C265      1.0  0.81428  0.37722  0.61726  1.0000
  Fe  Fe32      1.0  0.57305  0.41631  0.38328  1.0000
  C   C266      1.0  0.68725  0.35813  0.56424  1.0000
  H   H482      1.0  0.65668  0.40806  0.61478  1.0000
  H   H483      1.0  0.82504  0.29626  0.49531  1.0000
  C   C267      1.0  0.82265  0.39602  0.42883  1.0000
  H   H484      1.0  0.65972  0.43934  0.42901  1.0000
  H   H485      1.0  0.94738  0.29474  0.51535  1.0000
  H   H486      1.0  0.74279  0.37210  0.41878  1.0000
  C   C268      1.0  0.79765  0.30627  0.64153  1.0000
  H   H487      1.0  0.76877  0.36975  0.46428  1.0000
  C   C269      1.0  0.90379  0.18963  0.61638  1.0000
  H   H488      1.0  0.83287  0.39946  0.44848  1.0000
  H   H489      1.0  0.68367  0.38578  0.56167  1.0000
  H   H490      1.0  0.93608  0.39101  0.59260  1.0000
  S   S64       1.0  0.55835  0.43212  0.34584  1.0000
  H   H491      1.0  0.81502  0.18494  0.55083  1.0000
  C   C270      1.0  0.83808  0.19968  0.56521  1.0000
  H   H492      1.0  0.86470  0.19380  0.56142  1.0000
  C   C271      1.0  0.84955  0.24374  0.56531  1.0000
  C   C272      1.0  0.96403  0.33710  0.48599  1.0000
  H   H493      1.0  0.71798  0.36302  0.55846  1.0000
  H   H494      1.0  0.68252  0.31622  0.59238  1.0000
  H   H495      1.0  0.75210  0.27170  0.49982  1.0000
  H   H496      1.0  0.78833  0.40214  0.38558  1.0000
  H   H497      1.0  0.58779  0.37112  0.63129  1.0000
  C   C273      1.0  0.88286  0.38028  0.42262  1.0000
  H   H498      1.0  0.95906  0.30125  0.60377  1.0000
  H   H499      1.0  0.51455  0.25160  0.34089  1.0000
  H   H500      1.0  0.84869  0.39007  0.39330  1.0000
  H   H501      1.0  0.82337  0.30064  0.55225  1.0000
  C   C274      1.0  0.51552  0.28025  0.34674  1.0000
  H   H502      1.0  0.64800  0.33867  0.59555  1.0000
  H   H503      1.0  0.56019  0.33384  0.36290  1.0000
  Fe  Fe33      1.0  0.77543  0.45170  0.52726  1.0000
  H   H504      1.0  0.96465  0.34464  0.52531  1.0000
  C   C275      1.0  0.67941  0.34428  0.59121  1.0000
  C   C276      1.0  0.77864  0.45493  0.38816  1.0000
  H   H505      1.0  0.80502  0.25369  0.51527  1.0000
  H   H506      1.0  0.86824  0.35735  0.57418  1.0000
  H   H507      1.0  0.86879  0.25629  0.58178  1.0000
  H   H508      1.0  0.60734  0.43714  0.49077  1.0000
  C   C277      1.0  0.88424  0.33942  0.57987  1.0000
  C   C278      1.0  0.75614  0.44022  0.64014  1.0000
  H   H509      1.0  0.95928  0.36303  0.47994  1.0000
  H   H510      1.0  0.82564  0.18700  0.58361  1.0000
  H   H511      1.0  0.67342  0.42936  0.64509  1.0000
  C   C279      1.0  0.94571  0.43087  0.51396  1.0000
  C   C280      1.0  0.79752  0.34193  0.60421  1.0000
  H   H512      1.0  0.71160  0.40407  0.60328  1.0000
  S   S65       1.0  0.86948  0.44391  0.55588  1.0000
  H   H513      1.0  0.90824  0.38425  0.41005  1.0000
  H   H514      1.0  0.51993  0.44440  0.39614  1.0000
  C   C281      1.0  0.92576  0.20338  0.59448  1.0000
  C   C282      1.0  0.94558  0.32292  0.51157  1.0000
  H   H515      1.0  0.73959  0.37611  0.60504  1.0000
  C   C283      1.0  0.71775  0.46225  0.48112  1.0000
  H   H516      1.0  0.92297  0.42255  0.52817  1.0000
  H   H517      1.0  0.58037  0.39894  0.45171  1.0000
  C   C284      1.0  0.70947  0.37501  0.60908  1.0000
  H   H518      1.0  0.93014  0.34554  0.60713  1.0000
  C   C285      1.0  0.93872  0.44368  0.49076  1.0000
  H   H519      1.0  0.53355  0.40293  0.45690  1.0000
  C   C286      1.0  0.90062  0.21581  0.63370  1.0000
  H   H520      1.0  0.84685  0.34068  0.53192  1.0000
  C   C287      1.0  0.92007  0.25623  0.62900  1.0000
  H   H521      1.0  0.88248  0.47783  0.43559  1.0000
  H   H522      1.0  0.95064  0.31338  0.47208  1.0000
  C   C288      1.0  0.90584  0.33201  0.55704  1.0000
  C   C289      1.0  0.96910  0.46255  0.63558  1.0000
  H   H523      1.0  0.88546  0.29697  0.49750  1.0000
  C   C290      1.0  0.58256  0.44024  0.48070  1.0000
  C   C291      1.0  0.94588  0.24358  0.58984  1.0000
  C   C292      1.0  0.91399  0.36247  0.59999  1.0000
  H   H524      1.0  0.86223  0.31185  0.58821  1.0000
  H   H525      1.0  0.92802  0.32117  0.56380  1.0000
  C   C293      1.0  0.94340  0.27016  0.60726  1.0000
  H   H526      1.0  0.82139  0.24737  0.56745  1.0000
  C   C294      1.0  0.77191  0.28859  0.51518  1.0000
  C   C295      1.0  0.84069  0.30926  0.53477  1.0000
  C   C296      1.0  0.87294  0.26342  0.54148  1.0000
  C   C297      1.0  0.56043  0.40252  0.46605  1.0000
  C   C298      1.0  0.68477  0.44255  0.46561  1.0000
  H   H527      1.0  0.94565  0.43199  0.63523  1.0000
  H   H528      1.0  0.75649  0.27661  0.53306  1.0000
  N   N17       1.0  0.87977  0.30532  0.53690  1.0000
  H   H529      1.0  0.51273  0.29612  0.33014  1.0000
  C   C299      1.0  0.68496  0.45509  0.44105  1.0000
  H   H530      1.0  0.56260  0.28939  0.37392  1.0000
  H   H531      1.0  0.92396  0.36186  0.54946  1.0000
  H   H532      1.0  0.90203  0.26136  0.54293  1.0000
  H   H533      1.0  0.85811  0.24466  0.52530  1.0000
  C   C300      1.0  0.48500  0.38562  0.40924  1.0000
  Fe  Fe34      1.0  0.85569  0.44876  0.51595  1.0000
  C   C301      1.0  0.55721  0.30427  0.35746  1.0000
  H   H534      1.0  0.77762  0.27930  0.60592  1.0000
  N   N18       1.0  0.80057  0.42134  0.42361  1.0000
  C   C302      1.0  0.79018  0.30657  0.61613  1.0000
  C   C303      1.0  0.80132  0.43012  0.39622  1.0000
  H   H535      1.0  0.48246  0.25021  0.37886  1.0000
  H   H536      1.0  0.77602  0.43886  0.62498  1.0000
  C   C304      1.0  0.81744  0.45811  0.43909  1.0000
  H   H537      1.0  0.63545  0.34008  0.63542  1.0000
  N   N19       1.0  0.70048  0.36804  0.63647  1.0000
  H   H538      1.0  0.49238  0.34595  0.34976  1.0000
  C   C305      1.0  0.49122  0.42381  0.40297  1.0000
  S   S66       1.0  0.89348  0.44676  0.48378  1.0000
  C   C306      1.0  0.82082  0.37676  0.64278  1.0000
  C   C307      1.0  0.96816  0.45390  0.47234  1.0000
  H   H539      1.0  0.85693  0.47626  0.61606  1.0000
  H   H540      1.0  0.77399  0.43838  0.34911  1.0000
  H   H541      1.0  0.81900  0.45080  0.45897  1.0000
  H   H542      1.0  0.73570  0.45201  0.63230  1.0000
  H   H543      1.0  0.49186  0.30001  0.37822  1.0000
  C   C308      1.0  0.65277  0.40284  0.63505  1.0000
  H   H544      1.0  0.83250  0.44582  0.38931  1.0000
  H   H545      1.0  0.96297  0.46390  0.45443  1.0000
  C   C309      1.0  0.48225  0.27352  0.36629  1.0000
  C   C310      1.0  0.78502  0.46536  0.36062  1.0000
  H   H546      1.0  0.79682  0.47263  0.43876  1.0000
  H   H547      1.0  0.60565  0.42320  0.63576  1.0000
  C   C311      1.0  0.61001  0.39686  0.64138  1.0000
  C   C312      1.0  0.69965  0.32851  0.64273  1.0000
  C   C313      1.0  0.66010  0.36692  0.64304  1.0000
  C   C314      1.0  0.59908  0.47638  0.46316  1.0000
  Fe  Fe35      1.0  0.65930  0.47697  0.38141  1.0000
  H   H548      1.0  0.57444  0.47469  0.45053  1.0000
  S   S67       1.0  0.60321  0.47813  0.39678  1.0000
  H   H549      1.0  0.62101  0.47211  0.45081  1.0000
  Fe  Fe36      1.0  0.66814  0.06550  0.87103  1.0000
  S   S68       1.0  0.61747  0.08300  0.86695  1.0000
  S   S69       1.0  0.72839  0.09733  0.85244  1.0000
  H   H550      1.0  0.77003  0.03367  0.75264  1.0000
  C   C315      1.0  0.70801  0.18113  0.89692  1.0000
  C   C316      1.0  0.78274  0.46953  0.65932  1.0000
  Fe  Fe37      1.0  0.61220  0.07878  0.90824  1.0000
  S   S70       1.0  0.60510  0.12572  0.93058  1.0000
  C   C317      1.0  0.91185  0.41387  0.69248  1.0000
  S   S71       1.0  0.66673  0.06739  0.91242  1.0000
  H   H551      1.0  0.77729  0.41333  0.76225  1.0000
  Fe  Fe38      1.0  0.88024  0.27529  0.73691  1.0000
  S   S72       1.0  0.85139  0.21058  0.72935  1.0000
  S   S73       1.0  0.92930  0.29876  0.76526  1.0000
  Fe  Fe39      1.0  0.82618  0.29155  0.70129  1.0000
  S   S74       1.0  0.79333  0.22874  0.69023  1.0000
  C   C318      1.0  0.53866  0.11539  0.86784  1.0000
  Fe  Fe40      1.0  0.79320  0.21643  0.73099  1.0000
  S   S75       1.0  0.73386  0.17649  0.74820  1.0000
  Fe  Fe41      1.0  0.85462  0.22921  0.68941  1.0000
  H   H552      1.0  0.78778  0.26276  0.84593  1.0000
  S   S76       1.0  0.82183  0.27965  0.74210  1.0000
  S   S77       1.0  0.88762  0.29345  0.69701  1.0000
  C   C319      1.0  0.96446  0.34789  0.76260  1.0000
  N   N20       1.0  0.72557  0.20916  0.87553  1.0000
  H   H553      1.0  0.60240  0.17473  0.83233  1.0000
  C   C320      1.0  0.69874  0.19355  0.85324  1.0000
  H   H554      1.0  0.79422  0.14502  0.82135  1.0000
  H   H555      1.0  0.76216  0.26768  0.88942  1.0000
  H   H556      1.0  0.78460  0.99650  0.84348  1.0000
  C   C321      1.0  0.57552  0.10824  0.95740  1.0000
  H   H557      1.0  0.90591  0.45739  0.79009  1.0000
  C   C322      1.0  0.73476  0.35887  0.74742  1.0000
  H   H558      1.0  0.69882  0.30604  0.88211  1.0000
  H   H559      1.0  0.75701  0.17605  0.91741  1.0000
  H   H560      1.0  0.90497  0.45523  0.71684  1.0000
  C   C323      1.0  0.81025  0.38429  0.74311  1.0000
  C   C324      1.0  0.77357  0.08895  0.74012  1.0000
  H   H561      1.0  0.80462  0.09847  0.73295  1.0000
  C   C325      1.0  0.72967  0.11973  0.82365  1.0000
  C   C326      1.0  0.69428  0.11555  0.81183  1.0000
  C   C327      1.0  0.69604  0.13360  0.78882  1.0000
  C   C328      1.0  0.73314  0.15594  0.77753  1.0000
  C   C329      1.0  0.76858  0.16038  0.78942  1.0000
  C   C330      1.0  0.76678  0.14199  0.81236  1.0000
  H   H562      1.0  0.66553  0.09813  0.82027  1.0000
  H   H563      1.0  0.66857  0.12994  0.77958  1.0000
  H   H564      1.0  0.79729  0.17745  0.78073  1.0000
  C   C331      1.0  0.59899  0.00038  0.79993  1.0000
  S   S78       1.0  0.62985  0.00056  0.86902  1.0000
  H   H565      1.0  0.80356  0.45874  0.66801  1.0000
  H   H566      1.0  0.54471  0.09737  0.85350  1.0000
  C   C332      1.0  0.73541  0.18935  0.92013  1.0000
  H   H567      1.0  0.63903  0.17415  0.87081  1.0000
  H   H568      1.0  0.73206  0.17726  0.95966  1.0000
  C   C333      1.0  0.54267  0.07140  0.95798  1.0000
  H   H569      1.0  0.77516  0.37036  0.77814  1.0000
  H   H570      1.0  0.83205  0.20913  0.84467  1.0000
  C   C334      1.0  0.63240  0.17443  0.83122  1.0000
  C   C335      1.0  0.70190  0.25550  0.90017  1.0000
  H   H571      1.0  0.61054  0.16019  0.97829  1.0000
  H   H572      1.0  0.89888  0.38188  0.68890  1.0000
  H   H573      1.0  0.75309  0.22120  0.92319  1.0000
  H   H574      1.0  0.77246  0.21772  0.82874  1.0000
  H   H575      1.0  0.67059  0.25403  0.66460  1.0000
  C   C336      1.0  0.49543  0.09472  0.87697  1.0000
  C   C337      1.0  0.83091  0.23816  0.84452  1.0000
  H   H576      1.0  0.73050  0.32801  0.74506  1.0000
  C   C338      1.0  0.88902  0.37489  0.78502  1.0000
  H   H577      1.0  0.76242  0.17862  0.86650  1.0000
  C   C339      1.0  0.64624  0.06044  0.97849  1.0000
  H   H578      1.0  0.49332  0.03044  0.97981  1.0000
  C   C340      1.0  0.58505  0.13188  0.97854  1.0000
  H   H579      1.0  0.57406  0.99702  0.78717  1.0000
  H   H580      1.0  0.95090  0.26833  0.71678  1.0000
  S   S79       1.0  0.81201  0.34022  0.68732  1.0000
  H   H581      1.0  0.91143  0.42885  0.67487  1.0000
  H   H582      1.0  0.85818  0.46020  0.74352  1.0000
  H   H583      1.0  0.84857  0.25586  0.86038  1.0000
  H   H584      1.0  0.80298  0.35354  0.73750  1.0000
  H   H585      1.0  0.84152  0.39254  0.79413  1.0000
  H   H586      1.0  0.71008  0.35905  0.75924  1.0000
  C   C341      1.0  0.88043  0.39880  0.73562  1.0000
  C   C342      1.0  0.65614  0.19210  0.85486  1.0000
  H   H587      1.0  0.69394  0.13968  0.94168  1.0000
  H   H588      1.0  0.67855  0.17990  0.90271  1.0000
  H   H589      1.0  0.76414  0.47443  0.67399  1.0000
  C   C343      1.0  0.76598  0.01027  0.85169  1.0000
  C   C344      1.0  0.81133  0.34118  0.65501  1.0000
  H   H590      1.0  0.88138  0.37445  0.82516  1.0000
  H   H591      1.0  0.85922  0.32639  0.81072  1.0000
  H   H592      1.0  0.70169  0.03789  0.75561  1.0000
  H   H593      1.0  0.91600  0.40322  0.78522  1.0000
  C   C345      1.0  0.72261  0.04536  0.77166  1.0000
  H   H594      1.0  0.48450  0.98053  0.89415  1.0000
  H   H595      1.0  0.92797  0.46756  0.75947  1.0000
  C   C346      1.0  0.88758  0.42415  0.71187  1.0000
  N   N21       1.0  0.85166  0.40243  0.75447  1.0000
  H   H596      1.0  0.83189  0.40375  0.65320  1.0000
  H   H597      1.0  0.70780  0.24823  0.91925  1.0000
  H   H598      1.0  0.68550  0.30059  0.91451  1.0000
  H   H599      1.0  0.62821  0.14366  0.82877  1.0000
  H   H600      1.0  0.77050  0.11520  0.74722  1.0000
  H   H601      1.0  0.64820  0.19168  0.81466  1.0000
  C   C347      1.0  0.86174  0.44468  0.76033  1.0000
  H   H602      1.0  0.69542  0.16344  0.84902  1.0000
  C   C348      1.0  0.78747  0.23316  0.84592  1.0000
  H   H603      1.0  0.91278  0.35154  0.81435  1.0000
  H   H604      1.0  0.94339  0.42400  0.69849  1.0000
  S   S80       1.0  0.56927  0.01560  0.90928  1.0000
  H   H605      1.0  0.84496  0.25346  0.82702  1.0000
  H   H606      1.0  0.91078  0.40771  0.74351  1.0000
  C   C349      1.0  0.73173  0.25059  0.88148  1.0000
  H   H607      1.0  0.78696  0.22104  0.88496  1.0000
  H   H608      1.0  0.70100  0.15054  0.89097  1.0000
  H   H609      1.0  0.87032  0.36755  0.73011  1.0000
  H   H610      1.0  0.72158  0.07177  0.78023  1.0000
  H   H611      1.0  0.65799  0.22219  0.85639  1.0000
  H   H612      1.0  0.71230  0.21153  0.83651  1.0000
  N   N22       1.0  0.70912  0.01192  0.79016  1.0000
  C   C350      1.0  0.76555  0.05856  0.76072  1.0000
  H   H613      1.0  0.73749  0.31823  0.90559  1.0000
  H   H614      1.0  0.73302  0.37120  0.72895  1.0000
  H   H615      1.0  0.75235  0.07641  0.72449  1.0000
  H   H616      1.0  0.69033  0.18527  0.94774  1.0000
  Fe  Fe42      1.0  0.57862  0.01849  0.86809  1.0000
  H   H617      1.0  0.55991  0.12077  0.88350  1.0000
  C   C351      1.0  0.70635  0.29774  0.90054  1.0000
  H   H618      1.0  0.50743  0.06238  0.90648  1.0000
  H   H619      1.0  0.67022  0.23619  0.89596  1.0000
  H   H620      1.0  0.85955  0.42131  0.70284  1.0000
  H   H621      1.0  0.53552  0.05270  0.94197  1.0000
  H   H622      1.0  0.54361  0.14404  0.85950  1.0000
  C   C352      1.0  0.77521  0.38328  0.75964  1.0000
  H   H623      1.0  0.80875  0.39980  0.72592  1.0000
  H   H624      1.0  0.94331  0.35940  0.72756  1.0000
  C   C353      1.0  0.71137  0.17179  0.94369  1.0000
  H   H625      1.0  0.89378  0.35534  0.77131  1.0000
  H   H626      1.0  0.73129  0.26637  0.86407  1.0000
  C   C354      1.0  0.76572  0.20918  0.86922  1.0000
  H   H627      1.0  0.82697  0.34891  0.77659  1.0000
  H   H628      1.0  0.64368  0.03000  0.77258  1.0000
  Fe  Fe43      1.0  0.62409  0.00387  0.91048  1.0000
  H   H629      1.0  0.67817  0.03682  0.81339  1.0000
  H   H630      1.0  0.60586  0.02694  0.81142  1.0000
  H   H631      1.0  0.96219  0.29563  0.67613  1.0000
  H   H632      1.0  0.66179  0.04467  0.96891  1.0000
  H   H633      1.0  0.65969  0.98570  0.81630  1.0000
  H   H634      1.0  0.69257  0.26988  0.69477  1.0000
  C   C355      1.0  0.88513  0.35566  0.81044  1.0000
  C   C356      1.0  0.69532  0.31729  0.67071  1.0000
  C   C357      1.0  0.96441  0.37161  0.74254  1.0000
  C   C358      1.0  0.85047  0.37964  0.77794  1.0000
  H   H635      1.0  0.49947  0.03914  0.87754  1.0000
  C   C359      1.0  0.74189  0.02104  0.80934  1.0000
  C   C360      1.0  0.67128  0.00969  0.80245  1.0000
  H   H636      1.0  0.66656  0.31549  0.67829  1.0000
  C   C361      1.0  0.96873  0.23340  0.74101  1.0000
  C   C362      1.0  0.48763  0.05534  0.88999  1.0000
  C   C363      1.0  0.73332  0.39885  0.65175  1.0000
  H   H637      1.0  0.96829  0.38005  0.67686  1.0000
  C   C364      1.0  0.69572  0.27724  0.67470  1.0000
  C   C365      1.0  0.90385  0.46866  0.77139  1.0000
  H   H638      1.0  0.71139  0.01583  0.84519  1.0000
  C   C366      1.0  0.63585  0.00426  0.78500  1.0000
  H   H639      1.0  0.87396  0.46960  0.65998  1.0000
  H   H640      1.0  0.60443  0.39241  0.66165  1.0000
  H   H641      1.0  0.78864  0.07226  0.77525  1.0000
  H   H642      1.0  0.93694  0.21391  0.74534  1.0000
  H   H643      1.0  0.75666  0.05326  0.81293  1.0000
  H   H644      1.0  0.64307  0.08162  0.96531  1.0000
  H   H645      1.0  0.84021  0.44672  0.77411  1.0000
  H   H646      1.0  0.49029  0.11493  0.89002  1.0000
  H   H647      1.0  0.72154  0.40230  0.67020  1.0000
  H   H648      1.0  0.72025  0.33883  0.68183  1.0000
  C   C367      1.0  0.97077  0.36669  0.65896  1.0000
  S   S81       1.0  0.87308  0.19590  0.66109  1.0000
  S   S82       1.0  0.52560  0.99728  0.84264  1.0000
  H   H649      1.0  0.58654  0.01768  0.97073  1.0000
  H   H650      1.0  0.75605  0.99763  0.87046  1.0000
  C   C368      1.0  0.51878  0.05878  0.97943  1.0000
  H   H651      1.0  0.78438  0.04233  0.85373  1.0000
  H   H652      1.0  0.72452  0.27757  0.66822  1.0000
  H   H653      1.0  0.95949  0.22999  0.70169  1.0000
  H   H654      1.0  0.65544  0.36438  0.66345  1.0000
  C   C369      1.0  0.72930  0.00256  0.83555  1.0000
  C   C370      1.0  0.97114  0.25331  0.71596  1.0000
  H   H655      1.0  0.76591  0.01311  0.80215  1.0000
  H   H656      1.0  0.75736  0.38925  0.65608  1.0000
  H   H657      1.0  0.94124  0.34290  0.65411  1.0000
  H   H658      1.0  0.79056  0.27875  0.65086  1.0000
  H   H659      1.0  0.47869  0.08981  0.93179  1.0000
  Fe  Fe44      1.0  0.48622  0.72935  0.04509  1.0000
  H   H660      1.0  0.70139  0.52317  0.23228  1.0000
  H   H661      1.0  0.54109  0.84275  0.10946  1.0000
  H   H662      1.0  0.58288  0.90077  0.07250  1.0000
  H   H663      1.0  0.51091  0.89376  0.00551  1.0000
  C   C371      1.0  0.53612  0.95751  0.99928  1.0000
  C   C372      1.0  0.53246  0.54930  0.30930  1.0000
  S   S83       1.0  0.56672  0.57211  0.23765  1.0000
  H   H664      1.0  0.50899  0.52988  0.10204  1.0000
  Fe  Fe45      1.0  0.50615  0.56717  0.22616  1.0000
  H   H665      1.0  0.52159  0.64982  0.15158  1.0000
  S   S84       1.0  0.52662  0.79074  0.03299  1.0000
  H   H666      1.0  0.54870  0.92055  0.04010  1.0000
  H   H667      1.0  0.63635  0.92766  0.07635  1.0000
  N   N23       1.0  0.56916  0.97435  0.01840  1.0000
  C   C373      1.0  0.56717  0.56480  0.26975  1.0000
  C   C374      1.0  0.53309  0.55806  0.28401  1.0000
  C   C375      1.0  0.60082  0.56323  0.28095  1.0000
  S   S85       1.0  0.50988  0.69240  0.06713  1.0000
  H   H668      1.0  0.62736  0.56877  0.27004  1.0000
  H   H669      1.0  0.53869  0.78220  0.08790  1.0000
  C   C376      1.0  0.55134  0.79078  0.10679  1.0000
  C   C377      1.0  0.49001  0.91666  0.15650  1.0000
  H   H670      1.0  0.58423  0.80838  0.10511  1.0000
  S   S86       1.0  0.48405  0.85694  0.06688  1.0000
  C   C378      1.0  0.49237  0.79420  0.17759  1.0000
  H   H671      1.0  0.51047  0.78092  0.16817  1.0000
  H   H672      1.0  0.48932  0.58552  0.10003  1.0000
  H   H673      1.0  0.61477  0.52456  0.23268  1.0000
  Fe  Fe46      1.0  0.49471  0.77362  0.99653  1.0000
  C   C379      1.0  0.57613  0.94171  0.03074  1.0000
  H   H674      1.0  0.54116  0.66322  0.10717  1.0000
  H   H675      1.0  0.54594  0.76383  0.11758  1.0000
  H   H676      1.0  0.53612  0.56764  0.12424  1.0000
  C   C380      1.0  0.59985  0.55368  0.30618  1.0000
  C   C381      1.0  0.51619  0.66822  0.11428  1.0000
  C   C382      1.0  0.50505  0.66048  0.13936  1.0000
  S   S87       1.0  0.48294  0.61055  0.23864  1.0000
  H   H677      1.0  0.61681  0.89931  0.04859  1.0000
  H   H678      1.0  0.68693  0.55666  0.24940  1.0000
  C   C383      1.0  0.50606  0.54474  0.11921  1.0000
  C   C384      1.0  0.68754  0.52739  0.24969  1.0000
  H   H679      1.0  0.54536  0.82181  0.13863  1.0000
  H   H680      1.0  0.57741  0.84986  0.99114  1.0000
  H   H681      1.0  0.49748  0.93035  0.13780  1.0000
  C   C385      1.0  0.54178  0.48146  0.16543  1.0000
  C   C386      1.0  0.61009  0.95420  0.05028  1.0000
  H   H682      1.0  0.59608  0.51289  0.18564  1.0000
  H   H683      1.0  0.58269  0.92395  0.01643  1.0000
  C   C387      1.0  0.48447  0.85191  0.13919  1.0000
  C   C388      1.0  0.50060  0.91761  0.00556  1.0000
  C   C389      1.0  0.57200  0.48252  0.18519  1.0000
  H   H684      1.0  0.63977  0.97110  0.04150  1.0000
  C   C390      1.0  0.61154  0.91822  0.06265  1.0000
  C   C391      1.0  0.53226  0.81477  0.11984  1.0000
  H   H685      1.0  0.55747  0.49234  0.14751  1.0000
  C   C392      1.0  0.64514  0.49508  0.25278  1.0000
  H   H686      1.0  0.49534  0.52302  0.13458  1.0000
  H   H687      1.0  0.62265  0.91961  0.98331  1.0000
  H   H688      1.0  0.50703  0.55926  0.27554  1.0000
  H   H689      1.0  0.63382  0.49752  0.21384  1.0000
  C   C393      1.0  0.49552  0.68297  0.09849  1.0000
  H   H690      1.0  0.52578  0.95222  0.06327  1.0000
  S   S88       1.0  0.49065  0.56939  0.18606  1.0000
  H   H691      1.0  0.48744  0.91789  0.02393  1.0000
  H   H692      1.0  0.51449  0.86075  0.14761  1.0000
  C   C394      1.0  0.61732  0.49611  0.23139  1.0000
  H   H693      1.0  0.49609  0.97075  0.04511  1.0000
  C   C395      1.0  0.48032  0.77404  0.20284  1.0000
  H   H694      1.0  0.51820  0.92173  0.16648  1.0000
  H   H695      1.0  0.63385  0.49994  0.27099  1.0000
  H   H696      1.0  0.70636  0.52642  0.26556  1.0000
  H   H697      1.0  0.54499  0.49613  0.21717  1.0000
  H   H698      1.0  0.52666  0.50033  0.17096  1.0000
  H   H699      1.0  0.60526  0.97222  0.06506  1.0000
  H   H700      1.0  0.56060  0.49088  0.26072  1.0000
  H   H701      1.0  0.51112  0.82577  0.18094  1.0000
  H   H702      1.0  0.50767  0.77861  0.21361  1.0000
  C   C396      1.0  0.48579  0.79234  0.12031  1.0000
  H   H703      1.0  0.62577  0.55222  0.31471  1.0000
  H   H704      1.0  0.49023  0.86525  0.12030  1.0000
  S   S89       1.0  0.56402  0.53512  0.35199  1.0000
  H   H705      1.0  0.48256  0.57553  0.34660  1.0000
  S   S90       1.0  0.88211  0.54443  0.58390  1.0000
  C   C397      1.0  0.87129  0.52600  0.44799  1.0000
  H   H706      1.0  0.67516  0.61018  0.42455  1.0000
  N   N24       1.0  0.61816  0.51595  0.47557  1.0000
  C   C398      1.0  0.89581  0.53788  0.61419  1.0000
  H   H707      1.0  0.66315  0.52484  0.43168  1.0000
  H   H708      1.0  0.87174  0.51873  0.46793  1.0000
  H   H709      1.0  0.50579  0.54324  0.32007  1.0000
  H   H710      1.0  0.69420  0.56564  0.45026  1.0000
  H   H711      1.0  0.63493  0.57629  0.46399  1.0000
  H   H712      1.0  0.53098  0.48232  0.47728  1.0000
  S   S91       1.0  0.71824  0.50496  0.40176  1.0000
  Fe  Fe47      1.0  0.84683  0.49011  0.56172  1.0000
  C   C399      1.0  0.66597  0.55302  0.43940  1.0000
  H   H713      1.0  0.73505  0.58740  0.52303  1.0000
  H   H714      1.0  0.77546  0.53405  0.44109  1.0000
  H   H715      1.0  0.51724  0.50266  0.51888  1.0000
  H   H716      1.0  0.90176  0.54788  0.44273  1.0000
  H   H717      1.0  0.49182  0.51549  0.49431  1.0000
  C   C400      1.0  0.92392  0.57019  0.62700  1.0000
  C   C401      1.0  0.54749  0.51339  0.48298  1.0000
  H   H718      1.0  0.77606  0.51053  0.48411  1.0000
  H   H719      1.0  0.48023  0.57457  0.39009  1.0000
  C   C402      1.0  0.97213  0.48132  0.61013  1.0000
  H   H720      1.0  0.93713  0.59860  0.61809  1.0000
  H   H721      1.0  0.64352  0.56893  0.40562  1.0000
  Fe  Fe48      1.0  0.59294  0.49403  0.35826  1.0000
  C   C403      1.0  0.67050  0.58075  0.41770  1.0000
  C   C404      1.0  0.87853  0.50128  0.62587  1.0000
  H   H722      1.0  0.68563  0.58361  0.49065  1.0000
  C   C405      1.0  0.62914  0.54727  0.45577  1.0000
  C   C406      1.0  0.67902  0.55802  0.50295  1.0000
  H   H723      1.0  0.69687  0.58383  0.40630  1.0000
  H   H724      1.0  0.48989  0.58755  0.43486  1.0000
  H   H725      1.0  0.95295  0.53528  0.57622  1.0000
  H   H726      1.0  0.60337  0.54074  0.44295  1.0000
  C   C407      1.0  0.52172  0.52171  0.50234  1.0000
  H   H727      1.0  0.73829  0.55970  0.49657  1.0000
  H   H728      1.0  0.95687  0.54827  0.50738  1.0000
  H   H729      1.0  0.67524  0.51221  0.47697  1.0000
  C   C408      1.0  0.58950  0.52138  0.49356  1.0000
  H   H730      1.0  0.64634  0.49572  0.50417  1.0000
  C   C409      1.0  0.75069  0.49495  0.47215  1.0000
  H   H731      1.0  0.53598  0.55295  0.50811  1.0000
  H   H732      1.0  0.66189  0.56090  0.51921  1.0000
  H   H733      1.0  0.71409  0.53460  0.52471  1.0000
  C   C410      1.0  0.65475  0.51863  0.48952  1.0000
  H   H734      1.0  0.60253  0.55199  0.50070  1.0000
  H   H735      1.0  0.55013  0.53227  0.46664  1.0000
  C   C411      1.0  0.71899  0.55993  0.51239  1.0000
  C   C412      1.0  0.71762  0.48817  0.43221  1.0000
  S   S92       1.0  0.65203  0.49887  0.34377  1.0000
  H   H736      1.0  0.76790  0.48255  0.35545  1.0000
  H   H737      1.0  0.84979  0.53933  0.44519  1.0000
  C   C413      1.0  0.75027  0.50829  0.44786  1.0000
  H   H738      1.0  0.92719  0.54452  0.53474  1.0000
  H   H739      1.0  0.58529  0.50272  0.51032  1.0000
  C   C414      1.0  0.94978  0.53574  0.52637  1.0000
  S   S93       1.0  0.83767  0.49827  0.52120  1.0000
  H   H740      1.0  0.93683  0.50338  0.52488  1.0000
  H   H741      1.0  0.86130  0.49843  0.41244  1.0000
  C   C415      1.0  0.56569  0.54690  0.32041  1.0000
  C   C416      1.0  0.85973  0.48923  0.43209  1.0000
  H   H742      1.0  0.78922  0.48281  0.39866  1.0000
  H   H743      1.0  0.96837  0.49990  0.56517  1.0000
  H   H744      1.0  0.81726  0.48346  0.35660  1.0000
  H   H745      1.0  0.50197  0.63433  0.32032  1.0000
  H   H746      1.0  0.96081  0.47910  0.64986  1.0000
  H   H747      1.0  0.58864  0.97423  0.81224  1.0000
  H   H748      1.0  0.73045  0.97722  0.76748  1.0000
  C   C417      1.0  0.57654  0.86313  0.97348  1.0000
  H   H749      1.0  0.64840  0.89923  0.76120  1.0000
  H   H750      1.0  0.71082  0.97062  0.83501  1.0000
  H   H751      1.0  0.91251  0.52521  0.75584  1.0000
  H   H752      1.0  0.95544  0.59134  0.66150  1.0000
  C   C418      1.0  0.48624  0.88575  0.86676  1.0000
  C   C419      1.0  0.60131  0.92008  0.94622  1.0000
  H   H753      1.0  0.94088  0.52804  0.78357  1.0000
  C   C420      1.0  0.60189  0.90267  0.96910  1.0000
  C   C421      1.0  0.91577  0.52994  0.66358  1.0000
  H   H754      1.0  0.68166  0.97146  0.76005  1.0000
  H   H755      1.0  0.57555  0.91079  0.90964  1.0000
  H   H756      1.0  0.49883  0.67463  0.93329  1.0000
  S   S94       1.0  0.92365  0.52567  0.69536  1.0000
  C   C422      1.0  0.51065  0.92527  0.86182  1.0000
  H   H757      1.0  0.53365  0.83967  0.91648  1.0000
  H   H758      1.0  0.54150  0.93809  0.86796  1.0000
  S   S95       1.0  0.52360  0.78970  0.95889  1.0000
  C   C423      1.0  0.67327  0.90086  0.77351  1.0000
  H   H759      1.0  0.49854  0.86816  0.87648  1.0000
  C   C424      1.0  0.91159  0.51167  0.77432  1.0000
  H   H760      1.0  0.54854  0.95209  0.98149  1.0000
  C   C425      1.0  0.55198  0.85744  0.93138  1.0000
  C   C426      1.0  0.57580  0.89762  0.92744  1.0000
  C   C427      1.0  0.55210  0.84024  0.95447  1.0000
  H   H761      1.0  0.69912  0.90278  0.76199  1.0000
  C   C428      1.0  0.70207  0.97499  0.77601  1.0000
  C   C429      1.0  0.68564  0.93614  0.79086  1.0000
  H   H762      1.0  0.65894  0.93209  0.80210  1.0000
  H   H763      1.0  0.70950  0.93528  0.80308  1.0000
  H   H764      1.0  0.66267  0.87344  0.78464  1.0000
  C   C430      1.0  0.49526  0.94781  0.84861  1.0000
  H   H765      1.0  0.88788  0.51449  0.78584  1.0000
  S   S96       1.0  0.63439  0.96946  0.94162  1.0000
  C   C431      1.0  0.93436  0.56612  0.65153  1.0000
  H   H766      1.0  0.62720  0.97743  0.77360  1.0000
  H   H767      1.0  0.48273  0.95770  0.93755  1.0000
  H   H768      1.0  0.80094  0.49805  0.65015  1.0000
  C   C432      1.0  0.88813  0.49751  0.65066  1.0000
