data_image0
_chemical_formula_structural       FeS2FeS2FeSFeS3CFeS2CH2FeSCHSCFeS2FeS2FeSFeS3H3FeS2FeSFeHS2CHCFeH2S2H3C2HCH2C7H4C6H5C2H3CHC6H6NC8H4C6H4C6H4C6H4CNC12H28NC4SC3HCH7CH14CH2C2HFeC3H11SH2CH3CH4C6H2SC2H2NC8H2CH18CHCSH5CSHC2H3C2H7CH16CHCHCHCSH2C2HCH3CH2CHC2H2CH2CNCH4SHNH5FeH4CH2C2H3C2H4CH4CHCH4SH3SC3H2C3HCHNH2FeHNH2CFeH6CHC2HCH6CHCHNCHCH8NSH2CHSH2C6H3CH4C2HCH3CHCH4CFeHCHCH4SHC2H2CHFeH9C2H4SHCH4C2H3CH2C4H2CH6C2H2CH3SHNHCHSH5C2H2CH2CHCHCFeS2FeS2FeSFeS3H2CFe2CSH4SCSH2CSCHCSCHCFeHC2H8CH2SH6CHS2H3FeCHCHCH3C7H4C3H2C3HCHCHC2HCH2NC12H29CH4C2HCNHCH3C2H2CH12CH6FeC2H6CH5CHCHCHCHCHCH4NC9HCH4CHCH2C2NSHC4H2C2HCHFeHCSH7CH6CFeS3CFeSHFeSFeS2H2CHCH7CSH3CHC6H5SFeCH2CHC2H3CH2C3HCHCH2CHCHNHC3HCSH3FeH2NH2C2H4SCHCH2C3HCHCHCHCFeH3CH9SC2HCH7CHC2NCHCH3CH2CH7C3H2C2H8SHNCHC3HCHC2H7C2HC4H3CH3SHC2H3C2H2CH2CH2C2HC3H5C2H6CH2CSH3C2H3CH2CHNCFeH5C2HCH4SCH2CH5CHCH5CH3CHC2H2SCFeS2FeHFeSHSFeS2FeHFe2S5FeSFeCFeS2FeS2FeSFeS3FeS2FeHSH2FeS4CH2C6H4C6H4C2HCHC6H4C6H6C2SH2CHC7H4SCH2CFeNC6H15C3H11CHCSCH2CHCHCH2FeH5FeCH3CHCH8C2H4CH4CHC2H9SCH5C2HNHSCSH6C2H3CSH13NH2CHCH3CH3C3H7C2HCSC3H2CH3CH2C2HSHCHC9H10CH2CHCH3CH2NC2HCH3C3HC3H2CH2CNCHCH4C3H2FeCHNH2CH3C2HC3HCH3CH4CH2CHCHC2H3NHC2H2SH2CHSNCHCH2CH6CH6C2H4CHCHSFeS2H4C2HCH2CH4C3H2C2HCH3CH2CH3CHCH2CH15CFeHCHCHCHCHCHCH5CH4C2H2CHC5HCH4CHNH2C2HCHCH6CH3CHFeSFeS3FeS2FeS2FeSFeS3FeSCHFeH2SFeS2FeSCFeSFeS3FeS2FeSHSHFeSHS2CHCH2C2HNHFeCHC4H2CHC3H2C6H4C6H4C6H4C6H4C6H4CSCH8SHCH3CH2C2H7CHFeC3H2NC12H16CH12CHCH2SH2CH4CHCHCH4NC12H28C5H9CH4NC4HC3HC3H7SHCH5SCHNCH4NCH2CH3CH10SH6CHFeH3CH2CHCH2CHSCH4C2HSH2FeCFeH4NH5C2SNHCHCH5C3H2CH3CHC2HCH2C2HCH2NHC2H2C2H5C4H4CHS2HCH2CFeS2FeHSFeSHS2C2HSHCHCSC2H4SH2FeCHCH2CNCHCHCH6C2H7FeC6H6CH3C2HC2HC3H3CH2CH5C3H2SCH2CSH3CH2CHC2H4C4HCNH2CH2CH4CHCSC2H4CSCH5CHCH2C2HCHCH3CH3CH2CH7NH6C2H2C2HCH2C2H3C2H5CHCH2SH5CH2CHCH2C2H4CHCH2SC2HS2FeS2FeSFe2SCFeSFeS3C6H7CH4C3H3C2H9C2H2FeH3CH2CH2CHCSC2HCHCH7C2H2SHCSH2CH4SH3C2H2CH2FeH2C2NHC2H3CH5C3H5C2H2C2H2NHC2H3NH3FeC3H2C3HCSCHCH6C2H2NC11H8CH6CH2CSH3CHCNHCH3S2HC2H4FeH7CH2FeH4CH2CH2CHSH3C2FeS2FeS2FeSFeS3HCHC2HFeS2CHFeSHSFeS2FeS2FeSFeS3FeS2H3FeS2C6H4CH3C6H4C7H4CH2C6H4C6H4C6H4C6H6C2H3NCSHCHCH2CHCHCH2CH3C2HNHCHCNH3CH4CH2C2SH2CH4FeSC2HC3H2C3H4SCH2CH4C2H4CH6SH2C6H14CH6CH3C2H2CH3CH5C2H2FeH2CH3CH2FeHCH3NCH2C3SH3C3NCH3CHCH3C3HCH2C2SH2S2HCHCH2CNCH2CHSCH3CH2FeSH3FeHSH2CH2CH5C2HNHCH3C3H4CH5SFeCHNH4C2HNHNC2H3CH5CH3CH4SHCH3CHCNH3CHCHCH2CH2CH4CHCH4C2H2CH6CH15CHC4H2SHFeSCH2CH3CH5NC3H2CH4CH3SH4C2HC2H2CH2FeCH5CH7CH3C5HC2HC2
_chemical_formula_sum              "Fe116 S232 C1044 H1856 N58"
_cell_length_a       56.8485
_cell_length_b       56.873
_cell_length_c       51.1384
_cell_angle_alpha    81.5112
_cell_angle_beta     82.4482
_cell_angle_gamma    81.0274

_space_group_name_H-M_alt    "P 1"
_space_group_IT_number       1

loop_
  _space_group_symop_operation_xyz
  'x, y, z'

loop_
  _atom_site_type_symbol
  _atom_site_label
  _atom_site_symmetry_multiplicity
  _atom_site_fract_x
  _atom_site_fract_y
  _atom_site_fract_z
  _atom_site_occupancy
  Fe  Fe1       1.0  0.10312  0.11777  0.14250  1.0000
  S   S1        1.0  0.08822  0.11517  0.18556  1.0000
  S   S2        1.0  0.09210  0.09900  0.11054  1.0000
  Fe  Fe2       1.0  0.13561  0.15465  0.14898  1.0000
  S   S3        1.0  0.12301  0.15521  0.19225  1.0000
  S   S4        1.0  0.16485  0.17534  0.12766  1.0000
  Fe  Fe3       1.0  0.12606  0.11527  0.19367  1.0000
  S   S5        1.0  0.14259  0.09213  0.22784  1.0000
  Fe  Fe4       1.0  0.08655  0.15525  0.18027  1.0000
  S   S6        1.0  0.05303  0.17739  0.19648  1.0000
  S   S7        1.0  0.14143  0.11443  0.15108  1.0000
  S   S8        1.0  0.09871  0.15817  0.13652  1.0000
  C   C1        1.0  0.03989  0.14395  0.11933  1.0000
  Fe  Fe5       1.0  0.20796  0.29020  0.15066  1.0000
  S   S9        1.0  0.21953  0.26843  0.18808  1.0000
  S   S10       1.0  0.17755  0.28314  0.12993  1.0000
  C   C2        1.0  0.17970  0.28960  0.37180  1.0000
  H   H1        1.0  0.13776  0.31753  0.32810  1.0000
  H   H2        1.0  0.14617  0.18759  0.22491  1.0000
  Fe  Fe6       1.0  0.25684  0.27078  0.16852  1.0000
  S   S11       1.0  0.28519  0.23867  0.17119  1.0000
  C   C3        1.0  0.08605  0.00450  0.04553  1.0000
  H   H3        1.0  0.40763  0.00954  0.41122  1.0000
  S   S12       1.0  0.24526  0.28925  0.12970  1.0000
  C   C4        1.0  0.13050  0.24932  0.22968  1.0000
  Fe  Fe7       1.0  0.27020  0.16457  0.29936  1.0000
  S   S13       1.0  0.28894  0.13369  0.27857  1.0000
  S   S14       1.0  0.28213  0.20094  0.29371  1.0000
  Fe  Fe8       1.0  0.23155  0.13630  0.32886  1.0000
  S   S15       1.0  0.24670  0.10314  0.31024  1.0000
  S   S16       1.0  0.20138  0.13537  0.36178  1.0000
  Fe  Fe9       1.0  0.28220  0.11152  0.31810  1.0000
  S   S17       1.0  0.30863  0.08214  0.33654  1.0000
  Fe  Fe10      1.0  0.25172  0.12851  0.27270  1.0000
  S   S18       1.0  0.24348  0.12375  0.23225  1.0000
  S   S19       1.0  0.26661  0.14296  0.33953  1.0000
  S   S20       1.0  0.23333  0.16121  0.29063  1.0000
  H   H4        1.0  0.04910  0.08381  0.20725  1.0000
  H   H5        1.0  0.38981  0.30589  0.17475  1.0000
  H   H6        1.0  0.17972  0.28918  0.28820  1.0000
  Fe  Fe11      1.0  0.07171  0.23323  0.32084  1.0000
  S   S21       1.0  0.10876  0.24083  0.30453  1.0000
  S   S22       1.0  0.05604  0.20142  0.31271  1.0000
  Fe  Fe12      1.0  0.11107  0.24813  0.34600  1.0000
  S   S23       1.0  0.14276  0.23800  0.36913  1.0000
  Fe  Fe13      1.0  0.09113  0.27917  0.29861  1.0000
  H   H7        1.0  0.17505  0.12712  0.29197  1.0000
  S   S24       1.0  0.07530  0.23754  0.36313  1.0000
  S   S25       1.0  0.05381  0.27102  0.31131  1.0000
  C   C5        1.0  0.32340  0.29594  0.15149  1.0000
  H   H8        1.0  0.28912  0.27634  0.30649  1.0000
  C   C6        1.0  0.13402  0.03518  0.11403  1.0000
  Fe  Fe14      1.0  0.99232  0.01966  0.09812  1.0000
  H   H9        1.0  0.37960  0.13374  0.38535  1.0000
  H   H10       1.0  0.48160  0.06281  0.32312  1.0000
  S   S26       1.0  0.34629  0.11542  0.43385  1.0000
  S   S27       1.0  0.38197  0.05050  0.44721  1.0000
  H   H11       1.0  0.12877  0.10956  0.32110  1.0000
  H   H12       1.0  0.02550  0.08061  0.23415  1.0000
  H   H13       1.0  0.36762  0.30916  0.13252  1.0000
  C   C7        1.0  0.25005  0.28240  0.31116  1.0000
  C   C8        1.0  0.20929  0.08675  0.43769  1.0000
  H   H14       1.0  0.37664  0.04343  0.29565  1.0000
  C   C9        1.0  0.46867  0.00850  0.40317  1.0000
  H   H15       1.0  0.24942  0.28180  0.28969  1.0000
  H   H16       1.0  0.99374  0.09654  0.09795  1.0000
  C   C10       1.0  0.08786  0.23171  0.16739  1.0000
  C   C11       1.0  0.18377  0.16336  0.36326  1.0000
  C   C12       1.0  0.17599  0.17097  0.38810  1.0000
  C   C13       1.0  0.16313  0.19389  0.38976  1.0000
  C   C14       1.0  0.15693  0.20872  0.36667  1.0000
  C   C15       1.0  0.16354  0.20062  0.34184  1.0000
  C   C16       1.0  0.17759  0.17817  0.34007  1.0000
  H   H17       1.0  0.18065  0.15950  0.40604  1.0000
  H   H18       1.0  0.15797  0.20013  0.40896  1.0000
  H   H19       1.0  0.15857  0.21203  0.32400  1.0000
  H   H20       1.0  0.18344  0.17222  0.32085  1.0000
  C   C17       1.0  0.32026  0.09121  0.36288  1.0000
  C   C18       1.0  0.32216  0.11537  0.36308  1.0000
  C   C19       1.0  0.33077  0.12257  0.38466  1.0000
  C   C20       1.0  0.33738  0.10566  0.40617  1.0000
  C   C21       1.0  0.33588  0.08141  0.40574  1.0000
  C   C22       1.0  0.32754  0.07416  0.38398  1.0000
  H   H21       1.0  0.31719  0.12852  0.34648  1.0000
  H   H22       1.0  0.33210  0.14133  0.38476  1.0000
  H   H23       1.0  0.34030  0.06835  0.42253  1.0000
  H   H24       1.0  0.32608  0.05544  0.38384  1.0000
  H   H25       1.0  0.03964  0.11229  0.16526  1.0000
  C   C23       1.0  0.47543  0.07963  0.33214  1.0000
  C   C24       1.0  0.11179  0.30291  0.15910  1.0000
  H   H26       1.0  0.12686  0.17109  0.36478  1.0000
  H   H27       1.0  0.99280  0.13895  0.10475  1.0000
  H   H28       1.0  0.07491  0.29035  0.47170  1.0000
  C   C25       1.0  0.25891  0.08723  0.45601  1.0000
  H   H29       1.0  0.16547  0.09326  0.34370  1.0000
  C   C26       1.0  0.28625  0.22831  0.20510  1.0000
  C   C27       1.0  0.27807  0.24399  0.22401  1.0000
  C   C28       1.0  0.27850  0.23584  0.25113  1.0000
  C   C29       1.0  0.28533  0.21153  0.25961  1.0000
  C   C30       1.0  0.29353  0.19575  0.24073  1.0000
  C   C31       1.0  0.29455  0.20426  0.21345  1.0000
  H   H30       1.0  0.27125  0.26243  0.21791  1.0000
  H   H31       1.0  0.27267  0.24828  0.26548  1.0000
  H   H32       1.0  0.29924  0.17703  0.24709  1.0000
  H   H33       1.0  0.30089  0.19200  0.19895  1.0000
  H   H34       1.0  0.05687  0.02772  0.02697  1.0000
  H   H35       1.0  0.09076  0.12670  0.31083  1.0000
  N   N1        1.0  0.12274  0.14263  0.29431  1.0000
  C   C32       1.0  0.04866  0.16413  0.09904  1.0000
  C   C33       1.0  0.10392  0.01576  0.09482  1.0000
  C   C34       1.0  0.05427  0.18523  0.22824  1.0000
  C   C35       1.0  0.03357  0.18611  0.24634  1.0000
  C   C36       1.0  0.03419  0.19163  0.27204  1.0000
  C   C37       1.0  0.05515  0.19760  0.27939  1.0000
  C   C38       1.0  0.07568  0.19773  0.26094  1.0000
  C   C39       1.0  0.07543  0.19079  0.23566  1.0000
  H   H36       1.0  0.01718  0.18181  0.24079  1.0000
  H   H37       1.0  0.01837  0.19125  0.28631  1.0000
  H   H38       1.0  0.09195  0.20222  0.26655  1.0000
  H   H39       1.0  0.09146  0.19018  0.22179  1.0000
  C   C40       1.0  0.17074  0.10050  0.22938  1.0000
  C   C41       1.0  0.18374  0.09116  0.25093  1.0000
  C   C42       1.0  0.20589  0.09868  0.25250  1.0000
  C   C43       1.0  0.21524  0.11505  0.23210  1.0000
  C   C44       1.0  0.20222  0.12419  0.21063  1.0000
  C   C45       1.0  0.17999  0.11709  0.20931  1.0000
  H   H40       1.0  0.17675  0.07801  0.26622  1.0000
  H   H41       1.0  0.21601  0.09131  0.26902  1.0000
  H   H42       1.0  0.20916  0.13708  0.19516  1.0000
  H   H43       1.0  0.17018  0.12436  0.19256  1.0000
  C   C46       1.0  0.16375  0.20575  0.13145  1.0000
  C   C47       1.0  0.15832  0.22326  0.11006  1.0000
  C   C48       1.0  0.16191  0.24706  0.11030  1.0000
  C   C49       1.0  0.17178  0.25340  0.13148  1.0000
  C   C50       1.0  0.17666  0.23610  0.15330  1.0000
  C   C51       1.0  0.17244  0.21230  0.15339  1.0000
  H   H44       1.0  0.15208  0.21825  0.09283  1.0000
  H   H45       1.0  0.15799  0.26038  0.09345  1.0000
  H   H46       1.0  0.18400  0.24098  0.16985  1.0000
  H   H47       1.0  0.17691  0.19877  0.16985  1.0000
  C   C52       1.0  0.06849  0.08134  0.11599  1.0000
  C   C53       1.0  0.05862  0.07628  0.09400  1.0000
  C   C54       1.0  0.03940  0.06278  0.09757  1.0000
  C   C55       1.0  0.02985  0.05434  0.12321  1.0000
  C   C56       1.0  0.04006  0.05896  0.14519  1.0000
  C   C57       1.0  0.05944  0.07224  0.14160  1.0000
  H   H48       1.0  0.06563  0.08315  0.07411  1.0000
  H   H49       1.0  0.03156  0.05949  0.08052  1.0000
  H   H50       1.0  0.03287  0.05233  0.16509  1.0000
  H   H51       1.0  0.06732  0.07551  0.15862  1.0000
  C   C58       1.0  0.39900  0.12802  0.38697  1.0000
  N   N2        1.0  0.24972  0.18567  0.13946  1.0000
  C   C59       1.0  0.25169  0.18442  0.16884  1.0000
  C   C60       1.0  0.27421  0.17930  0.12447  1.0000
  C   C61       1.0  0.24053  0.21136  0.12931  1.0000
  C   C62       1.0  0.23233  0.16985  0.13429  1.0000
  C   C63       1.0  0.23897  0.14263  0.14270  1.0000
  C   C64       1.0  0.22815  0.19050  0.18706  1.0000
  C   C65       1.0  0.23795  0.21678  0.09903  1.0000
  C   C66       1.0  0.29286  0.16112  0.13945  1.0000
  C   C67       1.0  0.31512  0.15371  0.12067  1.0000
  C   C68       1.0  0.21891  0.12885  0.13873  1.0000
  C   C69       1.0  0.23332  0.19025  0.21566  1.0000
  C   C70       1.0  0.23473  0.24376  0.08980  1.0000
  H   H52       1.0  0.26434  0.19659  0.17182  1.0000
  H   H53       1.0  0.25946  0.16622  0.17736  1.0000
  H   H54       1.0  0.27236  0.17240  0.10566  1.0000
  H   H55       1.0  0.28321  0.19566  0.11822  1.0000
  H   H56       1.0  0.25221  0.22370  0.13443  1.0000
  H   H57       1.0  0.22244  0.21698  0.13910  1.0000
  H   H58       1.0  0.21404  0.17574  0.14380  1.0000
  H   H59       1.0  0.23039  0.17177  0.11271  1.0000
  H   H60       1.0  0.24234  0.13862  0.16385  1.0000
  H   H61       1.0  0.25522  0.13560  0.13014  1.0000
  H   H62       1.0  0.21870  0.20859  0.18097  1.0000
  H   H63       1.0  0.21594  0.17708  0.18714  1.0000
  H   H64       1.0  0.22182  0.20982  0.09476  1.0000
  H   H65       1.0  0.25374  0.20855  0.08675  1.0000
  H   H66       1.0  0.29877  0.16951  0.15534  1.0000
  H   H67       1.0  0.28548  0.14461  0.14886  1.0000
  H   H68       1.0  0.32834  0.14123  0.13208  1.0000
  H   H69       1.0  0.31036  0.14436  0.10492  1.0000
  H   H70       1.0  0.32360  0.16969  0.11131  1.0000
  H   H71       1.0  0.20183  0.13539  0.15032  1.0000
  H   H72       1.0  0.21603  0.13105  0.11739  1.0000
  H   H73       1.0  0.22374  0.10945  0.14564  1.0000
  H   H74       1.0  0.21637  0.19033  0.22912  1.0000
  H   H75       1.0  0.24568  0.17402  0.22233  1.0000
  H   H76       1.0  0.24158  0.20635  0.21727  1.0000
  H   H77       1.0  0.21925  0.25302  0.10170  1.0000
  H   H78       1.0  0.25116  0.25137  0.09174  1.0000
  H   H79       1.0  0.23131  0.24719  0.06859  1.0000
  N   N3        1.0  0.22390  0.24810  0.32724  1.0000
  C   C71       1.0  0.24710  0.25774  0.32799  1.0000
  C   C72       1.0  0.22427  0.22340  0.34317  1.0000
  C   C73       1.0  0.22217  0.24568  0.29859  1.0000
  C   C74       1.0  0.20232  0.26494  0.33672  1.0000
  S   S28       1.0  0.40602  0.09510  0.46350  1.0000
  C   C75       1.0  0.20163  0.23268  0.29318  1.0000
  C   C76       1.0  0.23782  0.21838  0.36830  1.0000
  C   C77       1.0  0.23157  0.19557  0.38586  1.0000
  H   H80       1.0  0.13657  0.16640  0.31639  1.0000
  C   C78       1.0  0.20443  0.22882  0.26402  1.0000
  H   H81       1.0  0.26248  0.24450  0.32114  1.0000
  H   H82       1.0  0.24987  0.25967  0.34856  1.0000
  H   H83       1.0  0.20563  0.21935  0.34914  1.0000
  H   H84       1.0  0.23312  0.20925  0.33069  1.0000
  H   H85       1.0  0.23914  0.23570  0.29012  1.0000
  H   H86       1.0  0.21979  0.26356  0.28630  1.0000
  H   H87       1.0  0.12415  0.29094  0.19765  1.0000
  C   C79       1.0  0.46299  0.00580  0.45121  1.0000
  H   H88       1.0  0.07270  0.25628  0.44530  1.0000
  H   H89       1.0  0.18387  0.24339  0.29761  1.0000
  H   H90       1.0  0.20194  0.21471  0.30498  1.0000
  H   H91       1.0  0.25747  0.21586  0.36221  1.0000
  H   H92       1.0  0.23366  0.23318  0.38069  1.0000
  H   H93       1.0  0.23539  0.17995  0.37447  1.0000
  H   H94       1.0  0.24229  0.19192  0.40297  1.0000
  H   H95       1.0  0.21236  0.19798  0.39379  1.0000
  H   H96       1.0  0.37554  0.07486  0.28203  1.0000
  H   H97       1.0  0.04918  0.28267  0.24648  1.0000
  H   H98       1.0  0.18978  0.21936  0.26037  1.0000
  H   H99       1.0  0.20389  0.24628  0.25091  1.0000
  H   H100      1.0  0.22183  0.21764  0.25917  1.0000
  H   H101      1.0  0.22197  0.11936  0.44232  1.0000
  C   C80       1.0  0.03309  0.09350  0.21797  1.0000
  H   H102      1.0  0.14045  0.18891  0.27385  1.0000
  H   H103      1.0  0.11937  0.26533  0.23680  1.0000
  C   C81       1.0  0.36015  0.27280  0.17066  1.0000
  C   C82       1.0  0.34795  0.24973  0.17358  1.0000
  H   H104      1.0  0.30532  0.28244  0.20307  1.0000
  Fe  Fe15      1.0  0.36953  0.08738  0.45830  1.0000
  C   C83       1.0  0.13822  0.11964  0.30359  1.0000
  C   C84       1.0  0.46025  0.01908  0.42625  1.0000
  C   C85       1.0  0.36519  0.22726  0.18187  1.0000
  H   H105      1.0  0.17140  0.16417  0.22903  1.0000
  H   H106      1.0  0.09610  0.21612  0.18036  1.0000
  H   H107      1.0  0.04475  0.24433  0.44826  1.0000
  H   H108      1.0  0.29523  0.06779  0.44681  1.0000
  H   H109      1.0  0.06996  0.27997  0.18980  1.0000
  H   H110      1.0  0.17783  0.29188  0.39321  1.0000
  H   H111      1.0  0.10449  0.12846  0.25013  1.0000
  H   H112      1.0  0.37434  0.27120  0.15352  1.0000
  H   H113      1.0  0.37006  0.27179  0.18828  1.0000
  H   H114      1.0  0.34197  0.24752  0.15439  1.0000
  H   H115      1.0  0.33203  0.25011  0.18849  1.0000
  S   S29       1.0  0.26062  0.30455  0.18418  1.0000
  H   H116      1.0  0.34551  0.27789  0.11932  1.0000
  H   H117      1.0  0.14701  0.03380  0.09591  1.0000
  C   C86       1.0  0.17532  0.09811  0.32388  1.0000
  H   H118      1.0  0.25061  0.10051  0.46965  1.0000
  H   H119      1.0  0.08840  0.15068  0.34169  1.0000
  H   H120      1.0  0.16003  0.26870  0.20996  1.0000
  C   C87       1.0  0.01433  0.10381  0.19902  1.0000
  H   H121      1.0  0.37083  0.22800  0.20170  1.0000
  H   H122      1.0  0.35601  0.21116  0.18327  1.0000
  H   H123      1.0  0.38124  0.22542  0.16700  1.0000
  H   H124      1.0  0.29333  0.31692  0.22879  1.0000
  C   C88       1.0  0.05542  0.29647  0.47091  1.0000
  C   C89       1.0  0.16068  0.17984  0.23754  1.0000
  C   C90       1.0  0.30921  0.28672  0.10942  1.0000
  C   C91       1.0  0.01853  0.15378  0.13871  1.0000
  C   C92       1.0  0.27428  0.28984  0.31366  1.0000
  C   C93       1.0  0.11936  0.16058  0.31398  1.0000
  H   H125      1.0  0.26532  0.13375  0.45104  1.0000
  H   H126      1.0  0.16199  0.25727  0.24414  1.0000
  S   S30       1.0  0.09846  0.30554  0.26248  1.0000
  C   C94       1.0  0.16339  0.12199  0.31042  1.0000
  C   C95       1.0  0.07147  0.25472  0.22590  1.0000
  H   H127      1.0  0.45374  0.09869  0.42537  1.0000
  H   H128      1.0  0.27943  0.06971  0.40947  1.0000
  N   N4        1.0  0.40844  0.06967  0.35278  1.0000
  C   C96       1.0  0.43549  0.06584  0.35043  1.0000
  C   C97       1.0  0.39931  0.05160  0.37490  1.0000
  C   C98       1.0  0.40088  0.06658  0.32645  1.0000
  C   C99       1.0  0.39827  0.09449  0.35937  1.0000
  C   C100      1.0  0.40561  0.10116  0.38525  1.0000
  C   C101      1.0  0.44821  0.08597  0.33315  1.0000
  C   C102      1.0  0.37356  0.06798  0.32536  1.0000
  C   C103      1.0  0.40485  0.02497  0.36989  1.0000
  H   H129      1.0  0.04780  0.27298  0.42887  1.0000
  H   H130      1.0  0.19641  0.25324  0.37943  1.0000
  C   C104      1.0  0.36847  0.06203  0.29863  1.0000
  H   H131      1.0  0.44273  0.04891  0.34196  1.0000
  H   H132      1.0  0.44198  0.06311  0.37034  1.0000
  H   H133      1.0  0.40714  0.05271  0.39341  1.0000
  H   H134      1.0  0.37962  0.05595  0.38003  1.0000
  H   H135      1.0  0.40988  0.04926  0.31989  1.0000
  H   H136      1.0  0.40696  0.08068  0.31066  1.0000
  H   H137      1.0  0.40271  0.10833  0.34240  1.0000
  H   H138      1.0  0.37834  0.09659  0.36211  1.0000
  H   H139      1.0  0.42509  0.09660  0.38670  1.0000
  H   H140      1.0  0.39606  0.09139  0.40287  1.0000
  H   H141      1.0  0.44350  0.08868  0.31245  1.0000
  H   H142      1.0  0.44328  0.10324  0.34148  1.0000
  H   H143      1.0  0.36438  0.08640  0.32754  1.0000
  H   H144      1.0  0.36538  0.05524  0.34118  1.0000
  H   H145      1.0  0.39513  0.02182  0.35355  1.0000
  H   H146      1.0  0.42430  0.01963  0.36461  1.0000
  H   H147      1.0  0.40033  0.98946  0.39031  1.0000
  H   H148      1.0  0.29547  0.28857  0.24991  1.0000
  C   C105      1.0  0.35873  0.31527  0.15155  1.0000
  H   H149      1.0  0.40955  0.13855  0.37086  1.0000
  C   C106      1.0  0.04715  0.26643  0.23772  1.0000
  S   S31       1.0  0.00751  0.01822  0.05551  1.0000
  H   H150      1.0  0.40292  0.13197  0.40646  1.0000
  H   H151      1.0  0.13111  0.99769  0.12118  1.0000
  H   H152      1.0  0.23590  0.29666  0.31791  1.0000
  H   H153      1.0  0.18326  0.30688  0.35983  1.0000
  H   H154      1.0  0.10495  0.21581  0.13214  1.0000
  C   C107      1.0  0.10753  0.15231  0.34226  1.0000
  S   S32       1.0  0.00442  0.03920  0.12880  1.0000
  H   H155      1.0  0.31247  0.28178  0.16082  1.0000
  C   C108      1.0  0.98966  0.16436  0.19243  1.0000
  C   C109      1.0  0.31904  0.28840  0.21293  1.0000
  H   H156      1.0  0.20133  0.28247  0.32379  1.0000
  H   H157      1.0  0.14417  0.03433  0.13137  1.0000
  H   H158      1.0  0.09775  0.16539  0.38056  1.0000
  C   C110      1.0  0.18334  0.09855  0.43625  1.0000
  C   C111      1.0  0.11876  0.01477  0.11855  1.0000
  H   H159      1.0  0.05678  0.99590  0.02657  1.0000
  H   H160      1.0  0.23245  0.08549  0.38329  1.0000
  H   H161      1.0  0.05506  0.13545  0.13058  1.0000
  H   H162      1.0  0.07520  0.20867  0.14370  1.0000
  H   H163      1.0  0.27584  0.29171  0.33466  1.0000
  H   H164      1.0  0.17104  0.08494  0.44299  1.0000
  H   H165      1.0  0.11687  0.13487  0.35087  1.0000
  C   C112      1.0  0.04385  0.27337  0.47181  1.0000
  H   H166      1.0  0.05423  0.30725  0.45095  1.0000
  H   H167      1.0  0.01465  0.10497  0.13518  1.0000
  H   H168      1.0  0.08172  0.30331  0.38830  1.0000
  H   H169      1.0  0.28178  0.15941  0.39597  1.0000
  H   H170      1.0  0.27721  0.17222  0.42685  1.0000
  H   H171      1.0  0.27665  0.04878  0.37010  1.0000
  H   H172      1.0  0.26181  0.09262  0.37061  1.0000
  H   H173      1.0  0.06124  0.01992  0.07655  1.0000
  H   H174      1.0  0.45643  0.01383  0.46907  1.0000
  H   H175      1.0  0.19397  0.09975  0.32677  1.0000
  H   H176      1.0  0.03851  0.10813  0.22702  1.0000
  H   H177      1.0  0.11107  0.22732  0.21230  1.0000
  H   H178      1.0  0.17259  0.19356  0.23720  1.0000
  H   H179      1.0  0.14132  0.10737  0.28804  1.0000
  H   H180      1.0  0.09739  0.01909  0.04208  1.0000
  H   H181      1.0  0.18555  0.25782  0.33485  1.0000
  C   C113      1.0  0.28169  0.15522  0.41792  1.0000
  H   H182      1.0  0.26243  0.12204  0.39460  1.0000
  C   C114      1.0  0.14383  0.29654  0.27729  1.0000
  H   H183      1.0  0.24671  0.04208  0.38235  1.0000
  C   C115      1.0  0.48348  0.08449  0.46620  1.0000
  H   H184      1.0  0.07119  0.10513  0.25291  1.0000
  C   C116      1.0  0.08674  0.22312  0.14070  1.0000
  S   S33       1.0  0.20985  0.30827  0.24330  1.0000
  H   H185      1.0  0.00525  0.16573  0.12684  1.0000
  H   H186      1.0  0.34881  0.06339  0.29819  1.0000
  C   C117      1.0  0.25188  0.07914  0.38348  1.0000
  C   C118      1.0  0.25724  0.05584  0.37088  1.0000
  H   H187      1.0  0.28666  0.10880  0.41228  1.0000
  C   C119      1.0  0.16850  0.29758  0.27310  1.0000
  H   H188      1.0  0.14218  0.13928  0.25520  1.0000
  H   H189      1.0  0.02583  0.16590  0.14986  1.0000
  H   H190      1.0  0.37770  0.01299  0.40124  1.0000
  C   C120      1.0  0.26723  0.11565  0.41504  1.0000
  H   H191      1.0  0.03934  0.25353  0.25377  1.0000
  H   H192      1.0  0.25232  0.05924  0.35023  1.0000
  C   C121      1.0  0.15682  0.25328  0.22528  1.0000
  H   H193      1.0  0.17594  0.08350  0.31153  1.0000
  C   C122      1.0  0.25967  0.07497  0.41197  1.0000
  C   C123      1.0  0.26347  0.13832  0.42953  1.0000
  H   H194      1.0  0.30303  0.26987  0.11996  1.0000
  H   H195      1.0  0.31071  0.31296  0.15187  1.0000
  C   C124      1.0  0.05289  0.26103  0.44706  1.0000
  H   H196      1.0  0.06864  0.23840  0.21819  1.0000
  H   H197      1.0  0.13625  0.28718  0.29561  1.0000
  C   C125      1.0  0.12138  0.24241  0.20488  1.0000
  N   N5        1.0  0.25312  0.09584  0.42790  1.0000
  C   C126      1.0  0.22682  0.10546  0.42860  1.0000
  H   H198      1.0  0.21689  0.27534  0.37065  1.0000
  H   H199      1.0  0.21254  0.07216  0.42493  1.0000
  H   H200      1.0  0.24532  0.14837  0.42722  1.0000
  H   H201      1.0  0.08270  0.24924  0.24253  1.0000
  S   S34       1.0  0.03393  0.29908  0.37733  1.0000
  H   H202      1.0  0.06913  0.23718  0.17573  1.0000
  N   N6        1.0  0.10669  0.26233  0.18863  1.0000
  H   H203      1.0  0.10708  0.10238  0.27485  1.0000
  H   H204      1.0  0.29499  0.09759  0.45481  1.0000
  H   H205      1.0  0.33074  0.27235  0.22144  1.0000
  H   H206      1.0  0.34908  0.30716  0.20483  1.0000
  H   H207      1.0  0.22266  0.11508  0.40882  1.0000
  Fe  Fe16      1.0  0.06106  0.27625  0.35202  1.0000
  H   H208      1.0  0.10013  0.18872  0.35279  1.0000
  H   H209      1.0  0.16850  0.23696  0.21938  1.0000
  H   H210      1.0  0.06263  0.10949  0.28726  1.0000
  H   H211      1.0  0.13997  0.27529  0.17175  1.0000
  C   C127      1.0  0.99883  0.11690  0.14330  1.0000
  H   H212      1.0  0.10692  0.01663  0.13742  1.0000
  H   H213      1.0  0.05357  0.17834  0.10922  1.0000
  C   C128      1.0  0.17874  0.30863  0.24896  1.0000
  C   C129      1.0  0.12167  0.28246  0.18015  1.0000
  H   H214      1.0  0.11964  0.24808  0.15168  1.0000
  H   H215      1.0  0.25242  0.05875  0.42290  1.0000
  H   H216      1.0  0.09194  0.26755  0.15081  1.0000
  C   C130      1.0  0.02422  0.12232  0.17646  1.0000
  C   C131      1.0  0.15024  0.17240  0.26614  1.0000
  H   H217      1.0  0.11824  0.16318  0.25557  1.0000
  H   H218      1.0  0.12886  0.23439  0.24622  1.0000
  H   H219      1.0  0.11701  0.01591  0.07664  1.0000
  H   H220      1.0  0.13695  0.23416  0.19212  1.0000
  C   C132      1.0  0.10815  0.17056  0.36118  1.0000
  H   H221      1.0  0.18048  0.10630  0.41544  1.0000
  H   H222      1.0  0.02405  0.27720  0.47289  1.0000
  H   H223      1.0  0.25070  0.07071  0.46394  1.0000
  H   H224      1.0  0.03516  0.13051  0.10800  1.0000
  C   C133      1.0  0.13293  0.15360  0.26715  1.0000
  H   H225      1.0  0.03459  0.17216  0.08595  1.0000
  C   C134      1.0  0.08343  0.27224  0.20382  1.0000
  H   H226      1.0  0.16265  0.13530  0.32432  1.0000
  H   H227      1.0  0.29986  0.14695  0.42275  1.0000
  H   H228      1.0  0.09221  0.30817  0.16361  1.0000
  H   H229      1.0  0.03461  0.27145  0.22226  1.0000
  S   S35       1.0  0.44807  0.04944  0.42353  1.0000
  H   H230      1.0  0.10803  0.17729  0.30616  1.0000
  H   H231      1.0  0.08541  0.15315  0.28811  1.0000
  H   H232      1.0  0.07895  0.23802  0.12640  1.0000
  S   S36       1.0  0.09718  0.28716  0.33845  1.0000
  C   C135      1.0  0.09825  0.13646  0.29186  1.0000
  C   C136      1.0  0.09704  0.12053  0.27003  1.0000
  C   C137      1.0  0.07121  0.11741  0.26787  1.0000
  H   H233      1.0  0.16530  0.16547  0.27811  1.0000
  H   H234      1.0  0.06068  0.13497  0.26134  1.0000
  C   C138      1.0  0.10221  0.25319  0.16369  1.0000
  C   C139      1.0  0.20031  0.26969  0.36595  1.0000
  C   C140      1.0  0.39710  0.00830  0.39474  1.0000
  H   H235      1.0  0.31470  0.28438  0.08821  1.0000
  C   C141      1.0  0.33032  0.29249  0.12177  1.0000
  H   H236      1.0  0.99836  0.11204  0.21106  1.0000
  N   N7        1.0  0.34412  0.29664  0.16697  1.0000
  H   H237      1.0  0.11537  0.29681  0.13910  1.0000
  H   H238      1.0  0.12249  0.05283  0.11186  1.0000
  Fe  Fe17      1.0  0.22213  0.30403  0.20051  1.0000
  H   H239      1.0  0.06480  0.15675  0.08648  1.0000
  N   N8        1.0  0.00657  0.13519  0.15778  1.0000
  H   H240      1.0  0.09251  0.03364  0.09304  1.0000
  H   H241      1.0  0.21114  0.07863  0.45855  1.0000
  C   C142      1.0  0.33435  0.30502  0.19348  1.0000
  Fe  Fe18      1.0  0.41788  0.05723  0.45517  1.0000
  H   H242      1.0  0.06852  0.01326  0.12918  1.0000
  H   H243      1.0  0.17878  0.11303  0.44921  1.0000
  H   H244      1.0  0.48104  0.07729  0.35251  1.0000
  H   H245      1.0  0.03234  0.13538  0.18545  1.0000
  H   H246      1.0  0.08596  0.28761  0.21392  1.0000
  H   H247      1.0  0.00940  0.08855  0.19067  1.0000
  C   C143      1.0  0.07284  0.00250  0.07416  1.0000
  H   H248      1.0  0.16252  0.28500  0.36721  1.0000
  C   C144      1.0  0.28600  0.08126  0.45968  1.0000
  C   C145      1.0  0.12919  0.30737  0.25770  1.0000
  H   H249      1.0  0.01328  0.31541  0.45161  1.0000
  C   C146      1.0  0.06832  0.01027  0.02470  1.0000
  H   H250      1.0  0.33565  0.30934  0.11021  1.0000
  H   H251      1.0  0.07824  0.01154  0.00445  1.0000
  H   H252      1.0  0.99967  0.17889  0.18194  1.0000
  H   H253      1.0  0.45450  0.12410  0.44255  1.0000
  H   H254      1.0  0.29418  0.30172  0.11037  1.0000
  H   H255      1.0  0.09741  0.98736  0.04181  1.0000
  C   C147      1.0  0.30597  0.30111  0.23615  1.0000
  H   H256      1.0  0.00020  0.15415  0.20825  1.0000
  C   C148      1.0  0.46487  0.11222  0.42841  1.0000
  H   H257      1.0  0.46880  0.12328  0.40899  1.0000
  N   N9        1.0  0.08862  0.99595  0.09648  1.0000
  C   C149      1.0  0.07351  0.99488  0.12320  1.0000
  H   H258      1.0  0.98823  0.10461  0.15738  1.0000
  C   C150      1.0  0.98471  0.14779  0.17274  1.0000
  H   H259      1.0  0.31896  0.30706  0.24734  1.0000
  H   H260      1.0  0.47215  0.07128  0.46275  1.0000
  H   H261      1.0  0.46665  0.01874  0.38384  1.0000
  H   H262      1.0  0.27604  0.30740  0.30131  1.0000
  H   H263      1.0  0.06008  0.98943  0.07496  1.0000
  H   H264      1.0  0.03661  0.99834  0.11409  1.0000
  H   H265      1.0  0.03543  0.99863  0.16304  1.0000
  H   H266      1.0  0.45882  0.06239  0.51040  1.0000
  N   N10       1.0  0.04566  0.31181  0.49262  1.0000
  S   S37       1.0  0.40474  0.09210  0.54302  1.0000
  H   H267      1.0  0.30923  0.06682  0.49032  1.0000
  H   H268      1.0  0.06550  0.99633  0.90554  1.0000
  C   C151      1.0  0.36788  0.02057  0.55421  1.0000
  H   H269      1.0  0.44235  0.09570  0.69122  1.0000
  S   S38       1.0  0.36036  0.07466  0.50145  1.0000
  H   H270      1.0  0.37143  0.03707  0.54209  1.0000
  H   H271      1.0  0.37476  0.00220  0.71506  1.0000
  C   C152      1.0  0.47116  0.01564  0.69048  1.0000
  C   C153      1.0  0.43307  0.10830  0.67584  1.0000
  C   C154      1.0  0.05074  0.02316  0.87614  1.0000
  C   C155      1.0  0.44500  0.07853  0.56803  1.0000
  C   C156      1.0  0.43458  0.09339  0.54710  1.0000
  C   C157      1.0  0.44695  0.11109  0.53196  1.0000
  H   H272      1.0  0.27501  0.01829  0.66549  1.0000
  H   H273      1.0  0.43575  0.06441  0.57915  1.0000
  H   H274      1.0  0.47868  0.24562  0.57343  1.0000
  C   C158      1.0  0.36654  0.99627  0.59723  1.0000
  H   H275      1.0  0.06833  0.28745  0.51882  1.0000
  H   H276      1.0  0.32208  0.99050  0.64128  1.0000
  H   H277      1.0  0.29855  0.04180  0.62864  1.0000
  H   H278      1.0  0.43682  0.98704  0.55693  1.0000
  C   C159      1.0  0.43962  0.14249  0.59505  1.0000
  C   C160      1.0  0.36940  0.01577  0.69816  1.0000
  H   H279      1.0  0.47182  0.09616  0.47984  1.0000
  C   C161      1.0  0.36976  0.01800  0.58149  1.0000
  H   H280      1.0  0.41941  0.06438  0.68292  1.0000
  H   H281      1.0  0.43540  0.01719  0.71058  1.0000
  H   H282      1.0  0.03340  0.02732  0.88852  1.0000
  C   C162      1.0  0.36173  0.00181  0.54278  1.0000
  H   H283      1.0  0.40542  0.01355  0.67926  1.0000
  C   C163      1.0  0.28972  0.07098  0.48841  1.0000
  H   H284      1.0  0.41345  0.99439  0.53532  1.0000
  H   H285      1.0  0.44733  0.24947  0.58586  1.0000
  H   H286      1.0  0.46012  0.02012  0.60305  1.0000
  H   H287      1.0  0.47245  0.03801  0.49261  1.0000
  C   C164      1.0  0.46255  0.23635  0.57873  1.0000
  Fe  Fe19      1.0  0.37644  0.03825  0.49087  1.0000
  H   H288      1.0  0.43543  0.03508  0.65710  1.0000
  C   C165      1.0  0.42715  0.09470  0.65446  1.0000
  H   H289      1.0  0.48309  0.01277  0.53196  1.0000
  C   C166      1.0  0.36811  0.11038  0.60130  1.0000
  H   H290      1.0  0.38365  0.11962  0.59225  1.0000
  H   H291      1.0  0.45292  0.02733  0.54039  1.0000
  H   H292      1.0  0.30154  0.00969  0.68235  1.0000
  H   H293      1.0  0.44480  0.99427  0.60494  1.0000
  S   S39       1.0  0.41383  0.04130  0.49794  1.0000
  H   H294      1.0  0.41585  0.03122  0.60439  1.0000
  C   C167      1.0  0.30510  0.03631  0.64847  1.0000
  C   C168      1.0  0.41035  0.07584  0.66652  1.0000
  H   H295      1.0  0.32502  0.03283  0.64585  1.0000
  H   H296      1.0  0.47779  0.03724  0.55178  1.0000
  C   C169      1.0  0.42365  0.02381  0.62314  1.0000
  H   H297      1.0  0.41648  0.11802  0.68548  1.0000
  Fe  Fe20      1.0  0.39828  0.07863  0.50577  1.0000
  H   H298      1.0  0.29946  0.05133  0.66056  1.0000
  H   H299      1.0  0.39380  0.08535  0.67654  1.0000
  H   H300      1.0  0.00864  0.30498  0.50132  1.0000
  H   H301      1.0  0.44518  0.12154  0.66665  1.0000
  H   H302      1.0  0.36383  0.09919  0.58695  1.0000
  H   H303      1.0  0.45606  0.00046  0.63413  1.0000
  H   H304      1.0  0.43146  0.14164  0.57668  1.0000
  H   H305      1.0  0.39694  0.03664  0.70069  1.0000
  H   H306      1.0  0.03810  0.28291  0.52366  1.0000
  C   C170      1.0  0.37365  0.09483  0.62737  1.0000
  C   C171      1.0  0.04844  0.29514  0.56940  1.0000
  H   H307      1.0  0.04859  0.26042  0.48943  1.0000
  H   H308      1.0  0.44026  0.05433  0.62725  1.0000
  H   H309      1.0  0.09066  0.31605  0.50705  1.0000
  H   H310      1.0  0.37661  0.10691  0.64138  1.0000
  S   S40       1.0  0.36090  0.00473  0.50831  1.0000
  H   H311      1.0  0.47636  0.31603  0.93640  1.0000
  C   C172      1.0  0.45942  0.15848  0.58862  1.0000
  H   H312      1.0  0.44718  0.12396  0.60282  1.0000
  H   H313      1.0  0.41853  0.10818  0.63942  1.0000
  H   H314      1.0  0.39071  0.06399  0.60914  1.0000
  H   H315      1.0  0.41042  0.08455  0.61102  1.0000
  C   C173      1.0  0.45030  0.00595  0.70133  1.0000
  C   C174      1.0  0.30233  0.99270  0.64596  1.0000
  H   H316      1.0  0.29543  0.99869  0.62632  1.0000
  H   H317      1.0  0.36890  0.05894  0.66842  1.0000
  H   H318      1.0  0.44435  0.08605  0.64494  1.0000
  C   C175      1.0  0.39101  0.02787  0.68522  1.0000
  H   H319      1.0  0.04761  0.02573  0.85484  1.0000
  H   H320      1.0  0.35474  0.02918  0.70579  1.0000
  C   C176      1.0  0.47412  0.04769  0.50931  1.0000
  C   C177      1.0  0.04980  0.29730  0.51922  1.0000
  C   C178      1.0  0.38458  0.04649  0.66096  1.0000
  C   C179      1.0  0.29481  0.01389  0.66257  1.0000
  H   H321      1.0  0.06720  0.28596  0.56909  1.0000
  H   H322      1.0  0.35749  0.08626  0.63542  1.0000
  C   C180      1.0  0.39572  0.07550  0.62272  1.0000
  H   H323      1.0  0.45625  0.16956  0.62787  1.0000
  H   H324      1.0  0.47491  0.07065  0.59118  1.0000
  H   H325      1.0  0.43878  0.12284  0.51599  1.0000
  H   H326      1.0  0.37777  0.03713  0.64647  1.0000
  H   H327      1.0  0.06278  0.03601  0.87889  1.0000
  H   H328      1.0  0.41199  0.01135  0.63489  1.0000
  C   C181      1.0  0.44773  0.00884  0.61589  1.0000
  C   C182      1.0  0.46725  0.08194  0.57466  1.0000
  H   H329      1.0  0.07968  0.99460  0.87185  1.0000
  H   H330      1.0  0.48159  0.18968  0.64606  1.0000
  C   C183      1.0  0.06233  0.99747  0.88444  1.0000
  H   H331      1.0  0.42535  0.14973  0.60993  1.0000
  H   H332      1.0  0.36269  0.00643  0.68369  1.0000
  H   H333      1.0  0.37440  0.03263  0.59017  1.0000
  S   S41       1.0  0.47181  0.04655  0.68915  1.0000
  H   H334      1.0  0.35239  0.12419  0.60506  1.0000
  N   N11       1.0  0.40430  0.06041  0.64738  1.0000
  H   H335      1.0  0.45135  0.17627  0.57935  1.0000
  C   C184      1.0  0.42672  0.04390  0.63932  1.0000
  H   H336      1.0  0.44451  0.99375  0.52143  1.0000
  S   S42       1.0  0.37010  0.99306  0.63099  1.0000
  H   H337      1.0  0.28164  0.08419  0.50216  1.0000
  H   H338      1.0  0.03600  0.28148  0.57271  1.0000
  H   H339      1.0  0.28171  0.05410  0.49426  1.0000
  H   H340      1.0  0.04467  0.30595  0.58627  1.0000
  H   H341      1.0  0.47305  0.15058  0.57366  1.0000
  C   C185      1.0  0.46939  0.11436  0.53840  1.0000
  C   C186      1.0  0.04498  0.31167  0.54339  1.0000
  H   H342      1.0  0.47505  0.14221  0.62429  1.0000
  H   H343      1.0  0.47048  0.22260  0.61836  1.0000
  C   C187      1.0  0.47189  0.03019  0.53495  1.0000
  H   H344      1.0  0.45016  0.20707  0.60557  1.0000
  H   H345      1.0  0.99210  0.29384  0.56399  1.0000
  C   C188      1.0  0.47936  0.10002  0.56004  1.0000
  H   H346      1.0  0.47866  0.12848  0.52714  1.0000
  C   C189      1.0  0.46693  0.21522  0.60056  1.0000
  H   H347      1.0  0.45798  0.23009  0.56068  1.0000
  C   C190      1.0  0.47061  0.16078  0.61408  1.0000
  Fe  Fe21      1.0  0.41166  0.44474  0.13740  1.0000
  S   S43       1.0  0.42416  0.44320  0.09419  1.0000
  S   S44       1.0  0.42400  0.46776  0.16397  1.0000
  Fe  Fe22      1.0  0.37574  0.40904  0.13908  1.0000
  S   S45       1.0  0.38505  0.40502  0.09589  1.0000
  S   S46       1.0  0.34872  0.38945  0.16695  1.0000
  Fe  Fe23      1.0  0.42300  0.40357  0.10411  1.0000
  S   S47       1.0  0.45006  0.37363  0.09025  1.0000
  Fe  Fe24      1.0  0.38508  0.44481  0.09014  1.0000
  S   S48       1.0  0.36787  0.46860  0.05697  1.0000
  S   S49       1.0  0.41393  0.40470  0.14794  1.0000
  S   S50       1.0  0.37238  0.44924  0.13270  1.0000
  H   H348      1.0  0.07731  0.42054  0.37796  1.0000
  H   H349      1.0  0.46297  0.42287  0.17992  1.0000
  C   C191      1.0  0.45530  0.63854  0.04442  1.0000
  Fe  Fe25      1.0  0.00015  0.43066  0.46101  1.0000
  Fe  Fe26      1.0  0.39166  0.59285  0.02475  1.0000
  C   C192      1.0  0.48291  0.62641  0.07793  1.0000
  S   S51       1.0  0.38158  0.57471  0.06576  1.0000
  H   H350      1.0  0.99635  0.57703  0.45708  1.0000
  H   H351      1.0  0.12796  0.32758  0.21884  1.0000
  H   H352      1.0  0.42375  0.55322  0.09536  1.0000
  H   H353      1.0  0.43961  0.59160  0.06271  1.0000
  S   S52       1.0  0.39728  0.63150  0.01811  1.0000
  C   C193      1.0  0.28908  0.36099  0.13413  1.0000
  S   S53       1.0  0.01444  0.39156  0.46811  1.0000
  H   H354      1.0  0.30870  0.36855  0.09564  1.0000
  H   H355      1.0  0.40498  0.32630  0.13055  1.0000
  C   C194      1.0  0.40262  0.56103  0.14244  1.0000
  S   S54       1.0  0.07536  0.37995  0.42261  1.0000
  C   C195      1.0  0.46171  0.48796  0.13293  1.0000
  H   H356      1.0  0.00590  0.48976  0.46167  1.0000
  C   C196      1.0  0.46041  0.63716  0.07077  1.0000
  S   S55       1.0  0.03439  0.44117  0.43870  1.0000
  C   C197      1.0  0.44128  0.57302  0.15011  1.0000
  H   H357      1.0  0.00513  0.63795  0.46742  1.0000
  C   C198      1.0  0.43707  0.55586  0.10842  1.0000
  Fe  Fe27      1.0  0.37871  0.63341  0.98159  1.0000
  H   H358      1.0  0.06511  0.37928  0.27165  1.0000
  C   C199      1.0  0.07893  0.33748  0.40263  1.0000
  C   C200      1.0  0.03927  0.36026  0.40650  1.0000
  H   H359      1.0  0.45192  0.41651  0.05190  1.0000
  H   H360      1.0  0.45119  0.58877  0.14401  1.0000
  H   H361      1.0  0.43769  0.64617  0.03909  1.0000
  H   H362      1.0  0.44553  0.52037  0.01140  1.0000
  H   H363      1.0  0.02194  0.61983  0.44331  1.0000
  H   H364      1.0  0.02739  0.37611  0.41164  1.0000
  H   H365      1.0  0.44103  0.50694  0.04548  1.0000
  H   H366      1.0  0.02014  0.34432  0.45515  1.0000
  C   C201      1.0  0.08041  0.42029  0.35608  1.0000
  H   H367      1.0  0.00434  0.54270  0.43716  1.0000
  H   H368      1.0  0.01587  0.34056  0.33839  1.0000
  S   S56       1.0  0.20773  0.32609  0.16437  1.0000
  H   H369      1.0  0.09896  0.42407  0.34916  1.0000
  H   H370      1.0  0.47534  0.55059  0.13959  1.0000
  H   H371      1.0  0.05128  0.36198  0.34159  1.0000
  H   H372      1.0  0.40779  0.61268  0.15283  1.0000
  H   H373      1.0  0.30282  0.64203  0.05908  1.0000
  H   H374      1.0  0.38483  0.35339  0.13660  1.0000
  C   C202      1.0  0.37876  0.32212  0.16568  1.0000
  H   H375      1.0  0.11698  0.38829  0.27306  1.0000
  S   S57       1.0  0.46663  0.62945  0.99258  1.0000
  S   S58       1.0  0.26541  0.35182  0.12097  1.0000
  H   H376      1.0  0.34680  0.33217  0.14582  1.0000
  H   H377      1.0  0.42910  0.41701  0.98025  1.0000
  H   H378      1.0  0.38968  0.56260  0.12742  1.0000
  Fe  Fe28      1.0  0.04946  0.40263  0.44932  1.0000
  C   C203      1.0  0.47109  0.40440  0.01602  1.0000
  H   H379      1.0  0.02755  0.50174  0.43605  1.0000
  C   C204      1.0  0.43343  0.51030  0.02615  1.0000
  H   H380      1.0  0.15821  0.33851  0.32883  1.0000
  C   C205      1.0  0.40570  0.53472  0.15608  1.0000
  H   H381      1.0  0.45363  0.53409  0.15966  1.0000
  H   H382      1.0  0.44907  0.47776  0.00990  1.0000
  H   H383      1.0  0.41434  0.40149  0.02691  1.0000
  C   C206      1.0  0.48086  0.46225  0.05360  1.0000
  C   C207      1.0  0.37021  0.49830  0.06015  1.0000
  C   C208      1.0  0.36214  0.51696  0.04099  1.0000
  C   C209      1.0  0.36544  0.54058  0.04273  1.0000
  C   C210      1.0  0.37616  0.54557  0.06404  1.0000
  C   C211      1.0  0.38339  0.52698  0.08366  1.0000
  C   C212      1.0  0.38078  0.50333  0.08149  1.0000
  H   H384      1.0  0.35381  0.51312  0.02456  1.0000
  H   H385      1.0  0.35950  0.55492  0.02776  1.0000
  H   H386      1.0  0.39165  0.53063  0.10016  1.0000
  H   H387      1.0  0.38723  0.48905  0.09625  1.0000
  C   C213      1.0  0.06359  0.35785  0.40975  1.0000
  C   C214      1.0  0.01036  0.32956  0.46495  1.0000
  C   C215      1.0  0.43095  0.48648  0.01692  1.0000
  H   H388      1.0  0.05863  0.39259  0.35826  1.0000
  H   H389      1.0  0.34136  0.38390  0.11306  1.0000
  C   C216      1.0  0.32615  0.37831  0.15391  1.0000
  C   C217      1.0  0.32672  0.37771  0.12660  1.0000
  C   C218      1.0  0.30826  0.36897  0.11678  1.0000
  H   H390      1.0  0.44665  0.56181  0.05310  1.0000
  C   C219      1.0  0.30200  0.64994  0.03797  1.0000
  H   H391      1.0  0.38400  0.50789  0.17635  1.0000
  C   C220      1.0  0.48133  0.38447  0.00331  1.0000
  H   H392      1.0  0.06672  0.40898  0.31021  1.0000
  C   C221      1.0  0.45331  0.57545  0.06259  1.0000
  C   C222      1.0  0.13928  0.31907  0.23388  1.0000
  H   H393      1.0  0.42343  0.47502  0.03458  1.0000
  C   C223      1.0  0.39906  0.63931  0.11987  1.0000
  H   H394      1.0  0.38385  0.40941  0.01889  1.0000
  H   H395      1.0  0.39281  0.45136  0.01195  1.0000
  N   N12       1.0  0.28649  0.45087  0.11531  1.0000
  C   C224      1.0  0.26050  0.44841  0.12448  1.0000
  C   C225      1.0  0.28920  0.47650  0.10365  1.0000
  C   C226      1.0  0.29458  0.43514  0.09349  1.0000
  C   C227      1.0  0.30220  0.44232  0.13739  1.0000
  C   C228      1.0  0.29625  0.45525  0.16251  1.0000
  C   C229      1.0  0.25507  0.42270  0.13598  1.0000
  C   C230      1.0  0.31963  0.43776  0.07799  1.0000
  C   C231      1.0  0.27216  0.49687  0.11638  1.0000
  C   C232      1.0  0.28029  0.52132  0.10634  1.0000
  C   C233      1.0  0.31066  0.44224  0.18490  1.0000
  C   C234      1.0  0.22849  0.42267  0.14570  1.0000
  C   C235      1.0  0.32594  0.42067  0.05691  1.0000
  H   H396      1.0  0.24955  0.45483  0.10759  1.0000
  H   H397      1.0  0.25299  0.46010  0.13994  1.0000
  H   H398      1.0  0.30808  0.47973  0.10370  1.0000
  H   H399      1.0  0.28587  0.47968  0.08231  1.0000
  H   H400      1.0  0.28140  0.43857  0.07855  1.0000
  H   H401      1.0  0.29519  0.41593  0.10166  1.0000
  H   H402      1.0  0.30233  0.42280  0.14364  1.0000
  H   H403      1.0  0.32117  0.44424  0.13023  1.0000
  H   H404      1.0  0.27707  0.45614  0.17034  1.0000
  H   H405      1.0  0.30122  0.47364  0.15789  1.0000
  H   H406      1.0  0.25956  0.41030  0.12065  1.0000
  H   H407      1.0  0.26521  0.41528  0.15315  1.0000
  H   H408      1.0  0.33390  0.43365  0.09144  1.0000
  H   H409      1.0  0.32007  0.45621  0.06750  1.0000
  H   H410      1.0  0.25376  0.49754  0.11086  1.0000
  H   H411      1.0  0.27102  0.49433  0.13833  1.0000
  H   H412      1.0  0.29832  0.52186  0.11224  1.0000
  H   H413      1.0  0.28099  0.52506  0.08432  1.0000
  H   H414      1.0  0.26747  0.53565  0.11512  1.0000
  H   H415      1.0  0.30609  0.42376  0.19093  1.0000
  H   H416      1.0  0.33020  0.44120  0.17847  1.0000
  H   H417      1.0  0.30647  0.45212  0.20249  1.0000
  H   H418      1.0  0.22296  0.43394  0.16204  1.0000
  H   H419      1.0  0.21738  0.42943  0.12911  1.0000
  H   H420      1.0  0.22519  0.40401  0.15339  1.0000
  H   H421      1.0  0.31244  0.42427  0.04244  1.0000
  H   H422      1.0  0.34373  0.42333  0.04596  1.0000
  H   H423      1.0  0.32690  0.40172  0.06632  1.0000
  H   H424      1.0  0.41494  0.52210  0.14225  1.0000
  C   C236      1.0  0.28863  0.36135  0.16147  1.0000
  H   H425      1.0  0.47345  0.54963  0.08879  1.0000
  H   H426      1.0  0.09014  0.38209  0.35974  1.0000
  H   H427      1.0  0.37115  0.53828  0.18060  1.0000
  H   H428      1.0  0.02789  0.57381  0.45540  1.0000
  C   C237      1.0  0.46352  0.47987  0.18040  1.0000
  C   C238      1.0  0.45169  0.47906  0.15832  1.0000
  H   H429      1.0  0.43331  0.60480  0.10718  1.0000
  C   C239      1.0  0.00629  0.62094  0.45878  1.0000
  N   N13       1.0  0.42507  0.57106  0.12952  1.0000
  H   H430      1.0  0.39340  0.57174  0.15828  1.0000
  C   C240      1.0  0.00855  0.50428  0.44492  1.0000
  H   H431      1.0  0.41575  0.53304  0.17358  1.0000
  H   H432      1.0  0.38257  0.60843  0.13683  1.0000
  H   H433      1.0  0.47175  0.41873  0.12837  1.0000
  C   C241      1.0  0.48124  0.36136  0.01715  1.0000
  C   C242      1.0  0.38133  0.52661  0.16617  1.0000
  H   H434      1.0  0.05580  0.34386  0.46798  1.0000
  H   H435      1.0  0.29640  0.63655  0.02715  1.0000
  C   C243      1.0  0.41058  0.42362  0.98851  1.0000
  H   H436      1.0  0.27375  0.35549  0.17497  1.0000
  H   H437      1.0  0.32917  0.53272  0.98050  1.0000
  H   H438      1.0  0.45572  0.47344  0.20012  1.0000
  H   H439      1.0  0.40761  0.59499  0.09852  1.0000
  H   H440      1.0  0.06743  0.43466  0.34667  1.0000
  H   H441      1.0  0.41573  0.52155  0.02900  1.0000
  H   H442      1.0  0.13031  0.35395  0.29552  1.0000
  H   H443      1.0  0.98962  0.62126  0.44949  1.0000
  H   H444      1.0  0.30650  0.37060  0.19244  1.0000
  H   H445      1.0  0.09788  0.40139  0.31178  1.0000
  H   H446      1.0  0.04057  0.37997  0.31289  1.0000
  H   H447      1.0  0.09622  0.33445  0.31361  1.0000
  C   C244      1.0  0.47219  0.55358  0.18120  1.0000
  H   H448      1.0  0.09110  0.40955  0.26588  1.0000
  H   H449      1.0  0.38481  0.65066  0.13120  1.0000
  H   H450      1.0  0.01138  0.34396  0.39422  1.0000
  H   H451      1.0  0.13363  0.33593  0.35481  1.0000
  H   H452      1.0  0.99690  0.50279  0.42959  1.0000
  H   H453      1.0  0.47223  0.34034  0.05476  1.0000
  Fe  Fe29      1.0  0.43042  0.61848  0.99248  1.0000
  C   C245      1.0  0.40099  0.61336  0.13333  1.0000
  C   C246      1.0  0.40270  0.40427  0.01059  1.0000
  H   H454      1.0  0.11650  0.40053  0.22482  1.0000
  H   H455      1.0  0.46660  0.57840  0.09969  1.0000
  H   H456      1.0  0.01101  0.35419  0.30489  1.0000
  H   H457      1.0  0.47941  0.45906  0.09574  1.0000
  H   H458      1.0  0.37077  0.33341  0.18146  1.0000
  H   H459      1.0  0.44675  0.64373  0.08566  1.0000
  C   C247      1.0  0.45899  0.56508  0.09073  1.0000
  H   H460      1.0  0.09304  0.36498  0.47336  1.0000
  H   H461      1.0  0.44350  0.53740  0.11726  1.0000
  H   H462      1.0  0.12641  0.37255  0.32211  1.0000
  H   H463      1.0  0.41621  0.64640  0.11963  1.0000
  H   H464      1.0  0.41850  0.50637  0.98099  1.0000
  C   C248      1.0  0.46082  0.55136  0.15636  1.0000
  H   H465      1.0  0.09207  0.34711  0.34368  1.0000
  C   C249      1.0  0.02175  0.33958  0.31694  1.0000
  H   H466      1.0  0.05321  0.34085  0.28901  1.0000
  C   C250      1.0  0.03024  0.34210  0.39658  1.0000
  H   H467      1.0  0.39556  0.49546  0.00444  1.0000
  C   C251      1.0  0.41739  0.59596  0.11574  1.0000
  H   H468      1.0  0.11442  0.36899  0.23317  1.0000
  C   C252      1.0  0.30710  0.37005  0.17130  1.0000
  H   H469      1.0  0.47903  0.57109  0.17923  1.0000
  C   C253      1.0  0.47305  0.63005  0.02506  1.0000
  H   H470      1.0  0.08800  0.39001  0.22587  1.0000
  H   H471      1.0  0.40402  0.38700  0.00244  1.0000
  H   H472      1.0  0.11814  0.33423  0.17565  1.0000
  H   H473      1.0  0.37072  0.52700  0.14931  1.0000
  N   N14       1.0  0.07918  0.37115  0.31004  1.0000
  C   C254      1.0  0.08047  0.39499  0.31911  1.0000
  C   C255      1.0  0.08258  0.37317  0.27991  1.0000
  C   C256      1.0  0.05434  0.36479  0.31949  1.0000
  C   C257      1.0  0.09699  0.35127  0.32187  1.0000
  C   C258      1.0  0.12363  0.35509  0.31676  1.0000
  C   C259      1.0  0.07699  0.39572  0.34961  1.0000
  C   C260      1.0  0.04846  0.34157  0.31063  1.0000
  C   C261      1.0  0.09963  0.39071  0.26475  1.0000
  C   C262      1.0  0.10488  0.38731  0.23535  1.0000
  H   H474      1.0  0.08890  0.35518  0.27340  1.0000
  C   C263      1.0  0.00200  0.52884  0.45466  1.0000
  H   H475      1.0  0.43039  0.57673  0.16918  1.0000
  H   H476      1.0  0.45215  0.48826  0.11592  1.0000
  H   H477      1.0  0.32359  0.32311  0.19019  1.0000
  H   H478      1.0  0.45890  0.55195  0.19912  1.0000
  C   C264      1.0  0.41024  0.44757  0.99960  1.0000
  H   H479      1.0  0.46346  0.45565  0.05414  1.0000
  C   C265      1.0  0.16410  0.31935  0.22929  1.0000
  H   H480      1.0  0.47097  0.42225  0.00539  1.0000
  H   H481      1.0  0.46983  0.58055  0.05045  1.0000
  C   C266      1.0  0.13917  0.33553  0.33319  1.0000
  C   C267      1.0  0.01128  0.57547  0.46960  1.0000
  N   N15       1.0  0.41444  0.46926  0.97957  1.0000
  S   S59       1.0  0.42643  0.57943  0.00201  1.0000
  H   H482      1.0  0.48078  0.41820  0.08108  1.0000
  C   C268      1.0  0.46122  0.37809  0.05655  1.0000
  C   C269      1.0  0.46045  0.40117  0.04242  1.0000
  C   C270      1.0  0.06992  0.31934  0.39277  1.0000
  C   C271      1.0  0.47172  0.35822  0.04391  1.0000
  H   H483      1.0  0.09777  0.33554  0.40517  1.0000
  H   H484      1.0  0.42415  0.44355  0.01361  1.0000
  C   C272      1.0  0.39529  0.33696  0.14619  1.0000
  C   C273      1.0  0.41399  0.49025  0.99480  1.0000
  H   H485      1.0  0.11890  0.33819  0.14004  1.0000
  C   C274      1.0  0.48241  0.41793  0.18202  1.0000
  H   H486      1.0  0.05838  0.32555  0.32150  1.0000
  Fe  Fe30      1.0  0.24634  0.32321  0.14678  1.0000
  H   H487      1.0  0.47775  0.48211  0.05139  1.0000
  C   C275      1.0  0.12397  0.32529  0.15757  1.0000
  S   S60       1.0  0.37012  0.59575  0.99049  1.0000
  H   H488      1.0  0.39449  0.64057  0.09917  1.0000
  H   H489      1.0  0.40873  0.34262  0.15703  1.0000
  H   H490      1.0  0.03655  0.53151  0.46545  1.0000
  H   H491      1.0  0.17185  0.32813  0.21070  1.0000
  H   H492      1.0  0.32594  0.62527  0.98747  1.0000
  H   H493      1.0  0.01829  0.32206  0.31223  1.0000
  H   H494      1.0  0.09504  0.32146  0.47131  1.0000
  C   C276      1.0  0.04557  0.32165  0.38960  1.0000
  H   H495      1.0  0.14379  0.32061  0.15548  1.0000
  H   H496      1.0  0.32596  0.56353  0.98666  1.0000
  H   H497      1.0  0.37643  0.47610  0.97579  1.0000
  H   H498      1.0  0.35510  0.54813  0.97560  1.0000
  H   H499      1.0  0.45157  0.45337  0.97557  1.0000
  H   H500      1.0  0.02331  0.47317  0.61727  1.0000
  C   C277      1.0  0.02781  0.55320  0.51041  1.0000
  Fe  Fe31      1.0  0.99727  0.55296  0.64395  1.0000
  S   S61       1.0  0.02052  0.37562  0.54374  1.0000
  S   S62       1.0  0.06104  0.40881  0.48774  1.0000
  S   S63       1.0  0.03610  0.54528  0.65050  1.0000
  C   C278      1.0  0.11314  0.62881  0.75963  1.0000
  Fe  Fe32      1.0  0.00715  0.58152  0.59027  1.0000
  S   S64       1.0  0.04689  0.57566  0.59174  1.0000
  H   H501      1.0  0.47617  0.60335  0.89135  1.0000
  Fe  Fe33      1.0  0.04177  0.53778  0.60811  1.0000
  S   S65       1.0  0.06736  0.50553  0.59675  1.0000
  Fe  Fe34      1.0  0.03782  0.58386  0.63396  1.0000
  S   S66       1.0  0.06253  0.60485  0.64984  1.0000
  S   S67       1.0  0.00283  0.54274  0.60275  1.0000
  H   H502      1.0  0.03130  0.61460  0.79592  1.0000
  H   H503      1.0  0.04237  0.59613  0.75385  1.0000
  C   C279      1.0  0.47221  0.52078  0.94181  1.0000
  H   H504      1.0  0.10440  0.64368  0.77076  1.0000
  C   C280      1.0  0.27593  0.60859  0.87419  1.0000
  H   H505      1.0  0.08645  0.63856  0.66890  1.0000
  H   H506      1.0  0.28859  0.61457  0.97518  1.0000
  H   H507      1.0  0.34688  0.55892  0.89092  1.0000
  H   H508      1.0  0.09286  0.61580  0.80812  1.0000
  H   H509      1.0  0.48346  0.58621  0.96514  1.0000
  H   H510      1.0  0.03236  0.41454  0.57080  1.0000
  H   H511      1.0  0.37018  0.61730  0.92887  1.0000
  C   C281      1.0  0.33561  0.55029  0.97363  1.0000
  S   S68       1.0  0.00712  0.43888  0.50065  1.0000
  H   H512      1.0  0.45976  0.59393  0.92283  1.0000
  H   H513      1.0  0.05744  0.32518  0.54157  1.0000
  H   H514      1.0  0.01925  0.51505  0.49053  1.0000
  C   C282      1.0  0.13383  0.63787  0.74053  1.0000
  H   H515      1.0  0.31219  0.61436  0.86115  1.0000
  C   C283      1.0  0.06238  0.48320  0.51571  1.0000
  C   C284      1.0  0.04152  0.48733  0.53327  1.0000
  C   C285      1.0  0.04274  0.49515  0.55787  1.0000
  C   C286      1.0  0.06499  0.49729  0.56556  1.0000
  C   C287      1.0  0.08586  0.49205  0.54848  1.0000
  C   C288      1.0  0.08449  0.48571  0.52334  1.0000
  H   H516      1.0  0.02438  0.48536  0.52750  1.0000
  H   H517      1.0  0.02659  0.49928  0.57101  1.0000
  H   H518      1.0  0.10308  0.49367  0.55437  1.0000
  H   H519      1.0  0.07165  0.40135  0.54697  1.0000
  H   H520      1.0  0.04263  0.58201  0.70390  1.0000
  S   S69       1.0  0.25702  0.63747  0.93699  1.0000
  Fe  Fe35      1.0  0.02478  0.40057  0.50570  1.0000
  C   C289      1.0  0.04855  0.41333  0.58109  1.0000
  H   H521      1.0  0.02536  0.60082  0.49024  1.0000
  H   H522      1.0  0.99522  0.37045  0.59610  1.0000
  C   C290      1.0  0.04424  0.45761  0.64890  1.0000
  H   H523      1.0  0.10062  0.48272  0.50977  1.0000
  C   C291      1.0  0.06892  0.55835  0.52099  1.0000
  C   C292      1.0  0.98991  0.37757  0.55467  1.0000
  H   H524      1.0  0.35867  0.49901  0.93089  1.0000
  H   H525      1.0  0.08401  0.58956  0.71000  1.0000
  H   H526      1.0  0.02409  0.47795  0.67952  1.0000
  C   C293      1.0  0.31690  0.63643  0.97184  1.0000
  H   H527      1.0  0.37076  0.54966  0.84745  1.0000
  H   H528      1.0  0.42992  0.43821  0.93970  1.0000
  C   C294      1.0  0.05142  0.62856  0.66882  1.0000
  C   C295      1.0  0.39384  0.47537  0.96278  1.0000
  C   C296      1.0  0.34328  0.61827  0.90150  1.0000
  H   H529      1.0  0.10946  0.57324  0.82207  1.0000
  C   C297      1.0  0.07830  0.59328  0.78353  1.0000
  H   H530      1.0  0.01448  0.62302  0.67253  1.0000
  C   C298      1.0  0.99693  0.45803  0.58486  1.0000
  H   H531      1.0  0.06411  0.58133  0.78819  1.0000
  H   H532      1.0  0.39835  0.42549  0.97295  1.0000
  C   C299      1.0  0.02322  0.45705  0.63253  1.0000
  H   H533      1.0  0.00013  0.42022  0.59823  1.0000
  C   C300      1.0  0.09117  0.58088  0.82999  1.0000
  H   H534      1.0  0.06492  0.55585  0.70364  1.0000
  N   N16       1.0  0.02399  0.43453  0.61986  1.0000
  H   H535      1.0  0.04729  0.45030  0.58734  1.0000
  C   C301      1.0  0.35617  0.58519  0.85844  1.0000
  C   C302      1.0  0.45061  0.53573  0.94802  1.0000
  C   C303      1.0  0.36884  0.62082  0.90716  1.0000
  H   H536      1.0  0.01088  0.37629  0.67972  1.0000
  C   C304      1.0  0.98576  0.55379  0.50435  1.0000
  S   S70       1.0  0.41255  0.62378  0.95515  1.0000
  H   H537      1.0  0.14435  0.62303  0.73032  1.0000
  H   H538      1.0  0.02186  0.38441  0.61882  1.0000
  H   H539      1.0  0.12120  0.61396  0.77377  1.0000
  Fe  Fe36      1.0  0.04267  0.44641  0.47904  1.0000
  H   H540      1.0  0.09067  0.63344  0.72746  1.0000
  H   H541      1.0  0.05692  0.56760  0.48233  1.0000
  N   N17       1.0  0.33680  0.59312  0.90595  1.0000
  H   H542      1.0  0.05002  0.34680  0.50200  1.0000
  H   H543      1.0  0.02738  0.53694  0.52523  1.0000
  C   C305      1.0  0.02518  0.41347  0.64183  1.0000
  C   C306      1.0  0.30034  0.61325  0.88010  1.0000
  H   H544      1.0  0.03530  0.49599  0.64980  1.0000
  H   H545      1.0  0.05168  0.61746  0.72722  1.0000
  H   H546      1.0  0.39313  0.56800  0.85128  1.0000
  H   H547      1.0  0.00625  0.46017  0.64582  1.0000
  S   S71       1.0  0.99083  0.60128  0.55403  1.0000
  C   C307      1.0  0.44143  0.53821  0.90274  1.0000
  H   H548      1.0  0.36167  0.60333  0.85388  1.0000
  C   C308      1.0  0.05456  0.55356  0.49954  1.0000
  H   H549      1.0  0.39341  0.46110  0.95034  1.0000
  H   H550      1.0  0.08651  0.41534  0.56837  1.0000
  C   C309      1.0  0.00915  0.59971  0.48077  1.0000
  C   C310      1.0  0.33102  0.55850  0.94466  1.0000
  C   C311      1.0  0.43514  0.54427  0.92848  1.0000
  H   H551      1.0  0.00182  0.64855  0.80685  1.0000
  C   C312      1.0  0.37730  0.50127  0.92232  1.0000
  H   H552      1.0  0.48076  0.34553  0.94195  1.0000
  C   C313      1.0  0.01433  0.39104  0.63781  1.0000
  H   H553      1.0  0.42950  0.54468  0.88760  1.0000
  C   C314      1.0  0.37545  0.56820  0.84410  1.0000
  H   H554      1.0  0.37142  0.57275  0.89551  1.0000
  C   C315      1.0  0.39329  0.49975  0.94445  1.0000
  Fe  Fe37      1.0  0.40547  0.58580  0.96697  1.0000
  H   H555      1.0  0.34117  0.62692  0.88091  1.0000
  H   H556      1.0  0.06689  0.54494  0.53897  1.0000
  H   H557      1.0  0.08315  0.56876  0.74033  1.0000
  C   C316      1.0  0.31080  0.59370  0.90174  1.0000
  H   H558      1.0  0.47502  0.46234  0.92137  1.0000
  H   H559      1.0  0.35875  0.58104  0.93825  1.0000
  H   H560      1.0  0.01527  0.41905  0.66078  1.0000
  H   H561      1.0  0.99342  0.60188  0.49581  1.0000
  H   H562      1.0  0.04405  0.40743  0.64606  1.0000
  H   H563      1.0  0.04697  0.44153  0.66388  1.0000
  H   H564      1.0  0.05221  0.39522  0.59236  1.0000
  H   H565      1.0  0.06114  0.45883  0.63546  1.0000
  H   H566      1.0  0.05553  0.48108  0.67330  1.0000
  S   S72       1.0  0.40720  0.56135  0.93581  1.0000
  C   C317      1.0  0.03157  0.63149  0.78203  1.0000
  C   C318      1.0  0.02708  0.63344  0.67785  1.0000
  H   H567      1.0  0.27770  0.59163  0.86532  1.0000
  C   C319      1.0  0.03945  0.47950  0.66384  1.0000
  H   H568      1.0  0.05578  0.64933  0.75245  1.0000
  H   H569      1.0  0.08761  0.35984  0.50935  1.0000
  H   H570      1.0  0.37715  0.51913  0.91008  1.0000
  H   H571      1.0  0.06335  0.60946  0.81986  1.0000
  H   H572      1.0  0.26830  0.62360  0.85988  1.0000
  H   H573      1.0  0.09235  0.58739  0.84916  1.0000
  H   H574      1.0  0.04372  0.55947  0.73279  1.0000
  C   C320      1.0  0.08101  0.60178  0.81043  1.0000
  H   H575      1.0  0.10589  0.60406  0.73554  1.0000
  C   C321      1.0  0.35323  0.57669  0.88868  1.0000
  C   C322      1.0  0.04605  0.43273  0.59990  1.0000
  N   N18       1.0  0.01080  0.55347  0.49003  1.0000
  C   C323      1.0  0.33968  0.58317  0.93461  1.0000
  H   H576      1.0  0.02032  0.63072  0.76603  1.0000
  C   C324      1.0  0.28340  0.64526  0.94535  1.0000
  H   H577      1.0  0.26323  0.60746  0.89266  1.0000
  H   H578      1.0  0.47417  0.43239  0.93891  1.0000
  H   H579      1.0  0.99455  0.39539  0.63792  1.0000
  C   C325      1.0  0.37461  0.64627  0.89764  1.0000
  H   H580      1.0  0.08822  0.55712  0.51336  1.0000
  H   H581      1.0  0.03857  0.36496  0.66085  1.0000
  C   C326      1.0  0.01812  0.53156  0.47595  1.0000
  H   H582      1.0  0.37702  0.57438  0.82238  1.0000
  H   H583      1.0  0.31152  0.55947  0.94358  1.0000
  H   H584      1.0  0.01304  0.33427  0.50544  1.0000
  H   H585      1.0  0.30765  0.57586  0.89752  1.0000
  H   H586      1.0  0.01078  0.35494  0.65699  1.0000
  H   H587      1.0  0.06625  0.43346  0.54640  1.0000
  H   H588      1.0  0.38431  0.48726  0.90919  1.0000
  C   C327      1.0  0.05858  0.60285  0.74245  1.0000
  C   C328      1.0  0.06957  0.41611  0.55945  1.0000
  C   C329      1.0  0.01904  0.31983  0.49249  1.0000
  H   H589      1.0  0.44575  0.54037  0.96791  1.0000
  H   H590      1.0  0.43061  0.46759  0.92180  1.0000
  C   C330      1.0  0.01902  0.37058  0.66027  1.0000
  C   C331      1.0  0.47879  0.51548  0.91575  1.0000
  H   H591      1.0  0.33007  0.59604  0.94802  1.0000
  H   H592      1.0  0.02189  0.56829  0.52242  1.0000
  H   H593      1.0  0.29775  0.63114  0.88722  1.0000
  H   H594      1.0  0.38271  0.60824  0.89702  1.0000
  H   H595      1.0  0.01227  0.45773  0.56911  1.0000
  H   H596      1.0  0.06254  0.42919  0.61021  1.0000
  H   H597      1.0  0.29887  0.59710  0.92036  1.0000
  H   H598      1.0  0.06272  0.57660  0.52671  1.0000
  S   S73       1.0  0.99814  0.59252  0.63130  1.0000
  H   H599      1.0  0.41148  0.50277  0.93515  1.0000
  N   N19       1.0  0.07261  0.61258  0.76063  1.0000
  C   C332      1.0  0.09529  0.61958  0.74450  1.0000
  H   H600      1.0  0.99410  0.47540  0.59302  1.0000
  C   C333      1.0  0.29563  0.63052  0.96506  1.0000
  C   C334      1.0  0.05749  0.63486  0.76960  1.0000
  C   C335      1.0  0.00116  0.43667  0.60705  1.0000
  H   H601      1.0  0.99324  0.52374  0.53637  1.0000
  C   C336      1.0  0.07212  0.58215  0.72729  1.0000
  H   H602      1.0  0.33920  0.58507  0.85001  1.0000
  C   C337      1.0  0.43926  0.45419  0.93693  1.0000
  C   C338      1.0  0.46496  0.44675  0.92516  1.0000
  H   H603      1.0  0.37446  0.65053  0.87575  1.0000
  H   H604      1.0  0.33047  0.62975  0.91427  1.0000
  H   H605      1.0  0.07938  0.56661  0.83380  1.0000
  H   H606      1.0  0.34070  0.54446  0.93282  1.0000
  H   H607      1.0  0.46498  0.43977  0.90600  1.0000
  H   H608      1.0  0.09495  0.58123  0.77764  1.0000
  H   H609      1.0  0.06249  0.53587  0.49325  1.0000
  C   C339      1.0  0.05472  0.56911  0.71632  1.0000
  C   C340      1.0  0.06761  0.64219  0.67592  1.0000
  H   H610      1.0  0.44630  0.48215  0.95744  1.0000
  C   C341      1.0  0.05829  0.33379  0.48800  1.0000
  C   C342      1.0  0.46342  0.52431  0.89626  1.0000
  C   C343      1.0  0.43854  0.46508  0.96325  1.0000
  C   C344      1.0  0.01906  0.65169  0.69409  1.0000
  H   H611      1.0  0.46850  0.52027  0.87608  1.0000
  H   H612      1.0  0.12005  0.65149  0.95301  1.0000
  H   H613      1.0  0.06624  0.64266  0.78380  1.0000
  C   C345      1.0  0.09603  0.35178  0.49126  1.0000
  H   H614      1.0  0.98545  0.43810  0.62248  1.0000
  H   H615      1.0  0.38611  0.51468  0.95633  1.0000
  H   H616      1.0  0.14588  0.64508  0.75186  1.0000
  S   S74       1.0  0.06106  0.47765  0.48309  1.0000
  H   H617      1.0  0.11565  0.34760  0.49236  1.0000
  C   C346      1.0  0.08582  0.32888  0.48948  1.0000
  C   C347      1.0  0.47701  0.59063  0.91000  1.0000
  H   H618      1.0  0.47941  0.57205  0.90480  1.0000
  H   H619      1.0  0.39270  0.64783  0.90259  1.0000
  H   H620      1.0  0.02637  0.32117  0.54508  1.0000
  C   C348      1.0  0.28434  0.68585  0.00740  1.0000
  C   C349      1.0  0.47974  0.98459  0.40506  1.0000
  H   H621      1.0  0.18275  0.80141  0.98323  1.0000
  H   H622      1.0  0.30212  0.69224  0.00253  1.0000
  C   C350      1.0  0.21171  0.67014  0.99923  1.0000
  H   H623      1.0  0.24727  0.75796  0.05546  1.0000
  H   H624      1.0  0.41481  0.92274  0.42361  1.0000
  C   C351      1.0  0.09332  0.95035  0.09220  1.0000
  H   H625      1.0  0.26944  0.77076  0.03101  1.0000
  H   H626      1.0  0.12540  0.92464  0.09904  1.0000
  C   C352      1.0  0.99086  0.91354  0.11217  1.0000
  C   C353      1.0  0.04401  0.90363  0.99767  1.0000
  H   H627      1.0  0.21122  0.79343  0.99622  1.0000
  C   C354      1.0  0.04695  0.91501  0.01944  1.0000
  C   C355      1.0  0.41712  0.94128  0.42617  1.0000
  C   C356      1.0  0.25096  0.76598  0.03442  1.0000
  H   H628      1.0  0.02206  0.83166  0.02019  1.0000
  H   H629      1.0  0.99278  0.83807  0.00873  1.0000
  H   H630      1.0  0.47846  0.97256  0.47230  1.0000
  H   H631      1.0  0.08036  0.95386  0.07724  1.0000
  H   H632      1.0  0.13742  0.78482  0.99516  1.0000
  C   C357      1.0  0.01652  0.94779  0.00628  1.0000
  C   C358      1.0  0.02716  0.91427  0.98032  1.0000
  H   H633      1.0  0.12141  0.93424  0.06427  1.0000
  H   H634      1.0  0.99955  0.90673  0.05970  1.0000
  H   H635      1.0  0.22908  0.74485  0.01907  1.0000
  H   H636      1.0  0.99252  0.84963  0.05412  1.0000
  H   H637      1.0  0.08404  0.98431  0.13897  1.0000
  H   H638      1.0  0.20356  0.66861  0.02027  1.0000
  C   C359      1.0  0.10518  0.97272  0.09392  1.0000
  H   H639      1.0  0.00681  0.92142  0.10174  1.0000
  H   H640      1.0  0.41455  0.91139  0.47355  1.0000
  C   C360      1.0  0.04926  0.98512  0.12540  1.0000
  S   S75       1.0  0.03587  0.95027  0.05221  1.0000
  H   H641      1.0  0.05077  0.96796  0.11724  1.0000
  H   H642      1.0  0.11883  0.97502  0.07637  1.0000
  H   H643      1.0  0.98960  0.89431  0.01218  1.0000
  C   C361      1.0  0.43079  0.94097  0.45004  1.0000
  C   C362      1.0  0.01348  0.93637  0.98466  1.0000
  H   H644      1.0  0.01499  0.86860  0.04135  1.0000
  H   H645      1.0  0.10308  0.91356  0.08394  1.0000
  H   H646      1.0  0.39927  0.95235  0.42877  1.0000
  C   C363      1.0  0.11206  0.92948  0.08440  1.0000
  H   H647      1.0  0.08414  0.94417  0.11195  1.0000
  H   H648      1.0  0.26138  0.71749  0.04141  1.0000
  C   C364      1.0  0.24794  0.74848  0.01549  1.0000
  H   H649      1.0  0.23818  0.78270  0.03098  1.0000
  N   N20       1.0  0.26437  0.70621  0.00245  1.0000
  C   C365      1.0  0.03298  0.93696  0.02398  1.0000
  Fe  Fe38      1.0  0.00523  0.97867  0.06360  1.0000
  H   H650      1.0  0.23479  0.69460  0.03038  1.0000
  H   H651      1.0  0.22603  0.71176  0.00072  1.0000
  H   H652      1.0  0.42743  0.94918  0.40787  1.0000
  H   H653      1.0  0.11570  0.96776  0.11124  1.0000
  H   H654      1.0  0.05975  0.90657  0.03305  1.0000
  C   C366      1.0  0.03810  0.98149  0.15434  1.0000
  C   C367      1.0  0.26549  0.72486  0.02017  1.0000
  H   H655      1.0  0.44868  0.93042  0.44590  1.0000
  C   C368      1.0  0.23785  0.67425  0.99724  1.0000
  H   H656      1.0  0.15059  0.74147  0.99265  1.0000
  H   H657      1.0  0.00590  0.96485  0.00940  1.0000
  H   H658      1.0  0.04970  0.96766  0.16637  1.0000
  H   H659      1.0  0.28405  0.72936  0.01861  1.0000
  S   S76       1.0  0.99305  0.97967  0.10696  1.0000
  C   C369      1.0  0.28400  0.67292  0.03635  1.0000
  H   H660      1.0  0.02033  0.97541  0.15531  1.0000
  H   H661      1.0  0.05447  0.88647  0.99456  1.0000
  C   C370      1.0  0.24016  0.69759  0.00855  1.0000
  H   H662      1.0  0.99028  0.88087  0.07943  1.0000
  H   H663      1.0  0.46699  0.70189  0.12056  1.0000
  H   H664      1.0  0.01527  0.85740  0.99598  1.0000
  H   H665      1.0  0.28461  0.67233  0.99374  1.0000
  H   H666      1.0  0.28905  0.68476  0.04950  1.0000
  C   C371      1.0  0.00776  0.84628  0.01393  1.0000
  H   H667      1.0  0.32022  0.65374  0.02928  1.0000
  C   C372      1.0  0.99913  0.86153  0.03649  1.0000
  H   H668      1.0  0.25110  0.75763  0.99490  1.0000
  H   H669      1.0  0.26609  0.66799  0.04434  1.0000
  H   H670      1.0  0.43313  0.95975  0.45120  1.0000
  H   H671      1.0  0.99656  0.89494  0.12141  1.0000
  H   H672      1.0  0.45186  0.89136  0.47290  1.0000
  C   C373      1.0  0.48355  0.97171  0.42998  1.0000
  H   H673      1.0  0.20124  0.77345  0.97693  1.0000
  H   H674      1.0  0.24776  0.65838  0.00843  1.0000
  H   H675      1.0  0.20117  0.68509  0.98733  1.0000
  C   C374      1.0  0.47540  0.98240  0.45305  1.0000
  H   H676      1.0  0.21078  0.65324  0.99117  1.0000
  C   C375      1.0  0.20148  0.79259  0.97905  1.0000
  C   C376      1.0  0.14093  0.77825  0.97602  1.0000
  H   H677      1.0  0.24523  0.67484  0.97610  1.0000
  H   H678      1.0  0.47125  0.90704  0.64277  1.0000
  S   S77       1.0  0.08690  0.87885  0.92047  1.0000
  C   C377      1.0  0.41527  0.91497  0.52369  1.0000
  Fe  Fe39      1.0  0.05503  0.82545  0.91136  1.0000
  S   S78       1.0  0.09292  0.82800  0.89384  1.0000
  S   S79       1.0  0.03489  0.79543  0.90740  1.0000
  Fe  Fe40      1.0  0.09674  0.83934  0.93306  1.0000
  H   H679      1.0  0.27350  0.75375  0.93183  1.0000
  Fe  Fe41      1.0  0.07963  0.86700  0.88279  1.0000
  S   S80       1.0  0.08894  0.88691  0.84247  1.0000
  H   H680      1.0  0.27999  0.79344  0.90062  1.0000
  S   S81       1.0  0.04130  0.86347  0.89669  1.0000
  Fe  Fe42      1.0  0.05183  0.74599  0.77319  1.0000
  S   S82       1.0  0.09041  0.73501  0.77946  1.0000
  S   S83       1.0  0.02946  0.77791  0.78946  1.0000
  Fe  Fe43      1.0  0.05046  0.70505  0.74089  1.0000
  H   H681      1.0  0.26372  0.80235  0.67535  1.0000
  Fe  Fe44      1.0  0.08104  0.69751  0.78661  1.0000
  Fe  Fe45      1.0  0.09509  0.72954  0.73647  1.0000
  S   S84       1.0  0.12597  0.74101  0.70782  1.0000
  S   S85       1.0  0.04188  0.70901  0.78434  1.0000
  S   S86       1.0  0.05697  0.74337  0.72935  1.0000
  S   S87       1.0  0.19972  0.72395  0.87675  1.0000
  S   S88       1.0  0.24882  0.68381  0.87179  1.0000
  Fe  Fe46      1.0  0.23757  0.71952  0.88642  1.0000
  S   S89       1.0  0.25842  0.75049  0.87529  1.0000
  Fe  Fe47      1.0  0.21019  0.68700  0.86492  1.0000
  C   C378      1.0  0.33453  0.78378  0.72957  1.0000
  Fe  Fe48      1.0  0.20993  0.85823  0.77503  1.0000
  S   S90       1.0  0.24744  0.84773  0.75648  1.0000
  S   S91       1.0  0.20139  0.87005  0.81570  1.0000
  Fe  Fe49      1.0  0.18707  0.84434  0.73092  1.0000
  S   S92       1.0  0.22212  0.83234  0.70809  1.0000
  S   S93       1.0  0.15178  0.84345  0.71626  1.0000
  Fe  Fe50      1.0  0.23333  0.81554  0.74763  1.0000
  S   S94       1.0  0.25481  0.77891  0.75188  1.0000
  Fe  Fe51      1.0  0.23391  0.86541  0.71821  1.0000
  S   S95       1.0  0.25718  0.88522  0.68601  1.0000
  S   S96       1.0  0.19700  0.82414  0.76974  1.0000
  S   S97       1.0  0.19757  0.87933  0.73738  1.0000
  Fe  Fe52      1.0  0.41397  0.90859  0.63029  1.0000
  S   S98       1.0  0.42705  0.94400  0.62874  1.0000
  S   S99       1.0  0.42446  0.88415  0.59871  1.0000
  Fe  Fe53      1.0  0.38410  0.91243  0.68364  1.0000
  H   H682      1.0  0.10941  0.88042  0.74664  1.0000
  S   S100      1.0  0.35856  0.89668  0.71678  1.0000
  H   H683      1.0  0.08044  0.80086  0.71596  1.0000
  H   H684      1.0  0.20029  0.76820  0.79956  1.0000
  Fe  Fe54      1.0  0.43197  0.93193  0.67173  1.0000
  S   S101      1.0  0.02145  0.89995  0.95403  1.0000
  S   S102      1.0  0.37539  0.92255  0.64161  1.0000
  S   S103      1.0  0.42166  0.89529  0.67226  1.0000
  S   S104      1.0  0.02470  0.68696  0.72301  1.0000
  C   C379      1.0  0.09431  0.87616  0.73719  1.0000
  H   H685      1.0  0.29954  0.83769  0.67594  1.0000
  H   H686      1.0  0.07081  0.88554  0.77186  1.0000
  C   C380      1.0  0.28538  0.88764  0.69495  1.0000
  C   C381      1.0  0.30506  0.88796  0.67540  1.0000
  C   C382      1.0  0.32758  0.89088  0.68187  1.0000
  C   C383      1.0  0.33055  0.89319  0.70803  1.0000
  C   C384      1.0  0.31094  0.89244  0.72768  1.0000
  C   C385      1.0  0.28835  0.88982  0.72114  1.0000
  H   H687      1.0  0.30286  0.88601  0.65516  1.0000
  H   H688      1.0  0.34271  0.89077  0.66673  1.0000
  H   H689      1.0  0.31316  0.89422  0.74796  1.0000
  H   H690      1.0  0.27316  0.88990  0.73628  1.0000
  C   C386      1.0  0.25981  0.75796  0.84065  1.0000
  C   C387      1.0  0.25988  0.78187  0.82934  1.0000
  C   C388      1.0  0.25846  0.78829  0.80203  1.0000
  C   C389      1.0  0.25811  0.77068  0.78573  1.0000
  C   C390      1.0  0.25941  0.74658  0.79676  1.0000
  C   C391      1.0  0.25971  0.74031  0.82428  1.0000
  H   H691      1.0  0.26022  0.79554  0.84174  1.0000
  H   H692      1.0  0.25756  0.80691  0.79370  1.0000
  H   H693      1.0  0.25933  0.73284  0.78427  1.0000
  H   H694      1.0  0.25991  0.72178  0.83275  1.0000
  C   C392      1.0  0.13674  0.68484  0.80005  1.0000
  C   C393      1.0  0.16053  0.68762  0.80140  1.0000
  H   H695      1.0  0.32119  0.77531  0.74459  1.0000
  C   C394      1.0  0.46889  0.86280  0.58097  1.0000
  H   H696      1.0  0.17017  0.69740  0.78492  1.0000
  C   C395      1.0  0.13280  0.76946  0.71077  1.0000
  C   C396      1.0  0.13298  0.77671  0.73573  1.0000
  C   C397      1.0  0.14003  0.79898  0.73752  1.0000
  C   C398      1.0  0.14589  0.81441  0.71440  1.0000
  C   C399      1.0  0.14528  0.80729  0.68952  1.0000
  C   C400      1.0  0.13923  0.78466  0.68771  1.0000
  H   H697      1.0  0.12814  0.76498  0.75360  1.0000
  H   H698      1.0  0.14039  0.80447  0.75676  1.0000
  H   H699      1.0  0.14953  0.81926  0.67160  1.0000
  H   H700      1.0  0.13908  0.77911  0.66839  1.0000
  C   C401      1.0  0.12018  0.88384  0.83518  1.0000
  C   C402      1.0  0.13045  0.88797  0.80880  1.0000
  C   C403      1.0  0.15539  0.88362  0.80270  1.0000
  C   C404      1.0  0.17018  0.87641  0.82307  1.0000
  C   C405      1.0  0.15990  0.87376  0.84953  1.0000
  C   C406      1.0  0.13493  0.87685  0.85560  1.0000
  H   H701      1.0  0.11917  0.89391  0.79296  1.0000
  H   H702      1.0  0.16313  0.88609  0.78224  1.0000
  H   H703      1.0  0.17124  0.86882  0.86527  1.0000
  H   H704      1.0  0.12715  0.87388  0.87605  1.0000
  H   H705      1.0  0.21547  0.85063  0.92110  1.0000
  H   H706      1.0  0.41578  0.89639  0.51908  1.0000
  C   C407      1.0  0.32950  0.95852  0.72053  1.0000
  C   C408      1.0  0.15353  0.74527  0.94988  1.0000
  S   S105      1.0  0.09379  0.67033  0.82014  1.0000
  H   H707      1.0  0.02768  0.83260  0.78265  1.0000
  H   H708      1.0  0.13138  0.65324  0.91824  1.0000
  C   C409      1.0  0.07883  0.75540  0.95591  1.0000
  H   H709      1.0  0.09991  0.85905  0.79786  1.0000
  C   C410      1.0  0.03403  0.79020  0.87459  1.0000
  C   C411      1.0  0.01274  0.78504  0.86724  1.0000
  C   C412      1.0  0.01159  0.78076  0.84118  1.0000
  C   C413      1.0  0.03205  0.78033  0.82273  1.0000
  C   C414      1.0  0.05369  0.78436  0.83039  1.0000
  C   C415      1.0  0.05450  0.79010  0.85608  1.0000
  C   C416      1.0  0.31350  0.67207  0.93953  1.0000
  H   H710      1.0  0.12509  0.65346  0.86114  1.0000
  H   H711      1.0  0.06950  0.78395  0.81615  1.0000
  H   H712      1.0  0.07097  0.79404  0.86175  1.0000
  H   H713      1.0  0.04517  0.91895  0.88181  1.0000
  S   S106      1.0  0.39520  0.94794  0.68715  1.0000
  C   C417      1.0  0.17435  0.88247  0.92307  1.0000
  H   H714      1.0  0.06346  0.76859  0.94948  1.0000
  H   H715      1.0  0.15594  0.69431  0.71476  1.0000
  C   C418      1.0  0.12574  0.66381  0.93517  1.0000
  Fe  Fe55      1.0  0.19189  0.70484  0.91773  1.0000
  N   N21       1.0  0.32290  0.80737  0.71617  1.0000
  C   C419      1.0  0.30921  0.82172  0.73731  1.0000
  C   C420      1.0  0.34053  0.82160  0.69826  1.0000
  C   C421      1.0  0.36633  0.81904  0.70629  1.0000
  C   C422      1.0  0.32405  0.82919  0.75726  1.0000
  C   C423      1.0  0.30773  0.83974  0.78015  1.0000
  C   C424      1.0  0.38131  0.83593  0.68749  1.0000
  H   H716      1.0  0.34881  0.78648  0.74118  1.0000
  H   H717      1.0  0.29971  0.83889  0.72813  1.0000
  H   H718      1.0  0.29501  0.81164  0.74885  1.0000
  H   H719      1.0  0.33329  0.84104  0.69619  1.0000
  H   H720      1.0  0.37571  0.80055  0.70517  1.0000
  H   H721      1.0  0.36639  0.82308  0.72677  1.0000
  H   H722      1.0  0.27538  0.83169  0.70144  1.0000
  H   H723      1.0  0.33617  0.81389  0.76630  1.0000
  H   H724      1.0  0.33472  0.84334  0.74707  1.0000
  H   H725      1.0  0.29540  0.85564  0.77250  1.0000
  H   H726      1.0  0.29703  0.82612  0.79166  1.0000
  H   H727      1.0  0.31878  0.84551  0.79375  1.0000
  H   H728      1.0  0.37310  0.85490  0.68799  1.0000
  H   H729      1.0  0.38291  0.83172  0.66674  1.0000
  H   H730      1.0  0.20752  0.79608  0.67790  1.0000
  C   C425      1.0  0.20441  0.75599  0.71478  1.0000
  C   C426      1.0  0.15051  0.76119  0.92654  1.0000
  C   C427      1.0  0.20721  0.77975  0.66851  1.0000
  H   H731      1.0  0.18483  0.76154  0.71373  1.0000
  H   H732      1.0  0.21072  0.77064  0.72319  1.0000
  H   H733      1.0  0.17200  0.72543  0.73631  1.0000
  H   H734      1.0  0.01572  0.83480  0.83078  1.0000
  H   H735      1.0  0.18132  0.77213  0.75734  1.0000
  H   H736      1.0  0.43914  0.96513  0.49162  1.0000
  H   H737      1.0  0.05565  0.92614  0.92135  1.0000
  H   H738      1.0  0.09718  0.93312  0.91638  1.0000
  H   H739      1.0  0.00316  0.96052  0.88593  1.0000
  H   H740      1.0  0.21814  0.78133  0.64884  1.0000
  H   H741      1.0  0.22448  0.95989  0.64521  1.0000
  C   C428      1.0  0.26764  0.68651  0.73703  1.0000
  H   H742      1.0  0.03071  0.65508  0.81236  1.0000
  C   C429      1.0  0.30705  0.94994  0.64194  1.0000
  S   S107      1.0  0.05969  0.83372  0.95183  1.0000
  C   C430      1.0  0.45985  0.89296  0.49108  1.0000
  H   H743      1.0  0.23765  0.71617  0.70619  1.0000
  H   H744      1.0  0.14131  0.67170  0.93940  1.0000
  C   C431      1.0  0.13501  0.66298  0.84447  1.0000
  H   H745      1.0  0.45202  0.95028  0.53706  1.0000
  C   C432      1.0  0.30162  0.95267  0.61263  1.0000
  H   H746      1.0  0.45169  0.92298  0.57761  1.0000
  C   C433      1.0  0.01226  0.85082  0.81576  1.0000
  H   H747      1.0  0.29550  0.94400  0.69433  1.0000
  H   H748      1.0  0.38548  0.91648  0.57337  1.0000
  Fe  Fe56      1.0  0.23650  0.66854  0.91331  1.0000
  H   H749      1.0  0.01693  0.66899  0.78274  1.0000
  H   H750      1.0  0.30337  0.93201  0.65172  1.0000
  H   H751      1.0  0.37806  0.92164  0.51423  1.0000
  H   H752      1.0  0.35813  0.91684  0.55905  1.0000
  H   H753      1.0  0.15618  0.88833  0.93287  1.0000
  Fe  Fe57      1.0  0.04931  0.87232  0.93570  1.0000
  C   C434      1.0  0.25263  0.82489  0.90252  1.0000
  H   H754      1.0  0.35183  0.96621  0.55024  1.0000
  H   H755      1.0  0.08985  0.67471  0.92528  1.0000
  H   H756      1.0  0.18219  0.72394  0.68964  1.0000
  C   C435      1.0  0.99733  0.92403  0.88805  1.0000
  H   H757      1.0  0.20808  0.70141  0.69449  1.0000
  C   C436      1.0  0.27763  0.81289  0.89296  1.0000
  H   H758      1.0  0.25130  0.84420  0.89418  1.0000
  H   H759      1.0  0.24681  0.73308  0.72846  1.0000
  H   H760      1.0  0.21373  0.82428  0.95717  1.0000
  H   H761      1.0  0.11530  0.93429  0.83067  1.0000
  H   H762      1.0  0.30647  0.71673  0.96561  1.0000
  H   H763      1.0  0.21550  0.74154  0.67621  1.0000
  H   H764      1.0  0.18850  0.77870  0.66527  1.0000
  H   H765      1.0  0.28943  0.72584  0.92192  1.0000
  C   C437      1.0  0.18306  0.75466  0.77025  1.0000
  C   C438      1.0  0.17163  0.67830  0.82425  1.0000
  H   H766      1.0  0.46229  0.91818  0.51734  1.0000
  H   H767      1.0  0.39959  0.83395  0.69371  1.0000
  H   H768      1.0  0.25118  0.72910  0.96807  1.0000
  H   H769      1.0  0.16679  0.74617  0.77027  1.0000
  C   C439      1.0  0.28877  0.82370  0.68626  1.0000
  H   H770      1.0  0.01245  0.94146  0.91503  1.0000
  H   H771      1.0  0.25112  0.82368  0.92442  1.0000
  H   H772      1.0  0.34273  0.81677  0.67764  1.0000
  H   H773      1.0  0.47993  0.98413  0.57553  1.0000
  C   C440      1.0  0.08235  0.94058  0.95535  1.0000
  H   H774      1.0  0.17617  0.89243  0.90267  1.0000
  C   C441      1.0  0.30484  0.80180  0.69952  1.0000
  C   C442      1.0  0.12648  0.74822  0.82815  1.0000
  H   H775      1.0  0.14424  0.81908  0.79704  1.0000
  H   H776      1.0  0.09955  0.69298  0.94661  1.0000
  H   H777      1.0  0.26286  0.83226  0.65754  1.0000
  H   H778      1.0  0.07290  0.89376  0.70562  1.0000
  H   H779      1.0  0.05646  0.87424  0.74880  1.0000
  H   H780      1.0  0.22146  0.74612  0.76480  1.0000
  H   H781      1.0  0.12760  0.70976  0.90899  1.0000
  H   H782      1.0  0.16810  0.77338  0.80368  1.0000
  H   H783      1.0  0.29274  0.78972  0.71170  1.0000
  S   S108      1.0  0.46634  0.93704  0.68615  1.0000
  C   C443      1.0  0.14179  0.78554  0.92808  1.0000
  H   H784      1.0  0.05156  0.81257  0.70486  1.0000
  H   H785      1.0  0.10102  0.86033  0.72666  1.0000
  H   H786      1.0  0.00023  0.65525  0.70119  1.0000
  H   H787      1.0  0.28735  0.80943  0.64922  1.0000
  H   H788      1.0  0.04239  0.83855  0.74061  1.0000
  C   C444      1.0  0.27488  0.81636  0.66584  1.0000
  C   C445      1.0  0.18389  0.76019  0.79836  1.0000
  H   H789      1.0  0.36947  0.73125  0.71064  1.0000
  N   N22       1.0  0.09285  0.72009  0.89411  1.0000
  H   H790      1.0  0.05324  0.79498  0.73697  1.0000
  S   S109      1.0  0.12863  0.82480  0.95504  1.0000
  C   C446      1.0  0.07309  0.87117  0.75869  1.0000
  S   S110      1.0  0.22879  0.70411  0.92868  1.0000
  H   H791      1.0  0.13615  0.74060  0.81031  1.0000
  H   H792      1.0  0.04434  0.95549  0.92832  1.0000
  H   H793      1.0  0.07022  0.94017  0.83119  1.0000
  H   H794      1.0  0.21316  0.78761  0.86427  1.0000
  H   H795      1.0  0.11121  0.76159  0.82183  1.0000
  H   H796      1.0  0.05846  0.82947  0.81139  1.0000
  C   C447      1.0  0.34536  0.76483  0.71075  1.0000
  C   C448      1.0  0.37782  0.91148  0.55639  1.0000
  H   H797      1.0  0.31409  0.79182  0.68307  1.0000
  H   H798      1.0  0.06865  0.72076  0.93059  1.0000
  H   H799      1.0  0.13892  0.75719  0.83702  1.0000
  C   C449      1.0  0.36275  0.74493  0.72426  1.0000
  S   S111      1.0  0.08915  0.69089  0.74405  1.0000
  H   H800      1.0  0.35497  0.77313  0.69222  1.0000
  H   H801      1.0  0.37835  0.75238  0.72917  1.0000
  H   H802      1.0  0.43209  0.97464  0.70738  1.0000
  H   H803      1.0  0.29143  0.82136  0.90022  1.0000
  H   H804      1.0  0.11753  0.74604  0.88225  1.0000
  H   H805      1.0  0.10096  0.76095  0.91906  1.0000
  H   H806      1.0  0.10305  0.90085  0.70205  1.0000
  H   H807      1.0  0.30626  0.91446  0.60900  1.0000
  H   H808      1.0  0.06992  0.97156  0.83330  1.0000
  H   H809      1.0  0.26350  0.93455  0.65219  1.0000
  H   H810      1.0  0.20587  0.72104  0.77555  1.0000
  H   H811      1.0  0.18364  0.74355  0.81282  1.0000
  H   H812      1.0  0.09484  0.82028  0.75058  1.0000
  N   N23       1.0  0.42848  0.92974  0.50121  1.0000
  H   H813      1.0  0.09050  0.75338  0.86751  1.0000
  H   H814      1.0  0.12068  0.69022  0.88828  1.0000
  C   C450      1.0  0.01239  0.94253  0.89323  1.0000
  H   H815      1.0  0.33079  0.75627  0.70511  1.0000
  C   C451      1.0  0.28953  0.74009  0.93461  1.0000
  H   H816      1.0  0.28049  0.81502  0.87087  1.0000
  H   H817      1.0  0.06594  0.73412  0.84780  1.0000
  H   H818      1.0  0.23250  0.79645  0.95093  1.0000
  C   C452      1.0  0.08721  0.89754  0.71659  1.0000
  H   H819      1.0  0.02575  0.86501  0.77645  1.0000
  H   H820      1.0  0.25964  0.93964  0.68650  1.0000
  H   H821      1.0  0.09972  0.94279  0.96171  1.0000
  C   C453      1.0  0.20591  0.73784  0.76126  1.0000
  C   C454      1.0  0.10415  0.73805  0.87359  1.0000
  C   C455      1.0  0.11758  0.72809  0.84827  1.0000
  H   H822      1.0  0.05722  0.86086  0.81037  1.0000
  H   H823      1.0  0.19273  0.70002  0.74551  1.0000
  H   H824      1.0  0.10595  0.71910  0.83835  1.0000
  H   H825      1.0  0.30581  0.74884  0.92784  1.0000
  H   H826      1.0  0.13350  0.71505  0.85327  1.0000
  H   H827      1.0  0.17479  0.84648  0.94272  1.0000
  H   H828      1.0  0.08884  0.96442  0.91940  1.0000
  C   C456      1.0  0.05620  0.84653  0.79796  1.0000
  C   C457      1.0  0.06130  0.83140  0.73498  1.0000
  H   H829      1.0  0.35361  0.73602  0.74279  1.0000
  C   C458      1.0  0.46809  0.96716  0.68847  1.0000
  S   S112      1.0  0.16177  0.71440  0.94889  1.0000
  C   C459      1.0  0.17743  0.85545  0.92196  1.0000
  C   C460      1.0  0.05854  0.94522  0.91561  1.0000
  C   C461      1.0  0.38838  0.92447  0.53023  1.0000
  H   H830      1.0  0.15850  0.79580  0.86371  1.0000
  H   H831      1.0  0.13159  0.83342  0.82597  1.0000
  C   C462      1.0  0.20269  0.84639  0.90849  1.0000
  H   H832      1.0  0.38560  0.94382  0.53208  1.0000
  H   H833      1.0  0.08566  0.69470  0.86926  1.0000
  H   H834      1.0  0.18073  0.80388  0.83632  1.0000
  C   C463      1.0  0.10499  0.68355  0.92879  1.0000
  H   H835      1.0  0.02883  0.70178  0.87485  1.0000
  H   H836      1.0  0.09296  0.82022  0.82481  1.0000
  C   C464      1.0  0.19044  0.71640  0.73082  1.0000
  C   C465      1.0  0.24160  0.69666  0.74498  1.0000
  H   H837      1.0  0.35775  0.96067  0.59818  1.0000
  S   S113      1.0  0.20166  0.68171  0.82479  1.0000
  H   H838      1.0  0.19173  0.77770  0.89109  1.0000
  C   C466      1.0  0.03936  0.71055  0.85730  1.0000
  H   H839      1.0  0.04896  0.69667  0.84508  1.0000
  C   C467      1.0  0.17720  0.79120  0.85466  1.0000
  C   C468      1.0  0.11254  0.70130  0.90421  1.0000
  C   C469      1.0  0.07573  0.70786  0.88232  1.0000
  C   C470      1.0  0.05705  0.72466  0.86606  1.0000
  C   C471      1.0  0.46298  0.90621  0.57487  1.0000
  C   C472      1.0  0.43344  0.95866  0.53428  1.0000
  C   C473      1.0  0.36039  0.97743  0.58596  1.0000
  C   C474      1.0  0.03819  0.93851  0.87864  1.0000
  C   C475      1.0  0.12394  0.67254  0.82156  1.0000
  H   H840      1.0  0.08087  0.91392  0.72638  1.0000
  H   H841      1.0  0.17923  0.77276  0.84932  1.0000
  H   H842      1.0  0.22164  0.93519  0.67137  1.0000
  H   H843      1.0  0.02675  0.72299  0.84506  1.0000
  H   H844      1.0  0.04644  0.73823  0.87792  1.0000
  H   H845      1.0  0.10419  0.95428  0.80293  1.0000
  H   H846      1.0  0.32244  0.94209  0.73103  1.0000
  H   H847      1.0  0.06527  0.74753  0.90827  1.0000
  H   H848      1.0  0.06879  0.84461  0.71920  1.0000
  H   H849      1.0  0.06538  0.69697  0.89831  1.0000
  C   C476      1.0  0.45413  0.88451  0.58407  1.0000
  H   H850      1.0  0.13440  0.80132  0.82751  1.0000
  H   H851      1.0  0.06786  0.95260  0.96556  1.0000
  C   C477      1.0  0.19485  0.79202  0.87439  1.0000
  H   H852      1.0  0.16739  0.65876  0.86362  1.0000
  C   C478      1.0  0.07899  0.73309  0.91625  1.0000
  H   H853      1.0  0.38159  0.89170  0.55653  1.0000
  H   H854      1.0  0.27012  0.68251  0.71615  1.0000
  H   H855      1.0  0.11385  0.96635  0.82980  1.0000
  C   C479      1.0  0.42697  0.95537  0.50663  1.0000
  H   H856      1.0  0.13896  0.79776  0.91015  1.0000
  H   H857      1.0  0.16284  0.85206  0.91126  1.0000
  N   N24       1.0  0.07593  0.84677  0.77511  1.0000
  C   C480      1.0  0.09397  0.74553  0.93194  1.0000
  C   C481      1.0  0.13048  0.81853  0.81457  1.0000
  H   H858      1.0  0.10451  0.80431  0.79666  1.0000
  C   C482      1.0  0.25620  0.94784  0.66606  1.0000
  H   H859      1.0  0.19395  0.83039  0.86582  1.0000
  H   H860      1.0  0.17207  0.82075  0.89174  1.0000
  H   H861      1.0  0.03602  0.94275  0.85711  1.0000
  C   C483      1.0  0.10538  0.82042  0.80619  1.0000
  C   C484      1.0  0.03025  0.84891  0.79088  1.0000
  C   C485      1.0  0.17430  0.68857  0.70537  1.0000
  H   H862      1.0  0.40884  0.96554  0.50404  1.0000
  C   C486      1.0  0.21375  0.80550  0.95377  1.0000
  C   C487      1.0  0.20086  0.80394  0.92944  1.0000
  C   C488      1.0  0.19127  0.81714  0.88397  1.0000
  H   H863      1.0  0.07043  0.81042  0.77224  1.0000
  H   H864      1.0  0.15404  0.75458  0.90744  1.0000
  C   C489      1.0  0.23407  0.72039  0.72692  1.0000
  H   H865      1.0  0.18124  0.80711  0.93532  1.0000
  H   H866      1.0  0.28296  0.67751  0.91726  1.0000
  C   C490      1.0  0.13722  0.79410  0.95284  1.0000
  N   N25       1.0  0.20869  0.73247  0.73285  1.0000
  C   C491      1.0  0.23288  0.81335  0.89286  1.0000
  H   H867      1.0  0.20602  0.85783  0.88905  1.0000
  C   C492      1.0  0.32667  0.96137  0.69087  1.0000
  H   H868      1.0  0.23777  0.79350  0.89620  1.0000
  H   H869      1.0  0.11474  0.84391  0.77092  1.0000
  H   H870      1.0  0.23479  0.81842  0.87084  1.0000
  H   H871      1.0  0.20478  0.78480  0.92607  1.0000
  C   C493      1.0  0.09942  0.84372  0.78691  1.0000
  C   C494      1.0  0.07624  0.82638  0.75906  1.0000
  C   C495      1.0  0.06173  0.80852  0.72247  1.0000
  H   H872      1.0  0.27258  0.66960  0.75024  1.0000
  H   H873      1.0  0.26865  0.70200  0.96075  1.0000
  Fe  Fe58      1.0  0.38921  0.95672  0.64427  1.0000
  C   C496      1.0  0.31385  0.93088  0.59934  1.0000
  H   H874      1.0  0.32047  0.68808  0.92952  1.0000
  N   N26       1.0  0.20723  0.82024  0.90431  1.0000
  H   H875      1.0  0.99690  0.78501  0.88152  1.0000
  H   H876      1.0  0.23032  0.68282  0.74327  1.0000
  C   C497      1.0  0.45452  0.91893  0.49841  1.0000
  H   H877      1.0  0.39880  0.94019  0.47761  1.0000
  H   H878      1.0  0.99380  0.85174  0.81040  1.0000
  H   H879      1.0  0.24024  0.69949  0.76616  1.0000
  C   C498      1.0  0.22905  0.95243  0.66553  1.0000
  C   C499      1.0  0.30004  0.96225  0.68645  1.0000
  H   H880      1.0  0.01341  0.86720  0.82469  1.0000
  C   C500      1.0  0.08311  0.94651  0.92515  1.0000
  C   C501      1.0  0.05957  0.66051  0.69205  1.0000
  C   C502      1.0  0.29232  0.66607  0.93258  1.0000
  H   H881      1.0  0.42436  0.91270  0.54206  1.0000
  C   C503      1.0  0.21723  0.75719  0.68596  1.0000
  H   H882      1.0  0.47885  0.87618  0.63726  1.0000
  H   H883      1.0  0.23665  0.75779  0.68633  1.0000
  H   H884      1.0  0.46210  0.84599  0.58804  1.0000
  C   C504      1.0  0.18998  0.70848  0.70329  1.0000
  H   H885      1.0  0.33343  0.92807  0.60076  1.0000
  H   H886      1.0  0.42096  0.95084  0.55062  1.0000
  H   H887      1.0  0.08604  0.92759  0.87371  1.0000
  H   H888      1.0  0.33773  0.94579  0.68250  1.0000
  C   C505      1.0  0.07921  0.95326  0.83897  1.0000
  H   H889      1.0  0.07936  0.92163  0.96152  1.0000
  H   H890      1.0  0.34876  0.95679  0.72332  1.0000
  C   C506      1.0  0.14852  0.75380  0.97458  1.0000
  H   H891      1.0  0.45281  0.88015  0.50769  1.0000
  C   C507      1.0  0.28966  0.72942  0.96385  1.0000
  H   H892      1.0  0.32676  0.94935  0.64120  1.0000
  C   C508      1.0  0.03528  0.66517  0.70138  1.0000
  C   C509      1.0  0.04566  0.97919  0.88154  1.0000
  H   H893      1.0  0.17287  0.68431  0.68518  1.0000
  H   H894      1.0  0.99693  0.92418  0.86637  1.0000
  H   H895      1.0  0.10918  0.73295  0.93951  1.0000
  N   N27       1.0  0.05579  0.95296  0.88633  1.0000
  H   H896      1.0  0.12834  0.69221  0.78228  1.0000
  C   C510      1.0  0.26736  0.71647  0.97344  1.0000
  C   C511      1.0  0.01966  0.65233  0.79696  1.0000
  H   H897      1.0  0.07203  0.74062  0.97015  1.0000
  H   H898      1.0  0.18785  0.88696  0.93469  1.0000
  S   S114      1.0  0.19876  0.66797  0.90521  1.0000
  H   H899      1.0  0.31092  0.93375  0.57799  1.0000
  H   H900      1.0  0.00464  0.90581  0.89693  1.0000
  C   C512      1.0  0.10472  0.95196  0.82481  1.0000
  H   H901      1.0  0.27979  0.69948  0.73918  1.0000
  S   S115      1.0  0.35216  0.66506  0.96774  1.0000
  N   N28       1.0  0.29419  0.96911  0.65813  1.0000
  C   C513      1.0  0.15882  0.66611  0.84595  1.0000
  H   H902      1.0  0.26195  0.97975  0.63832  1.0000
  C   C514      1.0  0.26739  0.97146  0.65812  1.0000
  H   H903      1.0  0.08999  0.76466  0.96626  1.0000
  H   H904      1.0  0.09344  0.95635  0.87509  1.0000
  C   C515      1.0  0.07937  0.94715  0.86957  1.0000
  H   H905      1.0  0.22056  0.96502  0.67982  1.0000
  H   H906      1.0  0.18221  0.67204  0.71739  1.0000
  H   H907      1.0  0.99479  0.77783  0.83528  1.0000
  H   H908      1.0  0.07215  0.67101  0.69726  1.0000
  H   H909      1.0  0.30843  0.96882  0.60111  1.0000
  H   H910      1.0  0.25824  0.98409  0.67216  1.0000
  C   C516      1.0  0.44846  0.98191  0.69960  1.0000
  H   H911      1.0  0.46530  0.93058  0.48368  1.0000
  H   H912      1.0  0.28216  0.95420  0.61113  1.0000
  H   H913      1.0  0.00033  0.94462  0.97137  1.0000
  H   H914      1.0  0.12702  0.65249  0.72531  1.0000
  H   H915      1.0  0.03918  0.98364  0.86154  1.0000
  H   H916      1.0  0.02939  0.98314  0.89574  1.0000
  C   C517      1.0  0.35729  0.98046  0.55884  1.0000
  C   C518      1.0  0.32591  0.65715  0.95904  1.0000
  H   H917      1.0  0.28865  0.97435  0.69977  1.0000
  H   H918      1.0  0.31988  0.97441  0.72959  1.0000
  H   H919      1.0  0.36141  0.65960  0.90760  1.0000
  H   H920      1.0  0.33414  0.97782  0.68143  1.0000
  C   C519      1.0  0.43196  0.98515  0.53708  1.0000
  H   H921      1.0  0.29013  0.74435  0.97535  1.0000
  C   C520      1.0  0.41717  0.92988  0.47610  1.0000
  H   H922      1.0  0.92874  0.08121  0.08150  1.0000
  S   S116      1.0  0.85213  0.03612  0.98839  1.0000
  Fe  Fe59      1.0  0.96909  0.02114  0.04749  1.0000
  S   S117      1.0  0.95672  0.04517  0.01139  1.0000
  S   S118      1.0  0.95387  0.02582  0.08951  1.0000
  H   H923      1.0  0.67337  0.12632  0.99552  1.0000
  H   H924      1.0  0.52941  0.06697  0.44349  1.0000
  H   H925      1.0  0.82763  0.01022  0.03354  1.0000
  H   H926      1.0  0.55109  0.31469  0.98194  1.0000
  C   C521      1.0  0.92815  0.04142  0.00456  1.0000
  C   C522      1.0  0.89005  0.02651  0.01796  1.0000
  H   H927      1.0  0.79408  0.00831  0.07292  1.0000
  C   C523      1.0  0.63278  0.04802  0.27794  1.0000
  H   H928      1.0  0.61484  0.05738  0.28470  1.0000
  H   H929      1.0  0.58159  0.98922  0.34643  1.0000
  C   C524      1.0  0.91973  0.05263  0.98061  1.0000
  H   H930      1.0  0.60708  0.01982  0.31543  1.0000
  H   H931      1.0  0.82740  0.18973  0.03738  1.0000
  H   H932      1.0  0.92280  0.06494  0.05601  1.0000
  H   H933      1.0  0.71035  0.10020  0.99694  1.0000
  C   C525      1.0  0.63262  0.02088  0.28115  1.0000
  C   C526      1.0  0.59604  0.99118  0.35827  1.0000
  C   C527      1.0  0.79140  0.00763  0.05198  1.0000
  H   H934      1.0  0.50640  0.02266  0.47112  1.0000
  H   H935      1.0  0.96746  0.09414  0.12170  1.0000
  C   C528      1.0  0.91333  0.02819  0.02318  1.0000
  C   C529      1.0  0.96628  0.17623  0.20622  1.0000
  H   H936      1.0  0.75196  0.16156  0.99696  1.0000
  C   C530      1.0  0.75256  0.14207  0.99602  1.0000
  H   H937      1.0  0.85366  0.16883  0.00316  1.0000
  H   H938      1.0  0.91968  0.01956  0.04175  1.0000
  H   H939      1.0  0.96559  0.11427  0.09106  1.0000
  C   C531      1.0  0.90354  0.10599  0.02279  1.0000
  H   H940      1.0  0.87854  0.01664  0.03259  1.0000
  H   H941      1.0  0.64601  0.15718  0.99108  1.0000
  C   C532      1.0  0.87302  0.14126  0.03070  1.0000
  H   H942      1.0  0.96620  0.13736  0.12799  1.0000
  H   H943      1.0  0.66853  0.17254  0.00058  1.0000
  H   H944      1.0  0.59675  0.01057  0.35830  1.0000
  C   C533      1.0  0.85162  0.09363  0.04023  1.0000
  H   H945      1.0  0.90940  0.11889  0.05948  1.0000
  C   C534      1.0  0.88725  0.13317  0.98546  1.0000
  H   H946      1.0  0.91983  0.11410  0.01369  1.0000
  H   H947      1.0  0.85841  0.18821  0.04231  1.0000
  C   C535      1.0  0.82873  0.08352  0.03791  1.0000
  H   H948      1.0  0.83218  0.07063  0.02312  1.0000
  H   H949      1.0  0.77933  0.03361  0.01882  1.0000
  H   H950      1.0  0.49498  0.04259  0.44320  1.0000
  H   H951      1.0  0.86819  0.09160  0.00060  1.0000
  H   H952      1.0  0.86914  0.13407  0.05190  1.0000
  H   H953      1.0  0.52086  0.00655  0.42930  1.0000
  H   H954      1.0  0.84234  0.00780  0.07205  1.0000
  H   H955      1.0  0.94359  0.08671  0.04822  1.0000
  H   H956      1.0  0.76606  0.04050  0.05130  1.0000
  H   H957      1.0  0.65069  0.01270  0.27340  1.0000
  H   H958      1.0  0.84706  0.10600  0.05550  1.0000
  H   H959      1.0  0.86496  0.07830  0.04718  1.0000
  H   H960      1.0  0.67300  0.08137  0.00903  1.0000
  H   H961      1.0  0.53770  0.04751  0.47198  1.0000
  H   H962      1.0  0.97329  0.13459  0.18392  1.0000
  C   C536      1.0  0.85045  0.15884  0.02333  1.0000
  Fe  Fe60      1.0  0.95582  0.98566  0.09512  1.0000
  H   H963      1.0  0.83963  0.16840  0.06343  1.0000
  C   C537      1.0  0.78288  0.03327  0.03975  1.0000
  H   H964      1.0  0.79662  0.04510  0.04008  1.0000
  C   C538      1.0  0.92655  0.08257  0.06005  1.0000
  H   H965      1.0  0.82232  0.07394  0.05744  1.0000
  C   C539      1.0  0.71177  0.15059  0.97867  1.0000
  H   H966      1.0  0.81307  0.19033  0.99515  1.0000
  C   C540      1.0  0.78242  0.21422  0.98289  1.0000
  H   H967      1.0  0.77156  0.13421  0.99161  1.0000
  C   C541      1.0  0.98329  0.12705  0.12036  1.0000
  H   H968      1.0  0.89847  0.14760  0.98544  1.0000
  C   C542      1.0  0.52894  0.02165  0.43433  1.0000
  H   H969      1.0  0.90571  0.08809  0.01571  1.0000
  H   H970      1.0  0.95525  0.18749  0.19139  1.0000
  H   H971      1.0  0.54550  0.01406  0.44374  1.0000
  H   H972      1.0  0.53359  0.03344  0.41565  1.0000
  H   H973      1.0  0.78352  0.22668  0.99663  1.0000
  C   C543      1.0  0.85098  0.98803  0.10939  1.0000
  H   H974      1.0  0.63740  0.05473  0.25663  1.0000
  H   H975      1.0  0.74547  0.13324  0.01567  1.0000
  H   H976      1.0  0.70530  0.14687  0.00019  1.0000
  H   H977      1.0  0.64634  0.05246  0.28953  1.0000
  C   C544      1.0  0.88154  0.03798  0.99415  1.0000
  C   C545      1.0  0.90580  0.10204  0.05314  1.0000
  H   H978      1.0  0.61920  0.01764  0.26866  1.0000
  H   H979      1.0  0.88939  0.09674  0.06516  1.0000
  C   C546      1.0  0.52188  0.05628  0.46178  1.0000
  H   H980      1.0  0.95587  0.16244  0.21786  1.0000
  C   C547      1.0  0.64115  0.19487  0.97945  1.0000
  C   C548      1.0  0.51106  0.03561  0.45346  1.0000
  C   C549      1.0  0.65780  0.17124  0.98435  1.0000
  C   C550      1.0  0.69917  0.09915  0.98102  1.0000
  C   C551      1.0  0.84365  0.17738  0.04286  1.0000
  H   H981      1.0  0.81444  0.09821  0.03174  1.0000
  C   C552      1.0  0.86169  0.10623  0.01308  1.0000
  H   H982      1.0  0.84652  0.11697  0.00308  1.0000
  H   H983      1.0  0.59351  0.98817  0.30031  1.0000
  H   H984      1.0  0.52742  0.10050  0.46515  1.0000
  H   H985      1.0  0.83484  0.14914  0.02402  1.0000
  C   C553      1.0  0.79913  0.19357  0.98213  1.0000
  H   H986      1.0  0.49805  0.08859  0.42397  1.0000
  N   N29       1.0  0.88116  0.12139  0.01356  1.0000
  H   H987      1.0  0.88785  0.15211  0.03021  1.0000
  H   H988      1.0  0.63706  0.01793  0.32313  1.0000
  C   C554      1.0  0.81465  0.99711  0.03601  1.0000
  C   C555      1.0  0.68488  0.07825  0.99046  1.0000
  H   H989      1.0  0.87067  0.14214  0.97675  1.0000
  C   C556      1.0  0.48831  0.09996  0.43892  1.0000
  H   H990      1.0  0.48420  0.09433  0.31988  1.0000
  C   C557      1.0  0.62571  0.01101  0.31058  1.0000
  H   H991      1.0  0.83351  0.99480  0.12008  1.0000
  H   H992      1.0  0.69746  0.06144  0.99450  1.0000
  H   H993      1.0  0.86451  0.99935  0.11211  1.0000
  H   H994      1.0  0.77689  0.99684  0.05136  1.0000
  H   H995      1.0  0.62929  0.19830  0.99794  1.0000
  H   H996      1.0  0.97312  0.15923  0.15853  1.0000
  C   C558      1.0  0.97716  0.10674  0.10703  1.0000
  H   H997      1.0  0.49887  0.11442  0.44040  1.0000
  H   H998      1.0  0.97039  0.18795  0.22011  1.0000
  H   H999      1.0  0.80988  0.99705  0.01562  1.0000
  C   C559      1.0  0.84888  0.98898  0.07975  1.0000
  H   H1000     1.0  0.57209  0.99088  0.39511  1.0000
  Fe  Fe61      1.0  0.83308  0.09088  0.90196  1.0000
  S   S119      1.0  0.85108  0.09419  0.86013  1.0000
  Fe  Fe62      1.0  0.78775  0.08121  0.93631  1.0000
  S   S120      1.0  0.75260  0.06686  0.94287  1.0000
  S   S121      1.0  0.79866  0.11484  0.91220  1.0000
  S   S122      1.0  0.82065  0.05683  0.92318  1.0000
  Fe  Fe63      1.0  0.69220  0.11155  0.77446  1.0000
  S   S123      1.0  0.67155  0.08267  0.79603  1.0000
  S   S124      1.0  0.72547  0.09876  0.74883  1.0000
  Fe  Fe64      1.0  0.65609  0.15061  0.79519  1.0000
  S   S125      1.0  0.63248  0.12510  0.81842  1.0000
  S   S126      1.0  0.64640  0.19016  0.79646  1.0000
  Fe  Fe65      1.0  0.66702  0.10392  0.83020  1.0000
  S   S127      1.0  0.66719  0.08466  0.87176  1.0000
  Fe  Fe66      1.0  0.63914  0.10619  0.78214  1.0000
  S   S128      1.0  0.61120  0.08586  0.77198  1.0000
  S   S129      1.0  0.69032  0.13096  0.80994  1.0000
  S   S130      1.0  0.66007  0.13364  0.75747  1.0000
  Fe  Fe67      1.0  0.67452  0.24564  0.91466  1.0000
  S   S131      1.0  0.65785  0.21328  0.91069  1.0000
  C   C560      1.0  0.64827  0.01982  0.82761  1.0000
  H   H1001     1.0  0.64803  0.04589  0.85383  1.0000
  Fe  Fe68      1.0  0.70167  0.28694  0.89256  1.0000
  H   H1002     1.0  0.58892  0.09724  0.82997  1.0000
  H   H1003     1.0  0.88005  0.31273  0.59742  1.0000
  S   S132      1.0  0.71362  0.24756  0.90286  1.0000
  Fe  Fe69      1.0  0.83002  0.21323  0.77961  1.0000
  S   S133      1.0  0.79580  0.20026  0.77468  1.0000
  S   S134      1.0  0.84315  0.20524  0.81990  1.0000
  Fe  Fe70      1.0  0.83596  0.23849  0.72325  1.0000
  S   S135      1.0  0.80271  0.22697  0.71323  1.0000
  C   C561      1.0  0.78000  0.18176  0.94751  1.0000
  Fe  Fe71      1.0  0.78665  0.23703  0.75293  1.0000
  S   S136      1.0  0.74928  0.25645  0.75654  1.0000
  Fe  Fe72      1.0  0.81490  0.19130  0.73557  1.0000
  S   S137      1.0  0.81286  0.15772  0.71823  1.0000
  S   S138      1.0  0.81890  0.25124  0.76169  1.0000
  S   S139      1.0  0.85020  0.20156  0.74186  1.0000
  Fe  Fe73      1.0  0.54335  0.08815  0.65366  1.0000
  S   S140      1.0  0.54114  0.05018  0.67256  1.0000
  S   S141      1.0  0.56190  0.11628  0.66611  1.0000
  Fe  Fe74      1.0  0.51726  0.08319  0.60689  1.0000
  S   S142      1.0  0.51223  0.04496  0.62162  1.0000
  H   H1004     1.0  0.50455  0.20629  0.58924  1.0000
  S   S143      1.0  0.50474  0.09624  0.64626  1.0000
  H   H1005     1.0  0.60591  0.04399  0.82293  1.0000
  Fe  Fe75      1.0  0.55029  0.04073  0.63097  1.0000
  S   S144      1.0  0.57634  0.00894  0.61946  1.0000
  H   H1006     1.0  0.62035  0.00068  0.64978  1.0000
  S   S145      1.0  0.55606  0.07799  0.61303  1.0000
  S   S146      1.0  0.70449  0.29627  0.93287  1.0000
  C   C562      1.0  0.55158  0.02317  0.54794  1.0000
  H   H1007     1.0  0.59425  0.01156  0.85825  1.0000
  C   C563      1.0  0.57142  0.00640  0.58689  1.0000
  H   H1008     1.0  0.91435  0.14493  0.93664  1.0000
  H   H1009     1.0  0.48846  0.14690  0.66307  1.0000
  C   C564      1.0  0.59127  0.30357  0.93640  1.0000
  C   C565      1.0  0.97515  0.30628  0.56682  1.0000
  H   H1010     1.0  0.76252  0.31020  0.72760  1.0000
  N   N30       1.0  0.69405  0.14445  0.96198  1.0000
  H   H1011     1.0  0.53724  0.10833  0.82084  1.0000
  Fe  Fe76      1.0  0.50344  0.05746  0.66174  1.0000
  C   C566      1.0  0.51318  0.15747  0.59711  1.0000
  H   H1012     1.0  0.62245  0.06762  0.82319  1.0000
  C   C567      1.0  0.72991  0.15389  0.89148  1.0000
  C   C568      1.0  0.60799  0.07627  0.87376  1.0000
  C   C569      1.0  0.61396  0.05320  0.83646  1.0000
  C   C570      1.0  0.63488  0.03558  0.84810  1.0000
  H   H1013     1.0  0.67641  0.07189  0.70086  1.0000
  H   H1014     1.0  0.72033  0.14389  0.88014  1.0000
  C   C571      1.0  0.73065  0.29176  0.83206  1.0000
  H   H1015     1.0  0.67039  0.06386  0.73627  1.0000
  C   C572      1.0  0.74267  0.26870  0.78646  1.0000
  C   C573      1.0  0.72017  0.26770  0.80113  1.0000
  C   C574      1.0  0.71435  0.27881  0.82432  1.0000
  H   H1016     1.0  0.70725  0.25838  0.79460  1.0000
  H   H1017     1.0  0.69695  0.27806  0.83567  1.0000
  C   C575      1.0  0.65072  0.19671  0.82783  1.0000
  C   C576      1.0  0.65128  0.17854  0.84946  1.0000
  C   C577      1.0  0.65374  0.18384  0.87476  1.0000
  C   C578      1.0  0.65634  0.20717  0.87841  1.0000
  C   C579      1.0  0.65674  0.22522  0.85662  1.0000
  C   C580      1.0  0.65361  0.22004  0.83135  1.0000
  H   H1018     1.0  0.64921  0.16050  0.84690  1.0000
  H   H1019     1.0  0.65350  0.16984  0.89155  1.0000
  H   H1020     1.0  0.65881  0.24326  0.85938  1.0000
  H   H1021     1.0  0.65342  0.23408  0.81459  1.0000
  C   C581      1.0  0.74929  0.11582  0.74160  1.0000
  C   C582      1.0  0.75066  0.13525  0.75505  1.0000
  C   C583      1.0  0.76998  0.14862  0.74793  1.0000
  C   C584      1.0  0.78794  0.14232  0.72763  1.0000
  C   C585      1.0  0.78654  0.12274  0.71458  1.0000
  C   C586      1.0  0.76737  0.10954  0.72157  1.0000
  H   H1022     1.0  0.73700  0.13981  0.77095  1.0000
  H   H1023     1.0  0.77113  0.16361  0.75818  1.0000
  H   H1024     1.0  0.80043  0.11772  0.69900  1.0000
  H   H1025     1.0  0.76649  0.09448  0.71122  1.0000
  C   C587      1.0  0.59678  0.09564  0.74323  1.0000
  C   C588      1.0  0.60279  0.11546  0.72540  1.0000
  C   C589      1.0  0.59163  0.12200  0.70193  1.0000
  C   C590      1.0  0.57455  0.10870  0.69626  1.0000
  C   C591      1.0  0.56819  0.08924  0.71440  1.0000
  C   C592      1.0  0.57930  0.08271  0.73783  1.0000
  H   H1026     1.0  0.61617  0.12558  0.72954  1.0000
  H   H1027     1.0  0.59651  0.13716  0.68797  1.0000
  H   H1028     1.0  0.55471  0.07920  0.71040  1.0000
  H   H1029     1.0  0.57448  0.06749  0.75171  1.0000
  C   C593      1.0  0.84738  0.17426  0.83074  1.0000
  C   C594      1.0  0.84426  0.16615  0.85799  1.0000
  C   C595      1.0  0.84596  0.14155  0.86703  1.0000
  C   C596      1.0  0.85143  0.12485  0.84888  1.0000
  C   C597      1.0  0.85577  0.13285  0.82167  1.0000
  C   C598      1.0  0.85323  0.15757  0.81253  1.0000
  H   H1030     1.0  0.83987  0.17883  0.87215  1.0000
  H   H1031     1.0  0.84299  0.13557  0.88809  1.0000
  H   H1032     1.0  0.86066  0.12000  0.80763  1.0000
  H   H1033     1.0  0.85592  0.16368  0.79145  1.0000
  C   C599      1.0  0.73087  0.07150  0.92046  1.0000
  C   C600      1.0  0.73178  0.08780  0.89701  1.0000
  C   C601      1.0  0.71253  0.09190  0.88123  1.0000
  C   C602      1.0  0.69254  0.07977  0.88916  1.0000
  C   C603      1.0  0.69198  0.06348  0.91242  1.0000
  C   C604      1.0  0.71107  0.05926  0.92782  1.0000
  H   H1034     1.0  0.74698  0.09748  0.89142  1.0000
  H   H1035     1.0  0.71286  0.10471  0.86337  1.0000
  H   H1036     1.0  0.67662  0.05410  0.91866  1.0000
  H   H1037     1.0  0.71029  0.04667  0.94588  1.0000
  C   C605      1.0  0.57846  0.08350  0.84195  1.0000
  S   S147      1.0  0.66212  0.28439  0.90040  1.0000
  C   C606      1.0  0.93635  0.31414  0.59671  1.0000
  H   H1038     1.0  0.81824  0.24441  0.84458  1.0000
  H   H1039     1.0  0.90960  0.28071  0.60884  1.0000
  H   H1040     1.0  0.62980  0.19421  0.96353  1.0000
  H   H1041     1.0  0.67526  0.99048  0.63924  1.0000
  H   H1042     1.0  0.83964  0.28034  0.80673  1.0000
  H   H1043     1.0  0.80374  0.29369  0.88768  1.0000
  H   H1044     1.0  0.90111  0.24179  0.65300  1.0000
  H   H1045     1.0  0.75746  0.20490  0.84309  1.0000
  S   S148      1.0  0.67583  0.25131  0.95687  1.0000
  H   H1046     1.0  0.68216  0.18220  0.95054  1.0000
  C   C607      1.0  0.53832  0.16541  0.59541  1.0000
  H   H1047     1.0  0.61748  0.08254  0.92448  1.0000
  H   H1048     1.0  0.73959  0.23169  0.85273  1.0000
  H   H1049     1.0  0.52769  0.17318  0.67696  1.0000
  C   C608      1.0  0.92909  0.26488  0.64240  1.0000
  H   H1050     1.0  0.75479  0.27802  0.91042  1.0000
  H   H1051     1.0  0.51199  0.19057  0.63371  1.0000
  C   C609      1.0  0.85717  0.29032  0.69906  1.0000
  C   C610      1.0  0.55779  0.02541  0.57282  1.0000
  H   H1052     1.0  0.92644  0.31125  0.58038  1.0000
  H   H1053     1.0  0.79294  0.21510  0.85910  1.0000
  H   H1054     1.0  0.69809  0.17376  0.90869  1.0000
  H   H1055     1.0  0.66388  0.00838  0.83604  1.0000
  H   H1056     1.0  0.65495  0.03114  0.80936  1.0000
  H   H1057     1.0  0.89508  0.28679  0.64035  1.0000
  H   H1058     1.0  0.84712  0.19127  0.91478  1.0000
  C   C611      1.0  0.77098  0.28646  0.91104  1.0000
  H   H1059     1.0  0.73947  0.11856  0.97399  1.0000
  Fe  Fe77      1.0  0.71383  0.25667  0.94371  1.0000
  C   C612      1.0  0.71377  0.16155  0.91595  1.0000
  C   C613      1.0  0.49799  0.05828  0.50591  1.0000
  C   C614      1.0  0.76288  0.31267  0.91531  1.0000
  H   H1060     1.0  0.79662  0.27962  0.71378  1.0000
  H   H1061     1.0  0.76009  0.26205  0.86942  1.0000
  N   N31       1.0  0.70718  0.20547  0.73054  1.0000
  C   C615      1.0  0.71395  0.22565  0.70957  1.0000
  C   C616      1.0  0.68039  0.20855  0.73843  1.0000
  C   C617      1.0  0.71934  0.20689  0.75477  1.0000
  C   C618      1.0  0.71592  0.18118  0.72164  1.0000
  C   C619      1.0  0.70661  0.17624  0.69620  1.0000
  C   C620      1.0  0.74093  0.22436  0.69912  1.0000
  C   C621      1.0  0.71039  0.19205  0.78116  1.0000
  C   C622      1.0  0.66387  0.21969  0.71660  1.0000
  C   C623      1.0  0.63767  0.21719  0.72639  1.0000
  C   C624      1.0  0.71944  0.15257  0.68732  1.0000
  C   C625      1.0  0.74576  0.24673  0.67981  1.0000
  C   C626      1.0  0.72775  0.18990  0.80205  1.0000
  H   H1062     1.0  0.70810  0.24318  0.71744  1.0000
  H   H1063     1.0  0.70447  0.22680  0.69173  1.0000
  H   H1064     1.0  0.67478  0.19097  0.74750  1.0000
  H   H1065     1.0  0.67540  0.22071  0.75411  1.0000
  H   H1066     1.0  0.71676  0.22574  0.75916  1.0000
  H   H1067     1.0  0.73902  0.20140  0.75109  1.0000
  H   H1068     1.0  0.73585  0.17806  0.71874  1.0000
  H   H1069     1.0  0.71079  0.16667  0.73740  1.0000
  H   H1070     1.0  0.70950  0.19061  0.67944  1.0000
  H   H1071     1.0  0.68727  0.17449  0.70027  1.0000
  H   H1072     1.0  0.75207  0.22322  0.71553  1.0000
  H   H1073     1.0  0.74700  0.20850  0.68840  1.0000
  H   H1074     1.0  0.70774  0.17382  0.77829  1.0000
  H   H1075     1.0  0.69311  0.20130  0.78962  1.0000
  H   H1076     1.0  0.66517  0.23918  0.71156  1.0000
  H   H1077     1.0  0.66865  0.21133  0.69809  1.0000
  C   C627      1.0  0.57469  0.00179  0.71802  1.0000
  H   H1078     1.0  0.62610  0.22578  0.71076  1.0000
  H   H1079     1.0  0.63527  0.19793  0.73105  1.0000
  H   H1080     1.0  0.73913  0.15277  0.68364  1.0000
  H   H1081     1.0  0.71566  0.13732  0.70275  1.0000
  H   H1082     1.0  0.71295  0.14970  0.66865  1.0000
  H   H1083     1.0  0.76511  0.24519  0.67228  1.0000
  H   H1084     1.0  0.73527  0.24873  0.66257  1.0000
  H   H1085     1.0  0.74105  0.26300  0.69013  1.0000
  H   H1086     1.0  0.74517  0.17958  0.79542  1.0000
  H   H1087     1.0  0.73068  0.20802  0.80553  1.0000
  H   H1088     1.0  0.72018  0.18039  0.82111  1.0000
  H   H1089     1.0  0.59268  0.30814  0.95642  1.0000
  C   C628      1.0  0.51138  0.16417  0.68193  1.0000
  H   H1090     1.0  0.59571  0.10888  0.92815  1.0000
  C   C629      1.0  0.53938  0.08400  0.50251  1.0000
  H   H1091     1.0  0.54084  0.03792  0.53763  1.0000
  H   H1092     1.0  0.55370  0.14465  0.56298  1.0000
  S   S149      1.0  0.72299  0.30754  0.85946  1.0000
  H   H1093     1.0  0.51233  0.04328  0.51101  1.0000
  H   H1094     1.0  0.56596  0.00323  0.89913  1.0000
  C   C630      1.0  0.55941  0.00956  0.87940  1.0000
  H   H1095     1.0  0.83002  0.29366  0.85228  1.0000
  H   H1096     1.0  0.77983  0.27756  0.92870  1.0000
  H   H1097     1.0  0.94780  0.26314  0.63294  1.0000
  H   H1098     1.0  0.53214  0.07774  0.52310  1.0000
  C   C631      1.0  0.75941  0.28056  0.79505  1.0000
  H   H1099     1.0  0.79864  0.24304  0.91875  1.0000
  C   C632      1.0  0.49088  0.00080  0.67965  1.0000
  H   H1100     1.0  0.93124  0.06267  0.96606  1.0000
  C   C633      1.0  0.77504  0.24813  0.87580  1.0000
  H   H1101     1.0  0.77597  0.28882  0.68920  1.0000
  H   H1102     1.0  0.51910  0.30630  0.92054  1.0000
  H   H1103     1.0  0.60426  0.31259  0.92176  1.0000
  H   H1104     1.0  0.59917  0.27103  0.91705  1.0000
  N   N32       1.0  0.78794  0.08717  0.82002  1.0000
  C   C634      1.0  0.76184  0.08537  0.81970  1.0000
  C   C635      1.0  0.78980  0.10818  0.83410  1.0000
  C   C636      1.0  0.79951  0.09023  0.79164  1.0000
  C   C637      1.0  0.80075  0.06481  0.83465  1.0000
  C   C638      1.0  0.78869  0.05601  0.86270  1.0000
  C   C639      1.0  0.75650  0.06289  0.80894  1.0000
  C   C640      1.0  0.82496  0.09770  0.78765  1.0000
  C   C641      1.0  0.77820  0.13303  0.82148  1.0000
  C   C642      1.0  0.78424  0.15304  0.83523  1.0000
  C   C643      1.0  0.80150  0.03159  0.87364  1.0000
  C   C644      1.0  0.72981  0.06091  0.81418  1.0000
  C   C645      1.0  0.83725  0.09500  0.75964  1.0000
  H   H1105     1.0  0.75318  0.10108  0.80696  1.0000
  H   H1106     1.0  0.75199  0.08646  0.83985  1.0000
  H   H1107     1.0  0.78124  0.10559  0.85495  1.0000
  H   H1108     1.0  0.80883  0.10929  0.83585  1.0000
  H   H1109     1.0  0.78823  0.10374  0.77889  1.0000
  H   H1110     1.0  0.80063  0.07330  0.78278  1.0000
  H   H1111     1.0  0.80371  0.04970  0.82250  1.0000
  H   H1112     1.0  0.81912  0.06761  0.83759  1.0000
  H   H1113     1.0  0.76970  0.05380  0.86252  1.0000
  H   H1114     1.0  0.78941  0.06890  0.87679  1.0000
  H   H1115     1.0  0.76174  0.06430  0.78711  1.0000
  H   H1116     1.0  0.76609  0.04597  0.81839  1.0000
  H   H1117     1.0  0.83668  0.08673  0.80190  1.0000
  H   H1118     1.0  0.82377  0.11684  0.79048  1.0000
  H   H1119     1.0  0.78469  0.13666  0.80010  1.0000
  H   H1120     1.0  0.75838  0.13408  0.82358  1.0000
  H   H1121     1.0  0.77570  0.17059  0.82605  1.0000
  H   H1122     1.0  0.77786  0.15060  0.85679  1.0000
  H   H1123     1.0  0.80386  0.15330  0.83271  1.0000
  H   H1124     1.0  0.79327  0.02616  0.89416  1.0000
  H   H1125     1.0  0.79979  0.01773  0.86108  1.0000
  H   H1126     1.0  0.82081  0.03247  0.87429  1.0000
  H   H1127     1.0  0.71941  0.07800  0.80626  1.0000
  H   H1128     1.0  0.72574  0.04624  0.80413  1.0000
  H   H1129     1.0  0.72426  0.05710  0.83588  1.0000
  H   H1130     1.0  0.82642  0.10594  0.74451  1.0000
  H   H1131     1.0  0.85501  0.10138  0.75724  1.0000
  H   H1132     1.0  0.83997  0.07591  0.75614  1.0000
  C   C646      1.0  0.58150  0.04587  0.87407  1.0000
  C   C647      1.0  0.57727  0.02389  0.86136  1.0000
  C   C648      1.0  0.59207  0.09066  0.89471  1.0000
  C   C649      1.0  0.89648  0.05086  0.97538  1.0000
  C   C650      1.0  0.60738  0.09843  0.91350  1.0000
  H   H1133     1.0  0.56542  0.09319  0.85617  1.0000
  H   H1134     1.0  0.59090  0.03823  0.89189  1.0000
  H   H1135     1.0  0.56376  0.05483  0.88221  1.0000
  H   H1136     1.0  0.57041  0.02904  0.84178  1.0000
  H   H1137     1.0  0.57896  0.07981  0.90685  1.0000
  H   H1138     1.0  0.58226  0.10735  0.88488  1.0000
  H   H1139     1.0  0.54907  0.06509  0.83538  1.0000
  H   H1140     1.0  0.56204  0.10790  0.79471  1.0000
  H   H1141     1.0  0.89021  0.05925  0.95671  1.0000
  C   C651      1.0  0.55766  0.14723  0.58300  1.0000
  H   H1142     1.0  0.53904  0.18301  0.58291  1.0000
  H   H1143     1.0  0.89096  0.10133  0.96451  1.0000
  H   H1144     1.0  0.58329  0.99587  0.73662  1.0000
  H   H1145     1.0  0.62034  0.10996  0.90210  1.0000
  N   N33       1.0  0.62267  0.03987  0.67778  1.0000
  C   C652      1.0  0.60848  0.05232  0.65544  1.0000
  C   C653      1.0  0.60565  0.02950  0.70019  1.0000
  C   C654      1.0  0.63343  0.05898  0.68802  1.0000
  C   C655      1.0  0.64254  0.02068  0.66912  1.0000
  H   H1146     1.0  0.63633  0.00800  0.82225  1.0000
  C   C656      1.0  0.62308  0.06539  0.63117  1.0000
  C   C657      1.0  0.64685  0.05084  0.71312  1.0000
  C   C658      1.0  0.59331  0.00853  0.69480  1.0000
  H   H1147     1.0  0.54163  0.02073  0.88217  1.0000
  C   C659      1.0  0.50405  0.15682  0.65693  1.0000
  C   C660      1.0  0.61808  0.09276  0.62956  1.0000
  C   C661      1.0  0.66196  0.06964  0.71752  1.0000
  H   H1148     1.0  0.59333  0.06536  0.66317  1.0000
  H   H1149     1.0  0.59936  0.03954  0.64744  1.0000
  H   H1150     1.0  0.61508  0.02219  0.71796  1.0000
  H   H1151     1.0  0.59143  0.04394  0.70656  1.0000
  H   H1152     1.0  0.61928  0.07409  0.69281  1.0000
  H   H1153     1.0  0.64638  0.06700  0.67232  1.0000
  H   H1154     1.0  0.65945  0.02842  0.66206  1.0000
  S   S150      1.0  0.85418  0.26240  0.69023  1.0000
  H   H1155     1.0  0.63892  0.01868  0.62711  1.0000
  C   C662      1.0  0.90371  0.13002  0.93724  1.0000
  H   H1156     1.0  0.64265  0.05963  0.63086  1.0000
  H   H1157     1.0  0.61801  0.06054  0.61256  1.0000
  H   H1158     1.0  0.65892  0.03368  0.71151  1.0000
  H   H1159     1.0  0.63378  0.04849  0.73115  1.0000
  H   H1160     1.0  0.58397  0.01308  0.67668  1.0000
  S   S151      1.0  0.50668  0.10525  0.56882  1.0000
  C   C663      1.0  0.49753  0.17899  0.63634  1.0000
  H   H1161     1.0  0.93122  0.22632  0.65362  1.0000
  N   N34       1.0  0.49246  0.17355  0.60980  1.0000
  C   C664      1.0  0.81215  0.26212  0.85148  1.0000
  H   H1162     1.0  0.59929  0.09922  0.62556  1.0000
  H   H1163     1.0  0.62111  0.09897  0.64827  1.0000
  H   H1164     1.0  0.63006  0.10097  0.61296  1.0000
  H   H1165     1.0  0.65061  0.08721  0.71928  1.0000
  N   N35       1.0  0.59516  0.06417  0.85654  1.0000
  C   C665      1.0  0.54927  0.09691  0.80737  1.0000
  H   H1166     1.0  0.62062  0.06280  0.88498  1.0000
  H   H1167     1.0  0.53826  0.09057  0.79413  1.0000
  C   C666      1.0  0.56277  0.07532  0.82337  1.0000
  H   H1168     1.0  0.54321  0.16678  0.61538  1.0000
  H   H1169     1.0  0.61920  0.08887  0.86108  1.0000
  H   H1170     1.0  0.57351  0.06412  0.80890  1.0000
  C   C667      1.0  0.77776  0.22954  0.85576  1.0000
  H   H1171     1.0  0.62861  0.02383  0.86612  1.0000
  H   H1172     1.0  0.85733  0.25358  0.82124  1.0000
  H   H1173     1.0  0.49663  0.17635  0.69150  1.0000
  H   H1174     1.0  0.49570  0.06973  0.52212  1.0000
  H   H1175     1.0  0.75149  0.31347  0.93462  1.0000
  H   H1176     1.0  0.74652  0.14246  0.89746  1.0000
  H   H1177     1.0  0.77674  0.28137  0.78372  1.0000
  H   H1178     1.0  0.74904  0.20636  0.93517  1.0000
  H   H1179     1.0  0.73495  0.17003  0.87822  1.0000
  H   H1180     1.0  0.96486  0.30657  0.54972  1.0000
  S   S152      1.0  0.85143  0.09712  0.93593  1.0000
  H   H1181     1.0  0.92938  0.26741  0.66344  1.0000
  H   H1182     1.0  0.50725  0.00802  0.67172  1.0000
  H   H1183     1.0  0.76569  0.30275  0.82341  1.0000
  H   H1184     1.0  0.81011  0.20825  0.89611  1.0000
  H   H1185     1.0  0.50639  0.10628  0.49332  1.0000
  H   H1186     1.0  0.54004  0.11978  0.51267  1.0000
  C   C668      1.0  0.70521  0.13959  0.93446  1.0000
  H   H1187     1.0  0.78077  0.23853  0.83501  1.0000
  Fe  Fe78      1.0  0.83574  0.06529  0.95842  1.0000
  H   H1188     1.0  0.87254  0.31574  0.74944  1.0000
  H   H1189     1.0  0.51565  0.14788  0.69635  1.0000
  H   H1190     1.0  0.77932  0.16932  0.93363  1.0000
  C   C669      1.0  0.55867  0.00186  0.53685  1.0000
  H   H1191     1.0  0.55721  0.99363  0.87020  1.0000
  H   H1192     1.0  0.75114  0.20828  0.87791  1.0000
  C   C670      1.0  0.91285  0.28604  0.62801  1.0000
  H   H1193     1.0  0.95771  0.27922  0.59213  1.0000
  C   C671      1.0  0.85511  0.31067  0.67999  1.0000
  H   H1194     1.0  0.86574  0.28261  0.82234  1.0000
  H   H1195     1.0  0.51025  0.15581  0.57642  1.0000
  C   C672      1.0  0.86734  0.31445  0.73016  1.0000
  H   H1196     1.0  0.51426  0.13878  0.60749  1.0000
  S   S153      1.0  0.64035  0.31209  0.96909  1.0000
  C   C673      1.0  0.75317  0.29262  0.81747  1.0000
  H   H1197     1.0  0.55880  0.12970  0.59595  1.0000
  H   H1198     1.0  0.71085  0.09481  0.96299  1.0000
  H   H1199     1.0  0.57535  0.15368  0.58101  1.0000
  H   H1200     1.0  0.95101  0.30035  0.64744  1.0000
  C   C674      1.0  0.91967  0.24108  0.64271  1.0000
  C   C675      1.0  0.63807  0.00695  0.64647  1.0000
  H   H1201     1.0  0.84620  0.26561  0.86603  1.0000
  S   S154      1.0  0.54885  0.99977  0.50626  1.0000
  H   H1202     1.0  0.61759  0.27191  0.94286  1.0000
  H   H1203     1.0  0.86435  0.27665  0.73921  1.0000
  Fe  Fe79      1.0  0.66632  0.29020  0.94201  1.0000
  C   C676      1.0  0.75504  0.21791  0.85764  1.0000
  Fe  Fe80      1.0  0.81618  0.11866  0.94793  1.0000
  H   H1204     1.0  0.66258  0.16283  0.94384  1.0000
  H   H1205     1.0  0.80116  0.27240  0.83596  1.0000
  H   H1206     1.0  0.91318  0.11757  0.92323  1.0000
  H   H1207     1.0  0.85499  0.22065  0.91562  1.0000
  N   N36       1.0  0.92139  0.31039  0.62326  1.0000
  H   H1208     1.0  0.55417  0.29962  0.94401  1.0000
  H   H1209     1.0  0.90918  0.30172  0.67795  1.0000
  H   H1210     1.0  0.82959  0.21062  0.93708  1.0000
  H   H1211     1.0  0.76807  0.23943  0.89567  1.0000
  H   H1212     1.0  0.91973  0.23697  0.62213  1.0000
  C   C677      1.0  0.55261  0.10502  0.50432  1.0000
  C   C678      1.0  0.76301  0.20272  0.94827  1.0000
  S   S155      1.0  0.74392  0.24520  0.96903  1.0000
  N   N37       1.0  0.79690  0.25967  0.87800  1.0000
  H   H1213     1.0  0.82418  0.25647  0.90468  1.0000
  C   C679      1.0  0.56519  0.31079  0.92921  1.0000
  H   H1214     1.0  0.79931  0.30824  0.74639  1.0000
  C   C680      1.0  0.82357  0.22058  0.89533  1.0000
  H   H1215     1.0  0.77924  0.29595  0.86855  1.0000
  H   H1216     1.0  0.82386  0.31516  0.77336  1.0000
  H   H1217     1.0  0.56056  0.01729  0.72109  1.0000
  H   H1218     1.0  0.63181  0.22604  0.74460  1.0000
  H   H1219     1.0  0.88592  0.13742  0.93046  1.0000
  C   C681      1.0  0.78835  0.28470  0.88508  1.0000
  C   C682      1.0  0.81077  0.24587  0.89995  1.0000
  C   C683      1.0  0.59911  0.27654  0.93702  1.0000
  H   H1220     1.0  0.92598  0.31635  0.71381  1.0000
  H   H1221     1.0  0.56114  0.11184  0.48442  1.0000
  C   C684      1.0  0.83979  0.21023  0.91707  1.0000
  H   H1222     1.0  0.83505  0.22082  0.87608  1.0000
  H   H1223     1.0  0.51922  0.14441  0.64870  1.0000
  H   H1224     1.0  0.80441  0.30001  0.68443  1.0000
  C   C685      1.0  0.93540  0.31449  0.64492  1.0000
  H   H1225     1.0  0.56429  0.30457  0.90972  1.0000
  C   C686      1.0  0.83492  0.27431  0.85022  1.0000
  C   C687      1.0  0.85027  0.27261  0.82347  1.0000
  H   H1226     1.0  0.55187  0.04198  0.58103  1.0000
  C   C688      1.0  0.76425  0.21887  0.96619  1.0000
  H   H1227     1.0  0.72063  0.12503  0.93533  1.0000
  H   H1228     1.0  0.72363  0.17193  0.92651  1.0000
  C   C689      1.0  0.92085  0.31601  0.67267  1.0000
  C   C690      1.0  0.86268  0.29234  0.72441  1.0000
  H   H1229     1.0  0.69220  0.13270  0.92395  1.0000
  C   C691      1.0  0.51895  0.09185  0.48424  1.0000
  H   H1230     1.0  0.56682  0.09896  0.51779  1.0000
  H   H1231     1.0  0.65170  0.20998  0.97344  1.0000
  N   N38       1.0  0.50534  0.07235  0.47934  1.0000
  H   H1232     1.0  0.66831  0.11992  0.96371  1.0000
  C   C692      1.0  0.78954  0.29486  0.69948  1.0000
  C   C693      1.0  0.96072  0.29788  0.59304  1.0000
  H   H1233     1.0  0.48677  0.19331  0.57105  1.0000
  H   H1234     1.0  0.94848  0.29638  0.69653  1.0000
  C   C694      1.0  0.77805  0.31609  0.71406  1.0000
  C   C695      1.0  0.57986  0.98540  0.57527  1.0000
  H   H1235     1.0  0.56598  0.98684  0.71365  1.0000
  H   H1236     1.0  0.64701  0.00721  0.68653  1.0000
  H   H1237     1.0  0.74695  0.14567  0.95491  1.0000
  H   H1238     1.0  0.51127  0.98689  0.56749  1.0000
  H   H1239     1.0  0.85036  0.30914  0.66058  1.0000
  C   C696      1.0  0.93716  0.31418  0.69455  1.0000
  C   C697      1.0  0.90078  0.11642  0.96533  1.0000
  C   C698      1.0  0.48855  0.19683  0.59151  1.0000
  C   C699      1.0  0.79794  0.17715  0.96476  1.0000
  H   H1240     1.0  0.58709  0.26633  0.95178  1.0000
  H   H1241     1.0  0.97190  0.29804  0.60917  1.0000
  H   H1242     1.0  0.91896  0.10886  0.97074  1.0000
  H   H1243     1.0  0.51515  0.31465  0.95342  1.0000
  C   C700      1.0  0.67433  0.16551  0.95871  1.0000
  H   H1244     1.0  0.60674  0.99233  0.69268  1.0000
  S   S156      1.0  0.81979  0.15162  0.96558  1.0000
  S   S157      1.0  0.80187  0.08736  0.97332  1.0000
  H   H1245     1.0  0.55273  0.06942  0.49509  1.0000
  C   C701      1.0  0.73809  0.13812  0.97427  1.0000
  H   H1246     1.0  0.71293  0.17024  0.97520  1.0000
  H   H1247     1.0  0.67392  0.07583  0.97484  1.0000
  C   C702      1.0  0.68245  0.12302  0.97555  1.0000
  Fe  Fe81      1.0  0.56778  0.57779  0.13527  1.0000
  S   S158      1.0  0.55732  0.59958  0.09740  1.0000
  S   S159      1.0  0.59017  0.59185  0.16147  1.0000
  Fe  Fe82      1.0  0.53593  0.53944  0.13130  1.0000
  H   H1248     1.0  0.91311  0.38720  0.43779  1.0000
  S   S160      1.0  0.52598  0.50291  0.14884  1.0000
  Fe  Fe83      1.0  0.56086  0.56429  0.08172  1.0000
  S   S161      1.0  0.57656  0.55695  0.04057  1.0000
  H   H1249     1.0  0.93593  0.37053  0.45723  1.0000
  S   S162      1.0  0.57484  0.54273  0.11825  1.0000
  S   S163      1.0  0.53016  0.57223  0.15230  1.0000
  C   C703      1.0  0.65365  0.43301  0.03697  1.0000
  C   C704      1.0  0.49046  0.42037  0.13156  1.0000
  H   H1250     1.0  0.51472  0.40176  0.16093  1.0000
  S   S164      1.0  0.54442  0.45792  0.03037  1.0000
  H   H1251     1.0  0.56694  0.63878  0.05243  1.0000
  C   C705      1.0  0.58524  0.38612  0.03949  1.0000
  H   H1252     1.0  0.58621  0.42078  0.01686  1.0000
  C   C706      1.0  0.78514  0.57853  0.40261  1.0000
  S   S165      1.0  0.92323  0.55037  0.44707  1.0000
  C   C707      1.0  0.93410  0.51985  0.44675  1.0000
  C   C708      1.0  0.49528  0.40534  0.15871  1.0000
  H   H1253     1.0  0.50081  0.51124  0.02963  1.0000
  H   H1254     1.0  0.54398  0.40351  0.11903  1.0000
  H   H1255     1.0  0.84613  0.49543  0.42661  1.0000
  H   H1256     1.0  0.73414  0.61585  0.33216  1.0000
  S   S166      1.0  0.52245  0.55915  0.09388  1.0000
  H   H1257     1.0  0.61283  0.48815  0.04050  1.0000
  H   H1258     1.0  0.65342  0.43694  0.98145  1.0000
  Fe  Fe84      1.0  0.52018  0.59226  0.11344  1.0000
  C   C709      1.0  0.92545  0.64233  0.44220  1.0000
  H   H1259     1.0  0.54691  0.59492  0.00058  1.0000
  C   C710      1.0  0.61846  0.41164  0.03790  1.0000
  H   H1260     1.0  0.84756  0.60702  0.33182  1.0000
  H   H1261     1.0  0.80225  0.53727  0.43650  1.0000
  C   C711      1.0  0.50078  0.61860  0.05843  1.0000
  N   N39       1.0  0.62708  0.43590  0.03402  1.0000
  C   C712      1.0  0.84996  0.62637  0.42850  1.0000
  H   H1262     1.0  0.84555  0.50200  0.46009  1.0000
  C   C713      1.0  0.62830  0.63826  0.11113  1.0000
  H   H1263     1.0  0.55512  0.64850  0.17703  1.0000
  C   C714      1.0  0.69607  0.41119  0.02879  1.0000
  H   H1264     1.0  0.86100  0.61013  0.43599  1.0000
  H   H1265     1.0  0.91622  0.43642  0.45100  1.0000
  H   H1266     1.0  0.74648  0.58598  0.32482  1.0000
  H   H1267     1.0  0.54183  0.63836  0.98329  1.0000
  H   H1268     1.0  0.60220  0.45427  0.00647  1.0000
  H   H1269     1.0  0.56977  0.34156  0.00530  1.0000
  C   C715      1.0  0.60845  0.61422  0.14835  1.0000
  C   C716      1.0  0.61356  0.62046  0.12091  1.0000
  H   H1270     1.0  0.52412  0.52493  0.98996  1.0000
  H   H1271     1.0  0.87769  0.46159  0.43353  1.0000
  H   H1272     1.0  0.56608  0.38676  0.03676  1.0000
  H   H1273     1.0  0.94721  0.61745  0.41728  1.0000
  H   H1274     1.0  0.60649  0.61129  0.10725  1.0000
  H   H1275     1.0  0.61544  0.50314  0.08189  1.0000
  H   H1276     1.0  0.91544  0.61678  0.41909  1.0000
  Fe  Fe85      1.0  0.53923  0.45173  0.98944  1.0000
  C   C717      1.0  0.56947  0.52871  0.03737  1.0000
  C   C718      1.0  0.55916  0.51501  0.05961  1.0000
  C   C719      1.0  0.55162  0.49332  0.05715  1.0000
  C   C720      1.0  0.55448  0.48505  0.03243  1.0000
  C   C721      1.0  0.56557  0.49825  0.01019  1.0000
  C   C722      1.0  0.57312  0.52012  0.01267  1.0000
  H   H1277     1.0  0.55685  0.52104  0.07889  1.0000
  H   H1278     1.0  0.54312  0.48327  0.07445  1.0000
  H   H1279     1.0  0.98283  0.53084  0.46251  1.0000
  H   H1280     1.0  0.62184  0.47320  0.09909  1.0000
  H   H1281     1.0  0.54198  0.42178  0.08808  1.0000
  H   H1282     1.0  0.97820  0.34640  0.44748  1.0000
  C   C723      1.0  0.55020  0.34420  0.00379  1.0000
  H   H1283     1.0  0.61413  0.62134  0.18712  1.0000
  H   H1284     1.0  0.82045  0.60744  0.39337  1.0000
  H   H1285     1.0  0.88770  0.63867  0.45137  1.0000
  C   C724      1.0  0.81162  0.60487  0.37603  1.0000
  C   C725      1.0  0.95405  0.47176  0.44460  1.0000
  H   H1286     1.0  0.51828  0.61048  0.06366  1.0000
  C   C726      1.0  0.66942  0.40969  0.02902  1.0000
  C   C727      1.0  0.49768  0.42520  0.08271  1.0000
  H   H1287     1.0  0.93167  0.60314  0.44690  1.0000
  C   C728      1.0  0.85720  0.49466  0.44313  1.0000
  C   C729      1.0  0.88499  0.46715  0.47315  1.0000
  C   C730      1.0  0.85825  0.64057  0.40529  1.0000
  H   H1288     1.0  0.57286  0.43058  0.12850  1.0000
  H   H1289     1.0  0.94099  0.39883  0.43801  1.0000
  H   H1290     1.0  0.71790  0.59099  0.34468  1.0000
  C   C731      1.0  0.77280  0.62212  0.39934  1.0000
  H   H1291     1.0  0.92634  0.51978  0.40669  1.0000
  H   H1292     1.0  0.51258  0.38182  0.06584  1.0000
  C   C732      1.0  0.81717  0.62610  0.35447  1.0000
  H   H1293     1.0  0.81364  0.64308  0.36344  1.0000
  H   H1294     1.0  0.76634  0.57552  0.40960  1.0000
  H   H1295     1.0  0.48856  0.38779  0.16014  1.0000
  H   H1296     1.0  0.59267  0.48372  0.08810  1.0000
  H   H1297     1.0  0.52382  0.45744  0.11492  1.0000
  C   C733      1.0  0.55059  0.60034  0.97886  1.0000
  C   C734      1.0  0.59140  0.41166  0.03636  1.0000
  C   C735      1.0  0.74856  0.59213  0.36551  1.0000
  H   H1298     1.0  0.85541  0.61996  0.35917  1.0000
  H   H1299     1.0  0.66662  0.40592  0.00911  1.0000
  S   S167      1.0  0.85500  0.55033  0.46921  1.0000
  C   C736      1.0  0.62186  0.45004  0.00757  1.0000
  H   H1300     1.0  0.70160  0.42600  0.01363  1.0000
  H   H1301     1.0  0.81723  0.57636  0.42364  1.0000
  C   C737      1.0  0.95448  0.48240  0.46752  1.0000
  S   S168      1.0  0.81593  0.61509  0.46994  1.0000
  H   H1302     1.0  0.59422  0.45335  0.05382  1.0000
  H   H1303     1.0  0.49057  0.38137  0.11092  1.0000
  H   H1304     1.0  0.73861  0.64914  0.07579  1.0000
  C   C738      1.0  0.77396  0.59982  0.36001  1.0000
  H   H1305     1.0  0.56831  0.49175  0.99113  1.0000
  H   H1306     1.0  0.62812  0.46789  0.00545  1.0000
  C   C739      1.0  0.61799  0.62610  0.16587  1.0000
  H   H1307     1.0  0.58148  0.53049  0.99552  1.0000
  C   C740      1.0  0.52570  0.34851  0.08763  1.0000
  C   C741      1.0  0.50220  0.53071  0.02636  1.0000
  H   H1308     1.0  0.66510  0.39405  0.04368  1.0000
  H   H1309     1.0  0.62804  0.40025  0.02290  1.0000
  H   H1310     1.0  0.64064  0.47509  0.05294  1.0000
  H   H1311     1.0  0.54313  0.36360  0.00285  1.0000
  C   C742      1.0  0.74333  0.64782  0.22227  1.0000
  C   C743      1.0  0.51750  0.56351  0.99226  1.0000
  C   C744      1.0  0.52265  0.37593  0.08341  1.0000
  C   C745      1.0  0.90327  0.42685  0.46536  1.0000
  H   H1312     1.0  0.54120  0.33464  0.02193  1.0000
  C   C746      1.0  0.62100  0.47505  0.05629  1.0000
  N   N40       1.0  0.78559  0.60197  0.38429  1.0000
  H   H1313     1.0  0.65653  0.43327  0.05809  1.0000
  H   H1314     1.0  0.73717  0.60210  0.38076  1.0000
  C   C747      1.0  0.94334  0.48510  0.42296  1.0000
  H   H1315     1.0  0.51767  0.37655  0.12574  1.0000
  H   H1316     1.0  0.77440  0.55207  0.45201  1.0000
  C   C748      1.0  0.94384  0.50624  0.46887  1.0000
  H   H1317     1.0  0.51575  0.53401  0.03864  1.0000
  H   H1318     1.0  0.82379  0.65116  0.20308  1.0000
  H   H1319     1.0  0.62269  0.40178  0.05760  1.0000
  H   H1320     1.0  0.85275  0.45832  0.45898  1.0000
  C   C749      1.0  0.49634  0.49631  0.15190  1.0000
  H   H1321     1.0  0.88910  0.42401  0.45356  1.0000
  C   C750      1.0  0.79380  0.55308  0.44643  1.0000
  S   S169      1.0  0.96559  0.44150  0.44308  1.0000
  C   C751      1.0  0.98361  0.33909  0.46752  1.0000
  C   C752      1.0  0.52570  0.62847  0.18133  1.0000
  H   H1322     1.0  0.87574  0.63530  0.39500  1.0000
  H   H1323     1.0  0.48990  0.43960  0.13362  1.0000
  H   H1324     1.0  0.80666  0.62816  0.33735  1.0000
  H   H1325     1.0  0.58840  0.37664  0.05959  1.0000
  C   C753      1.0  0.93390  0.50928  0.42379  1.0000
  S   S170      1.0  0.54984  0.41402  0.98059  1.0000
  C   C754      1.0  0.61217  0.48424  0.08299  1.0000
  H   H1326     1.0  0.53624  0.34126  0.10457  1.0000
  H   H1327     1.0  0.87170  0.50593  0.43624  1.0000
  H   H1328     1.0  0.61223  0.35079  0.99250  1.0000
  H   H1329     1.0  0.49536  0.48731  0.19435  1.0000
  H   H1330     1.0  0.82141  0.58803  0.36887  1.0000
  C   C755      1.0  0.50924  0.53843  0.99682  1.0000
  H   H1331     1.0  0.53414  0.56098  0.00217  1.0000
  C   C756      1.0  0.90189  0.64395  0.46145  1.0000
  H   H1332     1.0  0.50787  0.34216  0.09155  1.0000
  H   H1333     1.0  0.75794  0.61585  0.41383  1.0000
  C   C757      1.0  0.79760  0.57640  0.42829  1.0000
  C   C758      1.0  0.86780  0.46870  0.45158  1.0000
  H   H1334     1.0  0.53533  0.34150  0.06944  1.0000
  C   C759      1.0  0.56107  0.44599  0.11896  1.0000
  H   H1335     1.0  0.74163  0.62965  0.21789  1.0000
  C   C760      1.0  0.93017  0.61847  0.43071  1.0000
  H   H1336     1.0  0.84793  0.63778  0.24061  1.0000
  H   H1337     1.0  0.61568  0.43906  0.07555  1.0000
  H   H1338     1.0  0.54065  0.38169  0.07887  1.0000
  C   C761      1.0  0.63365  0.43849  0.98263  1.0000
  H   H1339     1.0  0.78543  0.58659  0.34806  1.0000
  H   H1340     1.0  0.94290  0.47690  0.40527  1.0000
  H   H1341     1.0  0.58025  0.42055  0.05253  1.0000
  C   C762      1.0  0.76140  0.64511  0.38273  1.0000
  H   H1342     1.0  0.79337  0.56312  0.39173  1.0000
  H   H1343     1.0  0.48461  0.54070  0.03300  1.0000
  C   C763      1.0  0.53273  0.41902  0.10870  1.0000
  H   H1344     1.0  0.50987  0.61463  0.01727  1.0000
  H   H1345     1.0  0.90093  0.47565  0.46357  1.0000
  H   H1346     1.0  0.70681  0.39408  0.02370  1.0000
  H   H1347     1.0  0.50902  0.62802  0.17237  1.0000
  H   H1348     1.0  0.79010  0.59147  0.43973  1.0000
  H   H1349     1.0  0.51027  0.42086  0.06494  1.0000
  H   H1350     1.0  0.66177  0.44859  0.02555  1.0000
  N   N41       1.0  0.50771  0.41326  0.10804  1.0000
  H   H1351     1.0  0.80213  0.55251  0.46503  1.0000
  H   H1352     1.0  0.50884  0.46089  0.07790  1.0000
  H   H1353     1.0  0.62831  0.42054  0.98268  1.0000
  H   H1354     1.0  0.56754  0.44947  0.09751  1.0000
  H   H1355     1.0  0.53794  0.61145  0.17940  1.0000
  H   H1356     1.0  0.50401  0.57568  0.00373  1.0000
  C   C764      1.0  0.84356  0.62270  0.34308  1.0000
  C   C765      1.0  0.73605  0.59651  0.34020  1.0000
  H   H1357     1.0  0.77249  0.61697  0.34643  1.0000
  H   H1358     1.0  0.52973  0.43748  0.14434  1.0000
  C   C766      1.0  0.92721  0.38883  0.45029  1.0000
  C   C767      1.0  0.61374  0.44987  0.05570  1.0000
  H   H1359     1.0  0.59620  0.37589  0.02425  1.0000
  C   C768      1.0  0.82727  0.63301  0.44164  1.0000
  H   H1360     1.0  0.56217  0.46215  0.12835  1.0000
  H   H1361     1.0  0.74605  0.64658  0.24359  1.0000
  C   C769      1.0  0.50894  0.38646  0.10832  1.0000
  C   C770      1.0  0.53513  0.44092  0.12262  1.0000
  H   H1362     1.0  0.74627  0.64127  0.37311  1.0000
  H   H1363     1.0  0.74982  0.57263  0.37278  1.0000
  H   H1364     1.0  0.78518  0.62762  0.41170  1.0000
  C   C771      1.0  0.63793  0.65004  0.12868  1.0000
  C   C772      1.0  0.91637  0.40157  0.47430  1.0000
  H   H1365     1.0  0.70000  0.41420  0.04866  1.0000
  H   H1366     1.0  0.74877  0.63414  0.12163  1.0000
  H   H1367     1.0  0.57262  0.62590  0.98656  1.0000
  H   H1368     1.0  0.48747  0.53901  0.18393  1.0000
  H   H1369     1.0  0.48444  0.40583  0.20096  1.0000
  C   C773      1.0  0.54497  0.33428  0.97930  1.0000
  H   H1370     1.0  0.48890  0.34588  0.00737  1.0000
  C   C774      1.0  0.48594  0.48785  0.17716  1.0000
  H   H1371     1.0  0.63238  0.64279  0.08990  1.0000
  H   H1372     1.0  0.52530  0.33765  0.97896  1.0000
  S   S171      1.0  0.48837  0.62104  0.11134  1.0000
  H   H1373     1.0  0.55917  0.63451  0.13472  1.0000
  H   H1374     1.0  0.80554  0.65107  0.23492  1.0000
  H   H1375     1.0  0.84767  0.63892  0.32931  1.0000
  H   H1376     1.0  0.78070  0.64435  0.20770  1.0000
  H   H1377     1.0  0.94101  0.64317  0.45289  1.0000
  C   C775      1.0  0.49600  0.62090  0.03200  1.0000
  H   H1378     1.0  0.52100  0.62995  0.20285  1.0000
  H   H1379     1.0  0.49283  0.45651  0.03606  1.0000
  C   C776      1.0  0.63259  0.64402  0.15611  1.0000
  H   H1380     1.0  0.49342  0.53802  0.98653  1.0000
  C   C777      1.0  0.53820  0.64970  0.16788  1.0000
  H   H1381     1.0  0.49210  0.50296  0.11005  1.0000
  H   H1382     1.0  0.70838  0.65031  0.31666  1.0000
  C   C778      1.0  0.54396  0.64919  0.13740  1.0000
  C   C779      1.0  0.49219  0.45282  0.07924  1.0000
  H   H1383     1.0  0.52884  0.64299  0.12994  1.0000
  H   H1384     1.0  0.53160  0.64700  0.08636  1.0000
  H   H1385     1.0  0.53976  0.65078  0.03777  1.0000
  H   H1386     1.0  0.49037  0.43434  0.18303  1.0000
  C   C780      1.0  0.48406  0.49666  0.12969  1.0000
  H   H1387     1.0  0.91649  0.57975  0.68331  1.0000
  C   C781      1.0  0.92572  0.58535  0.58608  1.0000
  H   H1388     1.0  0.89791  0.54011  0.69482  1.0000
  H   H1389     1.0  0.85294  0.55149  0.69931  1.0000
  S   S172      1.0  0.60090  0.41699  0.92021  1.0000
  C   C782      1.0  0.88429  0.33075  0.59933  1.0000
  C   C783      1.0  0.49794  0.59425  0.92425  1.0000
  H   H1390     1.0  0.55439  0.51367  0.90925  1.0000
  S   S173      1.0  0.83550  0.56733  0.52810  1.0000
  S   S174      1.0  0.88337  0.58223  0.56833  1.0000
  Fe  Fe86      1.0  0.85134  0.53315  0.51175  1.0000
  S   S175      1.0  0.83811  0.49761  0.52456  1.0000
  S   S176      1.0  0.88902  0.53526  0.51862  1.0000
  Fe  Fe87      1.0  0.92435  0.42016  0.66400  1.0000
  S   S177      1.0  0.88963  0.42467  0.69039  1.0000
  Fe  Fe88      1.0  0.87358  0.57098  0.53147  1.0000
  Fe  Fe89      1.0  0.90287  0.39851  0.62368  1.0000
  S   S178      1.0  0.86618  0.40068  0.64649  1.0000
  C   C784      1.0  0.52960  0.34160  0.92168  1.0000
  Fe  Fe90      1.0  0.87311  0.43713  0.65245  1.0000
  S   S179      1.0  0.84569  0.46981  0.64780  1.0000
  Fe  Fe91      1.0  0.88559  0.38779  0.68255  1.0000
  S   S180      1.0  0.87358  0.36166  0.71772  1.0000
  S   S181      1.0  0.90824  0.43616  0.62664  1.0000
  S   S182      1.0  0.92184  0.38207  0.65921  1.0000
  C   C785      1.0  0.83946  0.48999  0.55897  1.0000
  C   C786      1.0  0.84269  0.46586  0.56999  1.0000
  C   C787      1.0  0.84495  0.45961  0.59721  1.0000
  C   C788      1.0  0.84281  0.47754  0.61374  1.0000
  C   C789      1.0  0.83891  0.50170  0.60285  1.0000
  C   C790      1.0  0.83776  0.50789  0.57543  1.0000
  H   H1391     1.0  0.84383  0.45202  0.55743  1.0000
  H   H1392     1.0  0.84793  0.44092  0.60547  1.0000
  H   H1393     1.0  0.83722  0.51569  0.61540  1.0000
  H   H1394     1.0  0.83517  0.52655  0.56719  1.0000
  H   H1395     1.0  0.85796  0.34853  0.67106  1.0000
  H   H1396     1.0  0.56438  0.38725  0.91592  1.0000
  H   H1397     1.0  0.85029  0.34839  0.58642  1.0000
  C   C791      1.0  0.91272  0.58912  0.56414  1.0000
  H   H1398     1.0  0.82694  0.63563  0.52409  1.0000
  H   H1399     1.0  0.56225  0.63198  0.95405  1.0000
  H   H1400     1.0  0.57640  0.34679  0.95606  1.0000
  H   H1401     1.0  0.63406  0.37979  0.89754  1.0000
  C   C792      1.0  0.92265  0.45959  0.54426  1.0000
  C   C793      1.0  0.91323  0.58032  0.66226  1.0000
  C   C794      1.0  0.61366  0.38856  0.93428  1.0000
  H   H1402     1.0  0.70399  0.35121  0.76817  1.0000
  H   H1403     1.0  0.49351  0.56065  0.94899  1.0000
  H   H1404     1.0  0.58901  0.34915  0.91027  1.0000
  C   C795      1.0  0.63804  0.35004  0.92888  1.0000
  C   C796      1.0  0.62923  0.37351  0.91828  1.0000
  H   H1405     1.0  0.93243  0.64720  0.49787  1.0000
  H   H1406     1.0  0.54246  0.38173  0.89613  1.0000
  H   H1407     1.0  0.97828  0.49593  0.71270  1.0000
  H   H1408     1.0  0.82670  0.35780  0.80293  1.0000
  H   H1409     1.0  0.90511  0.34758  0.62213  1.0000
  H   H1410     1.0  0.92383  0.50094  0.59685  1.0000
  H   H1411     1.0  0.89386  0.33805  0.58023  1.0000
  H   H1412     1.0  0.57095  0.51856  0.93526  1.0000
  H   H1413     1.0  0.93983  0.33317  0.59244  1.0000
  C   C797      1.0  0.56166  0.37781  0.89934  1.0000
  C   C798      1.0  0.79626  0.39362  0.67834  1.0000
  H   H1414     1.0  0.76695  0.35608  0.77880  1.0000
  H   H1415     1.0  0.88824  0.46190  0.72755  1.0000
  Fe  Fe92      1.0  0.52153  0.46907  0.93597  1.0000
  H   H1416     1.0  0.63561  0.44569  0.93961  1.0000
  H   H1417     1.0  0.90660  0.48154  0.51181  1.0000
  H   H1418     1.0  0.60684  0.45544  0.95658  1.0000
  C   C799      1.0  0.57020  0.35050  0.90576  1.0000
  H   H1419     1.0  0.91843  0.47441  0.55673  1.0000
  H   H1420     1.0  0.92104  0.44233  0.55733  1.0000
  C   C800      1.0  0.92339  0.59802  0.53916  1.0000
  H   H1421     1.0  0.52026  0.35867  0.92868  1.0000
  H   H1422     1.0  0.77840  0.38469  0.73082  1.0000
  C   C801      1.0  0.60796  0.38053  0.96120  1.0000
  H   H1423     1.0  0.91732  0.42671  0.51596  1.0000
  C   C802      1.0  0.57590  0.38863  0.87420  1.0000
  S   S183      1.0  0.91013  0.38618  0.58322  1.0000
  C   C803      1.0  0.90536  0.46344  0.52313  1.0000
  C   C804      1.0  0.97464  0.45683  0.57173  1.0000
  H   H1424     1.0  0.64960  0.33827  0.91632  1.0000
  C   C805      1.0  0.97306  0.38241  0.53629  1.0000
  H   H1425     1.0  0.52894  0.34432  0.89972  1.0000
  C   C806      1.0  0.98012  0.53012  0.52177  1.0000
  H   H1426     1.0  0.91752  0.57879  0.60535  1.0000
  H   H1427     1.0  0.48463  0.33761  0.90845  1.0000
  H   H1428     1.0  0.85648  0.39094  0.55795  1.0000
  H   H1429     1.0  0.86129  0.42433  0.48999  1.0000
  H   H1430     1.0  0.88753  0.32690  0.64097  1.0000
  H   H1431     1.0  0.95195  0.37617  0.61183  1.0000
  H   H1432     1.0  0.95492  0.54610  0.55237  1.0000
  C   C807      1.0  0.95530  0.53363  0.53747  1.0000
  C   C808      1.0  0.96841  0.50686  0.67306  1.0000
  H   H1433     1.0  0.93554  0.38745  0.53108  1.0000
  H   H1434     1.0  0.52642  0.52757  0.94669  1.0000
  S   S184      1.0  0.50658  0.49904  0.90642  1.0000
  H   H1435     1.0  0.84963  0.34058  0.62191  1.0000
  C   C809      1.0  0.78329  0.36792  0.72127  1.0000
  S   S185      1.0  0.96964  0.53735  0.67443  1.0000
  H   H1436     1.0  0.55196  0.57259  0.93300  1.0000
  H   H1437     1.0  0.57030  0.40835  0.87093  1.0000
  C   C810      1.0  0.97276  0.49018  0.69548  1.0000
  H   H1438     1.0  0.55585  0.55184  0.96194  1.0000
  H   H1439     1.0  0.87957  0.42396  0.54424  1.0000
  H   H1440     1.0  0.88998  0.56756  0.63928  1.0000
  H   H1441     1.0  0.80946  0.56574  0.69818  1.0000
  S   S186      1.0  0.53109  0.43274  0.92230  1.0000
  H   H1442     1.0  0.52482  0.54887  0.91733  1.0000
  H   H1443     1.0  0.90107  0.48479  0.73986  1.0000
  H   H1444     1.0  0.97886  0.38456  0.51521  1.0000
  C   C811      1.0  0.85328  0.40239  0.53885  1.0000
  C   C812      1.0  0.74149  0.35210  0.75327  1.0000
  H   H1445     1.0  0.77167  0.33083  0.69887  1.0000
  H   H1446     1.0  0.80949  0.55150  0.66888  1.0000
  C   C813      1.0  0.85944  0.33285  0.68586  1.0000
  H   H1447     1.0  0.97666  0.44005  0.56240  1.0000
  H   H1448     1.0  0.92853  0.44799  0.49125  1.0000
  Fe  Fe93      1.0  0.51518  0.41930  0.96308  1.0000
  H   H1449     1.0  0.93134  0.40256  0.48577  1.0000
  H   H1450     1.0  0.84969  0.39088  0.52448  1.0000
  C   C814      1.0  0.72190  0.34407  0.77469  1.0000
  C   C815      1.0  0.87539  0.41456  0.52823  1.0000
  N   N42       1.0  0.55534  0.33715  0.92811  1.0000
  H   H1451     1.0  0.90866  0.52449  0.57480  1.0000
  C   C816      1.0  0.80388  0.37214  0.69865  1.0000
  C   C817      1.0  0.63155  0.34181  0.95559  1.0000
  H   H1452     1.0  0.90362  0.39024  0.48620  1.0000
  H   H1453     1.0  0.63145  0.47232  0.95591  1.0000
  H   H1454     1.0  0.95745  0.51227  0.63359  1.0000
  C   C818      1.0  0.48725  0.33083  0.92953  1.0000
  H   H1455     1.0  0.81126  0.39619  0.66239  1.0000
  H   H1456     1.0  0.93005  0.57287  0.65084  1.0000
  H   H1457     1.0  0.53252  0.60849  0.94358  1.0000
  H   H1458     1.0  0.85689  0.62600  0.53283  1.0000
  H   H1459     1.0  0.95527  0.60977  0.51696  1.0000
  C   C819      1.0  0.62641  0.45405  0.95722  1.0000
  C   C820      1.0  0.94962  0.58935  0.58303  1.0000
  C   C821      1.0  0.86063  0.34739  0.60361  1.0000
  H   H1460     1.0  0.94139  0.54104  0.52397  1.0000
  H   H1461     1.0  0.91339  0.60127  0.52220  1.0000
  H   H1462     1.0  0.97384  0.45324  0.71300  1.0000
  H   H1463     1.0  0.95850  0.45750  0.58658  1.0000
  H   H1464     1.0  0.89054  0.40027  0.52479  1.0000
  C   C822      1.0  0.94084  0.38267  0.57244  1.0000
  C   C823      1.0  0.95732  0.47534  0.65158  1.0000
  H   H1465     1.0  0.73790  0.37198  0.74879  1.0000
  H   H1466     1.0  0.95092  0.51615  0.54819  1.0000
  C   C824      1.0  0.76672  0.34467  0.76289  1.0000
  C   C825      1.0  0.49852  0.57816  0.95147  1.0000
  H   H1467     1.0  0.80898  0.35628  0.68779  1.0000
  H   H1468     1.0  0.76753  0.36653  0.71125  1.0000
  N   N43       1.0  0.52175  0.57491  0.96373  1.0000
  H   H1469     1.0  0.95969  0.58566  0.60004  1.0000
  C   C826      1.0  0.96106  0.49935  0.65088  1.0000
  C   C827      1.0  0.96041  0.59801  0.55809  1.0000
  H   H1470     1.0  0.92027  0.45970  0.72717  1.0000
  H   H1471     1.0  0.88688  0.46336  0.53323  1.0000
  H   H1472     1.0  0.80448  0.36933  0.76327  1.0000
  N   N44       1.0  0.78831  0.34670  0.74230  1.0000
  H   H1473     1.0  0.95115  0.46969  0.63469  1.0000
  H   H1474     1.0  0.51483  0.59043  0.91106  1.0000
  H   H1475     1.0  0.97212  0.47240  0.55599  1.0000
  Fe  Fe94      1.0  0.56502  0.43071  0.94090  1.0000
  C   C828      1.0  0.53614  0.54088  0.93337  1.0000
  C   C829      1.0  0.79599  0.32355  0.73048  1.0000
  C   C830      1.0  0.94710  0.60290  0.53624  1.0000
  H   H1476     1.0  0.85776  0.44774  0.50985  1.0000
  H   H1477     1.0  0.94129  0.45941  0.53450  1.0000
  C   C831      1.0  0.86628  0.33458  0.71067  1.0000
  C   C832      1.0  0.54224  0.56053  0.94844  1.0000
  C   C833      1.0  0.97009  0.46607  0.69571  1.0000
  H   H1478     1.0  0.81995  0.37607  0.70643  1.0000
  C   C834      1.0  0.55902  0.52754  0.92012  1.0000
  S   S187      1.0  0.55697  0.46833  0.95096  1.0000
  C   C835      1.0  0.91186  0.44408  0.50398  1.0000
  H   H1479     1.0  0.90844  0.59933  0.65373  1.0000
  C   C836      1.0  0.95772  0.37780  0.59080  1.0000
  H   H1480     1.0  0.82623  0.57638  0.66744  1.0000
  H   H1481     1.0  0.56877  0.54012  0.90554  1.0000
  H   H1482     1.0  0.82531  0.35192  0.74232  1.0000
  H   H1483     1.0  0.88869  0.64883  0.51247  1.0000
  H   H1484     1.0  0.83730  0.41593  0.54250  1.0000
  H   H1485     1.0  0.73976  0.34439  0.73511  1.0000
  C   C837      1.0  0.83429  0.34095  0.79450  1.0000
  C   C838      1.0  0.89974  0.32953  0.62251  1.0000
  H   H1486     1.0  0.79171  0.41029  0.68796  1.0000
  H   H1487     1.0  0.57262  0.38082  0.85657  1.0000
  N   N45       1.0  0.88315  0.52195  0.66736  1.0000
  C   C839      1.0  0.85788  0.53328  0.66314  1.0000
  C   C840      1.0  0.89410  0.51006  0.64322  1.0000
  C   C841      1.0  0.88158  0.50244  0.69081  1.0000
  C   C842      1.0  0.89868  0.53954  0.67303  1.0000
  C   C843      1.0  0.89295  0.56605  0.66040  1.0000
  C   C844      1.0  0.84246  0.54254  0.68789  1.0000
  C   C845      1.0  0.90546  0.48644  0.69668  1.0000
  C   C846      1.0  0.89739  0.52666  0.61658  1.0000
  C   C847      1.0  0.90632  0.51205  0.59355  1.0000
  C   C848      1.0  0.82057  0.56012  0.68003  1.0000
  C   C849      1.0  0.90352  0.47238  0.72457  1.0000
  H   H1488     1.0  0.84805  0.52002  0.65674  1.0000
  H   H1489     1.0  0.85760  0.54821  0.64655  1.0000
  H   H1490     1.0  0.91224  0.50048  0.64618  1.0000
  H   H1491     1.0  0.88344  0.49606  0.64030  1.0000
  H   H1492     1.0  0.86875  0.49023  0.68806  1.0000
  H   H1493     1.0  0.87433  0.51042  0.70931  1.0000
  H   H1494     1.0  0.91789  0.53326  0.66676  1.0000
  H   H1495     1.0  0.87643  0.57495  0.67095  1.0000
  C   C850      1.0  0.87102  0.43272  0.50286  1.0000
  H   H1496     1.0  0.83586  0.52716  0.70136  1.0000
  H   H1497     1.0  0.92024  0.49732  0.69519  1.0000
  H   H1498     1.0  0.91024  0.47318  0.68226  1.0000
  H   H1499     1.0  0.88042  0.53789  0.61166  1.0000
  H   H1500     1.0  0.91111  0.53831  0.61747  1.0000
  H   H1501     1.0  0.78057  0.39062  0.66904  1.0000
  C   C851      1.0  0.94854  0.38428  0.54522  1.0000
  H   H1502     1.0  0.89307  0.50023  0.59133  1.0000
  H   H1503     1.0  0.94323  0.33158  0.63921  1.0000
  C   C852      1.0  0.84428  0.64183  0.52546  1.0000
  S   S188      1.0  0.87956  0.59133  0.49091  1.0000
  H   H1504     1.0  0.85598  0.63977  0.48408  1.0000
  H   H1505     1.0  0.85051  0.34418  0.78052  1.0000
  H   H1506     1.0  0.54932  0.36616  0.95236  1.0000
  C   C853      1.0  0.80868  0.35132  0.75625  1.0000
  H   H1507     1.0  0.49558  0.61346  0.92737  1.0000
  C   C854      1.0  0.55730  0.34693  0.95348  1.0000
  N   N46       1.0  0.89271  0.44223  0.48689  1.0000
  H   H1508     1.0  0.87583  0.47907  0.48787  1.0000
  C   C855      1.0  0.52848  0.59953  0.96420  1.0000
  H   H1509     1.0  0.90922  0.33357  0.67266  1.0000
  H   H1510     1.0  0.86404  0.36578  0.60529  1.0000
  H   H1511     1.0  0.59538  0.38537  0.87626  1.0000
  S   S189      1.0  0.95907  0.42819  0.67504  1.0000
  S   S190      1.0  0.49435  0.38816  0.97022  1.0000
  H   H1512     1.0  0.72314  0.35075  0.79377  1.0000
  C   C856      1.0  0.96186  0.45867  0.67406  1.0000
  C   C857      1.0  0.98224  0.37463  0.58191  1.0000
  H   H1513     1.0  0.97965  0.32459  0.56704  1.0000
  H   H1514     1.0  0.97198  0.55897  0.49016  1.0000
  H   H1515     1.0  0.94876  0.32862  0.69018  1.0000
  H   H1516     1.0  0.94382  0.51436  0.48670  1.0000
  Fe  Fe95      1.0  0.84270  0.58490  0.48622  1.0000
  H   H1517     1.0  0.98034  0.51573  0.50922  1.0000
  H   H1518     1.0  0.96255  0.47212  0.48439  1.0000
  H   H1519     1.0  0.48400  0.51376  0.95691  1.0000
  H   H1520     1.0  0.81355  0.32401  0.71810  1.0000
  H   H1521     1.0  0.57114  0.34223  0.88711  1.0000
  H   H1522     1.0  0.51306  0.61137  0.97312  1.0000
  H   H1523     1.0  0.56644  0.58824  0.97120  1.0000
  C   C858      1.0  0.81572  0.33253  0.78025  1.0000
  H   H1524     1.0  0.80010  0.32936  0.79509  1.0000
  H   H1525     1.0  0.97958  0.35375  0.48027  1.0000
  Fe  Fe96      1.0  0.89149  0.55532  0.47756  1.0000
  H   H1526     1.0  0.98218  0.56790  0.51776  1.0000
  H   H1527     1.0  0.83971  0.32702  0.81103  1.0000
  H   H1528     1.0  0.72347  0.32417  0.77808  1.0000
  H   H1529     1.0  0.76751  0.32603  0.77325  1.0000
  C   C859      1.0  0.51367  0.32163  0.93227  1.0000
  H   H1530     1.0  0.77855  0.32201  0.91580  1.0000
  H   H1531     1.0  0.75222  0.32216  0.89920  1.0000
  C   C860      1.0  0.61693  0.35721  0.97182  1.0000
  H   H1532     1.0  0.97295  0.32445  0.47613  1.0000
  H   H1533     1.0  0.59683  0.39231  0.97389  1.0000
  C   C861      1.0  0.55717  0.62575  0.97538  1.0000
  H   H1534     1.0  0.90543  0.62935  0.47803  1.0000
  S   S191      1.0  0.50280  0.45582  0.97556  1.0000
  H   H1535     1.0  0.49852  0.67589  0.14347  1.0000
  H   H1536     1.0  0.95678  0.90636  0.10430  1.0000
  H   H1537     1.0  0.58818  0.75776  0.22213  1.0000
  C   C862      1.0  0.88825  0.69197  0.42545  1.0000
  C   C863      1.0  0.65545  0.80080  0.42645  1.0000
  Fe  Fe97      1.0  0.84010  0.88028  0.10962  1.0000
  S   S192      1.0  0.82316  0.89044  0.14934  1.0000
  S   S193      1.0  0.86387  0.90252  0.07976  1.0000
  Fe  Fe98      1.0  0.81339  0.83629  0.11540  1.0000
  S   S194      1.0  0.79440  0.84294  0.15538  1.0000
  S   S195      1.0  0.80894  0.80659  0.09239  1.0000
  Fe  Fe99      1.0  0.78919  0.88165  0.13766  1.0000
  S   S196      1.0  0.75322  0.90439  0.14311  1.0000
  Fe  Fe100     1.0  0.83009  0.85081  0.16337  1.0000
  S   S197      1.0  0.84389  0.83735  0.20281  1.0000
  S   S198      1.0  0.80535  0.87452  0.09681  1.0000
  S   S199      1.0  0.84983  0.84119  0.12459  1.0000
  H   H1538     1.0  0.61747  0.80795  0.26416  1.0000
  C   C864      1.0  0.70944  0.81665  0.13314  1.0000
  H   H1539     1.0  0.67042  0.80339  0.43733  1.0000
  C   C865      1.0  0.76585  0.75977  0.21039  1.0000
  C   C866      1.0  0.58533  0.80981  0.29156  1.0000
  H   H1540     1.0  0.75549  0.67947  0.03688  1.0000
  Fe  Fe101     1.0  0.71345  0.71869  0.14737  1.0000
  S   S200      1.0  0.69474  0.74015  0.17942  1.0000
  S   S201      1.0  0.75131  0.71813  0.12772  1.0000
  C   C867      1.0  0.63368  0.83591  0.46380  1.0000
  H   H1541     1.0  0.69550  0.77505  0.12497  1.0000
  Fe  Fe102     1.0  0.66404  0.74672  0.15454  1.0000
  S   S202      1.0  0.64211  0.78185  0.14182  1.0000
  H   H1542     1.0  0.64661  0.70345  0.05999  1.0000
  S   S203      1.0  0.68388  0.72779  0.12125  1.0000
  Fe  Fe103     1.0  0.64075  0.86556  0.24919  1.0000
  S   S204      1.0  0.64706  0.90079  0.25990  1.0000
  S   S205      1.0  0.62259  0.86629  0.21270  1.0000
  Fe  Fe104     1.0  0.65757  0.83749  0.30002  1.0000
  S   S206      1.0  0.66533  0.87013  0.31512  1.0000
  S   S207      1.0  0.66264  0.80085  0.32367  1.0000
  Fe  Fe105     1.0  0.63064  0.88776  0.30071  1.0000
  S   S208      1.0  0.60168  0.91000  0.32426  1.0000
  Fe  Fe106     1.0  0.68115  0.87989  0.27309  1.0000
  S   S209      1.0  0.71677  0.89327  0.26570  1.0000
  S   S210      1.0  0.62142  0.85433  0.28887  1.0000
  S   S211      1.0  0.67636  0.84556  0.25897  1.0000
  Fe  Fe107     1.0  0.81631  0.72160  0.28420  1.0000
  S   S212      1.0  0.77675  0.73135  0.29460  1.0000
  S   S213      1.0  0.83181  0.72877  0.24148  1.0000
  H   H1543     1.0  0.75955  0.80606  0.25296  1.0000
  H   H1544     1.0  0.68667  0.89272  0.12358  1.0000
  H   H1545     1.0  0.70049  0.88579  0.15374  1.0000
  Fe  Fe108     1.0  0.78735  0.74135  0.33173  1.0000
  S   S214      1.0  0.77043  0.77551  0.34719  1.0000
  S   S215      1.0  0.82693  0.73495  0.31942  1.0000
  C   C868      1.0  0.69272  0.79338  0.32969  1.0000
  C   C869      1.0  0.70663  0.81158  0.32958  1.0000
  C   C870      1.0  0.73012  0.80593  0.33615  1.0000
  C   C871      1.0  0.74043  0.78199  0.34093  1.0000
  C   C872      1.0  0.72686  0.76361  0.34017  1.0000
  C   C873      1.0  0.70277  0.76933  0.33515  1.0000
  H   H1546     1.0  0.69923  0.83010  0.32493  1.0000
  H   H1547     1.0  0.74043  0.82012  0.33708  1.0000
  H   H1548     1.0  0.73482  0.74502  0.34385  1.0000
  H   H1549     1.0  0.69214  0.75514  0.33509  1.0000
  C   C874      1.0  0.62944  0.72321  0.31416  1.0000
  H   H1550     1.0  0.65759  0.74567  0.30880  1.0000
  H   H1551     1.0  0.74071  0.90758  0.31040  1.0000
  H   H1552     1.0  0.82394  0.84558  0.25634  1.0000
  C   C875      1.0  0.63815  0.80499  0.16186  1.0000
  C   C876      1.0  0.65086  0.80368  0.18384  1.0000
  C   C877      1.0  0.64651  0.82251  0.19974  1.0000
  C   C878      1.0  0.62945  0.84250  0.19348  1.0000
  C   C879      1.0  0.61732  0.84390  0.17113  1.0000
  C   C880      1.0  0.62169  0.82527  0.15536  1.0000
  H   H1553     1.0  0.66383  0.78814  0.18853  1.0000
  H   H1554     1.0  0.65624  0.82169  0.21670  1.0000
  H   H1555     1.0  0.60426  0.85939  0.16613  1.0000
  H   H1556     1.0  0.61196  0.82644  0.13829  1.0000
  C   C881      1.0  0.68659  0.85539  0.14188  1.0000
  C   C882      1.0  0.61013  0.90973  0.41181  1.0000
  C   C883      1.0  0.63047  0.90646  0.39339  1.0000
  C   C884      1.0  0.62803  0.90581  0.36658  1.0000
  C   C885      1.0  0.60524  0.90939  0.35793  1.0000
  C   C886      1.0  0.58493  0.91329  0.37624  1.0000
  C   C887      1.0  0.58735  0.91310  0.40322  1.0000
  H   H1557     1.0  0.64811  0.90421  0.39995  1.0000
  H   H1558     1.0  0.64379  0.90275  0.35263  1.0000
  H   H1559     1.0  0.56725  0.91617  0.36966  1.0000
  H   H1560     1.0  0.57152  0.91576  0.41728  1.0000
  C   C888      1.0  0.70088  0.78592  0.10590  1.0000
  H   H1561     1.0  0.83249  0.88125  0.27847  1.0000
  H   H1562     1.0  0.69933  0.80828  0.15134  1.0000
  C   C889      1.0  0.84199  0.80677  0.21288  1.0000
  C   C890      1.0  0.83560  0.79259  0.19556  1.0000
  C   C891      1.0  0.83312  0.76844  0.20431  1.0000
  C   C892      1.0  0.83609  0.75870  0.23067  1.0000
  C   C893      1.0  0.84260  0.77283  0.24796  1.0000
  C   C894      1.0  0.84610  0.79669  0.23888  1.0000
  H   H1563     1.0  0.83275  0.80016  0.17536  1.0000
  H   H1564     1.0  0.82852  0.75745  0.19073  1.0000
  H   H1565     1.0  0.84534  0.76526  0.26817  1.0000
  H   H1566     1.0  0.85143  0.80748  0.25220  1.0000
  C   C895      1.0  0.74328  0.90322  0.17720  1.0000
  C   C896      1.0  0.71916  0.91063  0.18575  1.0000
  C   C897      1.0  0.71068  0.90719  0.21291  1.0000
  C   C898      1.0  0.72667  0.89776  0.23163  1.0000
  C   C899      1.0  0.75096  0.89178  0.22316  1.0000
  C   C900      1.0  0.75921  0.89394  0.19599  1.0000
  H   H1567     1.0  0.70694  0.91865  0.17138  1.0000
  H   H1568     1.0  0.69192  0.91223  0.21937  1.0000
  H   H1569     1.0  0.76323  0.88485  0.23762  1.0000
  H   H1570     1.0  0.77790  0.88838  0.18963  1.0000
  C   C901      1.0  0.79285  0.78234  0.10445  1.0000
  C   C902      1.0  0.77504  0.78269  0.12624  1.0000
  C   C903      1.0  0.76136  0.76349  0.13325  1.0000
  C   C904      1.0  0.76636  0.74353  0.11924  1.0000
  C   C905      1.0  0.78477  0.74295  0.09825  1.0000
  C   C906      1.0  0.79753  0.76241  0.09055  1.0000
  H   H1571     1.0  0.77169  0.79784  0.13732  1.0000
  H   H1572     1.0  0.74728  0.76391  0.14963  1.0000
  H   H1573     1.0  0.78902  0.72751  0.08756  1.0000
  H   H1574     1.0  0.81132  0.76194  0.07382  1.0000
  C   C907      1.0  0.91090  0.94856  0.11059  1.0000
  C   C908      1.0  0.89784  0.93293  0.12853  1.0000
  C   C909      1.0  0.88342  0.91865  0.11929  1.0000
  C   C910      1.0  0.88218  0.91978  0.09202  1.0000
  C   C911      1.0  0.89548  0.93524  0.07408  1.0000
  C   C912      1.0  0.90948  0.94987  0.08336  1.0000
  H   H1575     1.0  0.89881  0.93191  0.14966  1.0000
  H   H1576     1.0  0.87337  0.90672  0.13329  1.0000
  H   H1577     1.0  0.89519  0.93578  0.05294  1.0000
  H   H1578     1.0  0.91908  0.96228  0.06951  1.0000
  H   H1579     1.0  0.79973  0.81903  0.24818  1.0000
  H   H1580     1.0  0.95620  0.96034  0.99506  1.0000
  C   C913      1.0  0.80956  0.86024  0.26185  1.0000
  C   C914      1.0  0.77068  0.73249  0.21720  1.0000
  H   H1581     1.0  0.73886  0.66528  0.98432  1.0000
  H   H1582     1.0  0.83824  0.66602  0.25336  1.0000
  H   H1583     1.0  0.72756  0.77051  0.04878  1.0000
  N   N47       1.0  0.82618  0.97251  0.04684  1.0000
  C   C915      1.0  0.87154  0.71213  0.41125  1.0000
  S   S216      1.0  0.54695  0.90140  0.47277  1.0000
  H   H1584     1.0  0.72784  0.89055  0.33977  1.0000
  C   C916      1.0  0.59708  0.71110  0.13593  1.0000
  H   H1585     1.0  0.57069  0.79899  0.29954  1.0000
  C   C917      1.0  0.76445  0.65735  0.20439  1.0000
  H   H1586     1.0  0.60261  0.95892  0.31521  1.0000
  H   H1587     1.0  0.63991  0.65298  0.16980  1.0000
  C   C918      1.0  0.82183  0.88295  0.26148  1.0000
  H   H1588     1.0  0.77331  0.88679  0.28094  1.0000
  C   C919      1.0  0.76708  0.68293  0.20978  1.0000
  H   H1589     1.0  0.64468  0.93577  0.31766  1.0000
  C   C920      1.0  0.65876  0.94596  0.32129  1.0000
  H   H1590     1.0  0.62956  0.69143  0.34351  1.0000
  H   H1591     1.0  0.56869  0.71595  0.11088  1.0000
  C   C921      1.0  0.82111  0.66782  0.40822  1.0000
  H   H1592     1.0  0.90557  0.69867  0.42510  1.0000
  H   H1593     1.0  0.76551  0.84537  0.26834  1.0000
  H   H1594     1.0  0.77451  0.65244  0.36698  1.0000
  C   C922      1.0  0.58226  0.70114  0.11834  1.0000
  C   C923      1.0  0.74263  0.75943  0.03820  1.0000
  H   H1595     1.0  0.66229  0.88484  0.18081  1.0000
  N   N48       1.0  0.71142  0.84235  0.13555  1.0000
  H   H1596     1.0  0.60743  0.74267  0.26380  1.0000
  C   C924      1.0  0.73171  0.69443  0.27353  1.0000
  H   H1597     1.0  0.68989  0.78281  0.09066  1.0000
  C   C925      1.0  0.66556  0.78258  0.40642  1.0000
  N   N49       1.0  0.89306  0.66749  0.47226  1.0000
  H   H1598     1.0  0.66104  0.91225  0.15822  1.0000
  H   H1599     1.0  0.58535  0.71912  0.15240  1.0000
  H   H1600     1.0  0.79637  0.84484  0.34706  1.0000
  C   C926      1.0  0.97977  0.88275  0.02805  1.0000
  H   H1601     1.0  0.82479  0.85226  0.30989  1.0000
  H   H1602     1.0  0.72006  0.77996  0.09946  1.0000
  H   H1603     1.0  0.79102  0.88358  0.30793  1.0000
  H   H1604     1.0  0.66968  0.84446  0.42453  1.0000
  C   C927      1.0  0.68257  0.76166  0.41885  1.0000
  H   H1605     1.0  0.64641  0.88805  0.15166  1.0000
  H   H1606     1.0  0.67501  0.85438  0.12628  1.0000
  C   C928      1.0  0.65627  0.77204  0.26297  1.0000
  C   C929      1.0  0.52932  0.69251  0.12191  1.0000
  S   S217      1.0  0.70104  0.68369  0.16598  1.0000
  H   H1607     1.0  0.92783  0.96186  0.01589  1.0000
  H   H1608     1.0  0.69631  0.67020  0.06476  1.0000
  C   C930      1.0  0.69479  0.68609  0.25981  1.0000
  H   H1609     1.0  0.56645  0.68387  0.08177  1.0000
  H   H1610     1.0  0.83398  0.69426  0.16321  1.0000
  H   H1611     1.0  0.60601  0.95348  0.24266  1.0000
  H   H1612     1.0  0.86146  0.98063  0.02959  1.0000
  Fe  Fe109     1.0  0.57797  0.92215  0.46768  1.0000
  S   S218      1.0  0.61339  0.90935  0.44549  1.0000
  C   C931      1.0  0.62925  0.82221  0.39263  1.0000
  C   C932      1.0  0.61731  0.77350  0.29049  1.0000
  H   H1613     1.0  0.64300  0.75553  0.21543  1.0000
  C   C933      1.0  0.65998  0.84293  0.40749  1.0000
  C   C934      1.0  0.67959  0.83783  0.38434  1.0000
  C   C935      1.0  0.61628  0.84565  0.37827  1.0000
  H   H1614     1.0  0.59303  0.81482  0.30846  1.0000
  H   H1615     1.0  0.63578  0.72793  0.25342  1.0000
  C   C936      1.0  0.81309  0.65400  0.43179  1.0000
  C   C937      1.0  0.69384  0.85893  0.37613  1.0000
  C   C938      1.0  0.60125  0.84002  0.35794  1.0000
  H   H1616     1.0  0.70268  0.78502  0.25122  1.0000
  H   H1617     1.0  0.61584  0.80965  0.39973  1.0000
  H   H1618     1.0  0.64130  0.81385  0.37667  1.0000
  H   H1619     1.0  0.64312  0.79110  0.44153  1.0000
  S   S219      1.0  0.78549  0.70522  0.35543  1.0000
  C   C939      1.0  0.65514  0.69226  0.04430  1.0000
  H   H1620     1.0  0.84006  0.95301  0.08233  1.0000
  H   H1621     1.0  0.65005  0.86105  0.40239  1.0000
  C   C940      1.0  0.62530  0.75954  0.22710  1.0000
  H   H1622     1.0  0.67175  0.83474  0.36666  1.0000
  H   H1623     1.0  0.69256  0.82197  0.39064  1.0000
  H   H1624     1.0  0.60401  0.85642  0.39206  1.0000
  H   H1625     1.0  0.62968  0.85681  0.36737  1.0000
  C   C941      1.0  0.60460  0.79568  0.27392  1.0000
  C   C942      1.0  0.73655  0.69708  0.00428  1.0000
  H   H1626     1.0  0.65456  0.67304  0.05218  1.0000
  H   H1627     1.0  0.67544  0.79082  0.38817  1.0000
  H   H1628     1.0  0.75931  0.72254  0.03958  1.0000
  H   H1629     1.0  0.75686  0.89974  0.33946  1.0000
  C   C943      1.0  0.60970  0.97460  0.30285  1.0000
  H   H1630     1.0  0.70794  0.85469  0.35965  1.0000
  H   H1631     1.0  0.68195  0.87544  0.36911  1.0000
  H   H1632     1.0  0.70266  0.86232  0.39308  1.0000
  H   H1633     1.0  0.58649  0.83016  0.36804  1.0000
  H   H1634     1.0  0.59325  0.85704  0.34682  1.0000
  H   H1635     1.0  0.61259  0.82901  0.34358  1.0000
  S   S220      1.0  0.92861  0.96632  0.12286  1.0000
  H   H1636     1.0  0.57757  0.82651  0.27967  1.0000
  H   H1637     1.0  0.93345  0.90015  0.07515  1.0000
  C   C944      1.0  0.72699  0.84228  0.15738  1.0000
  C   C945      1.0  0.72283  0.85493  0.11009  1.0000
  C   C946      1.0  0.74711  0.84199  0.09835  1.0000
  C   C947      1.0  0.71536  0.83601  0.18627  1.0000
  C   C948      1.0  0.73406  0.83151  0.20601  1.0000
  C   C949      1.0  0.75617  0.85589  0.07201  1.0000
  H   H1638     1.0  0.72743  0.80575  0.13216  1.0000
  H   H1639     1.0  0.74369  0.82943  0.15448  1.0000
  H   H1640     1.0  0.71028  0.85869  0.09455  1.0000
  H   H1641     1.0  0.72636  0.87300  0.11325  1.0000
  H   H1642     1.0  0.74561  0.82368  0.09434  1.0000
  H   H1643     1.0  0.76083  0.84058  0.11226  1.0000
  H   H1644     1.0  0.70175  0.85116  0.19207  1.0000
  H   H1645     1.0  0.70649  0.81972  0.18842  1.0000
  H   H1646     1.0  0.72517  0.82794  0.22658  1.0000
  H   H1647     1.0  0.74753  0.81574  0.20189  1.0000
  H   H1648     1.0  0.74338  0.84746  0.20474  1.0000
  H   H1649     1.0  0.75808  0.87449  0.07476  1.0000
  H   H1650     1.0  0.77400  0.84679  0.06449  1.0000
  H   H1651     1.0  0.74365  0.85653  0.05690  1.0000
  C   C950      1.0  0.83865  0.88746  0.23596  1.0000
  H   H1652     1.0  0.79848  0.86383  0.24496  1.0000
  H   H1653     1.0  0.80826  0.89919  0.26237  1.0000
  H   H1654     1.0  0.84604  0.90449  0.23554  1.0000
  H   H1655     1.0  0.85386  0.87265  0.23498  1.0000
  H   H1656     1.0  0.82891  0.88891  0.21817  1.0000
  H   H1657     1.0  0.67748  0.84644  0.16040  1.0000
  C   C951      1.0  0.57038  0.67960  0.13375  1.0000
  H   H1658     1.0  0.66043  0.72470  0.28544  1.0000
  H   H1659     1.0  0.68902  0.74633  0.26818  1.0000
  H   H1660     1.0  0.70373  0.82237  0.09029  1.0000
  C   C952      1.0  0.72011  0.72320  0.04976  1.0000
  C   C953      1.0  0.65291  0.97297  0.31079  1.0000
  H   H1661     1.0  0.73057  0.66574  0.03294  1.0000
  H   H1662     1.0  0.76370  0.92553  0.08173  1.0000
  C   C954      1.0  0.68547  0.88246  0.14386  1.0000
  H   H1663     1.0  0.80271  0.93640  0.08606  1.0000
  H   H1664     1.0  0.73351  0.85985  0.15633  1.0000
  H   H1665     1.0  0.74021  0.76145  0.01674  1.0000
  C   C955      1.0  0.64731  0.73798  0.29573  1.0000
  H   H1666     1.0  0.83886  0.69528  0.11425  1.0000
  H   H1667     1.0  0.72318  0.69816  0.09660  1.0000
  H   H1668     1.0  0.96001  0.86102  0.09336  1.0000
  H   H1669     1.0  0.60894  0.73174  0.21382  1.0000
  H   H1670     1.0  0.74673  0.70442  0.27037  1.0000
  C   C956      1.0  0.77987  0.87392  0.29794  1.0000
  C   C957      1.0  0.79273  0.94686  0.06981  1.0000
  H   H1671     1.0  0.82205  0.93607  0.04190  1.0000
  H   H1672     1.0  0.85927  0.94941  0.03836  1.0000
  Fe  Fe110     1.0  0.82439  0.69762  0.34025  1.0000
  H   H1673     1.0  0.65578  0.70624  0.34111  1.0000
  H   H1674     1.0  0.68040  0.71615  0.02780  1.0000
  C   C958      1.0  0.74489  0.89345  0.32726  1.0000
  H   H1675     1.0  0.76090  0.65784  0.18343  1.0000
  H   H1676     1.0  0.68978  0.78594  0.22055  1.0000
  H   H1677     1.0  0.81000  0.68390  0.40065  1.0000
  C   C959      1.0  0.59869  0.96014  0.26187  1.0000
  H   H1678     1.0  0.96663  0.87578  0.01787  1.0000
  H   H1679     1.0  0.88443  0.97198  0.98623  1.0000
  Fe  Fe111     1.0  0.52527  0.93707  0.46173  1.0000
  H   H1680     1.0  0.90989  0.85733  0.07900  1.0000
  C   C960      1.0  0.69689  0.81251  0.10938  1.0000
  H   H1681     1.0  0.76481  0.78966  0.28529  1.0000
  H   H1682     1.0  0.87910  0.71626  0.39019  1.0000
  H   H1683     1.0  0.93249  0.88645  0.04668  1.0000
  N   N50       1.0  0.79492  0.85211  0.28765  1.0000
  C   C961      1.0  0.80199  0.82987  0.33490  1.0000
  H   H1684     1.0  0.76359  0.94145  0.04850  1.0000
  H   H1685     1.0  0.92842  0.91802  0.01701  1.0000
  C   C962      1.0  0.77877  0.83532  0.28168  1.0000
  C   C963      1.0  0.75670  0.87003  0.31696  1.0000
  C   C964      1.0  0.78328  0.72044  0.19270  1.0000
  S   S221      1.0  0.49858  0.94233  0.43210  1.0000
  H   H1686     1.0  0.60272  0.76323  0.30026  1.0000
  H   H1687     1.0  0.53180  0.70612  0.10409  1.0000
  H   H1688     1.0  0.71393  0.76284  0.22914  1.0000
  C   C965      1.0  0.87282  0.95808  0.98569  1.0000
  C   C966      1.0  0.94559  0.92543  0.01177  1.0000
  C   C967      1.0  0.50376  0.68538  0.12350  1.0000
  N   N51       1.0  0.96683  0.89740  0.04942  1.0000
  C   C968      1.0  0.87705  0.68409  0.45403  1.0000
  H   H1689     1.0  0.85361  0.70663  0.41134  1.0000
  H   H1690     1.0  0.74344  0.86389  0.30631  1.0000
  H   H1691     1.0  0.78324  0.78097  0.25593  1.0000
  C   C969      1.0  0.62425  0.83411  0.43709  1.0000
  H   H1692     1.0  0.88131  0.94044  0.99502  1.0000
  C   C970      1.0  0.77524  0.93124  0.06333  1.0000
  H   H1693     1.0  0.92544  0.68356  0.45834  1.0000
  H   H1694     1.0  0.78511  0.91489  0.05536  1.0000
  H   H1695     1.0  0.60808  0.75964  0.19164  1.0000
  C   C971      1.0  0.94424  0.88759  0.06204  1.0000
  C   C972      1.0  0.92338  0.85645  0.09314  1.0000
  C   C973      1.0  0.66229  0.89244  0.15953  1.0000
  H   H1696     1.0  0.68201  0.93519  0.28640  1.0000
  C   C974      1.0  0.79132  0.81321  0.26843  1.0000
  H   H1697     1.0  0.65993  0.94368  0.34307  1.0000
  H   H1698     1.0  0.71833  0.70406  0.99888  1.0000
  C   C975      1.0  0.75128  0.66473  0.40021  1.0000
  C   C976      1.0  0.94735  0.86238  0.07831  1.0000
  S   S222      1.0  0.96798  0.98142  0.05229  1.0000
  H   H1699     1.0  0.92576  0.83804  0.10414  1.0000
  H   H1700     1.0  0.76790  0.82832  0.29986  1.0000
  S   S223      1.0  0.85346  0.67730  0.36444  1.0000
  S   S224      1.0  0.55684  0.95713  0.45306  1.0000
  H   H1701     1.0  0.61549  0.85256  0.43053  1.0000
  C   C977      1.0  0.79709  0.68512  0.16995  1.0000
  H   H1702     1.0  0.67728  0.81821  0.11303  1.0000
  C   C978      1.0  0.69756  0.77393  0.23726  1.0000
  H   H1703     1.0  0.76006  0.85655  0.33438  1.0000
  H   H1704     1.0  0.67333  0.75211  0.43686  1.0000
  C   C979      1.0  0.77350  0.79654  0.26550  1.0000
  N   N52       1.0  0.72142  0.69619  0.05496  1.0000
  C   C980      1.0  0.95970  0.92268  0.03635  1.0000
  H   H1705     1.0  0.64463  0.69686  0.02697  1.0000
  H   H1706     1.0  0.91637  0.86926  0.10772  1.0000
  C   C981      1.0  0.58920  0.98078  0.38708  1.0000
  H   H1707     1.0  0.60963  0.82264  0.44158  1.0000
  S   S225      1.0  0.67187  0.69178  0.23892  1.0000
  C   C982      1.0  0.81251  0.83980  0.30676  1.0000
  H   H1708     1.0  0.74761  0.73215  0.07118  1.0000
  H   H1709     1.0  0.80506  0.80248  0.28045  1.0000
  H   H1710     1.0  0.86942  0.70052  0.46343  1.0000
  C   C983      1.0  0.84794  0.96502  0.00011  1.0000
  H   H1711     1.0  0.94835  0.93354  0.05072  1.0000
  H   H1712     1.0  0.78158  0.68852  0.15820  1.0000
  Fe  Fe112     1.0  0.67952  0.70606  0.19584  1.0000
  S   S226      1.0  0.64708  0.71451  0.17347  1.0000
  H   H1713     1.0  0.71569  0.71267  0.23849  1.0000
  H   H1714     1.0  0.76543  0.68297  0.23170  1.0000
  H   H1715     1.0  0.82464  0.82498  0.29794  1.0000
  Fe  Fe113     1.0  0.66962  0.69466  0.14234  1.0000
  H   H1716     1.0  0.75152  0.69128  0.07823  1.0000
  S   S227      1.0  0.65640  0.67222  0.11554  1.0000
  H   H1717     1.0  0.74457  0.66442  0.12967  1.0000
  H   H1718     1.0  0.80053  0.95856  0.02742  1.0000
  C   C984      1.0  0.72982  0.67654  0.29543  1.0000
  H   H1719     1.0  0.61689  0.71713  0.30255  1.0000
  H   H1720     1.0  0.78208  0.96283  0.07759  1.0000
  C   C985      1.0  0.67984  0.75746  0.25177  1.0000
  H   H1721     1.0  0.75955  0.76615  0.04023  1.0000
  H   H1722     1.0  0.68831  0.68571  0.01975  1.0000
  H   H1723     1.0  0.85627  0.66518  0.22164  1.0000
  H   H1724     1.0  0.95376  0.84862  0.06475  1.0000
  H   H1725     1.0  0.60685  0.72522  0.12392  1.0000
  C   C986      1.0  0.81775  0.69689  0.15264  1.0000
  C   C987      1.0  0.71430  0.69900  0.25547  1.0000
  H   H1726     1.0  0.74662  0.71260  0.00213  1.0000
  N   N53       1.0  0.78937  0.69336  0.19689  1.0000
  H   H1727     1.0  0.67623  0.74543  0.23803  1.0000
  C   C988      1.0  0.62595  0.74610  0.25582  1.0000
  H   H1728     1.0  0.66127  0.78230  0.27775  1.0000
  H   H1729     1.0  0.61898  0.73419  0.32912  1.0000
  H   H1730     1.0  0.86146  0.67548  0.45109  1.0000
  C   C989      1.0  0.60645  0.75160  0.21286  1.0000
  C   C990      1.0  0.55945  0.66785  0.09337  1.0000
  C   C991      1.0  0.82457  0.68606  0.12660  1.0000
  H   H1731     1.0  0.70688  0.73168  0.06493  1.0000
  H   H1732     1.0  0.78650  0.82054  0.33443  1.0000
  H   H1733     1.0  0.52890  0.70247  0.13920  1.0000
  H   H1734     1.0  0.75073  0.69440  0.20281  1.0000
  C   C992      1.0  0.64262  0.70103  0.32953  1.0000
  H   H1735     1.0  0.63228  0.94976  0.27757  1.0000
  H   H1736     1.0  0.80241  0.66544  0.17157  1.0000
  H   H1737     1.0  0.59474  0.69519  0.10118  1.0000
  H   H1738     1.0  0.75701  0.76781  0.22829  1.0000
  H   H1739     1.0  0.62122  0.77924  0.22635  1.0000
  S   S228      1.0  0.81715  0.68354  0.30375  1.0000
  Fe  Fe114     1.0  0.77839  0.69437  0.31703  1.0000
  C   C993      1.0  0.81066  0.95350  0.04511  1.0000
  H   H1740     1.0  0.95617  0.91621  0.99545  1.0000
  N   N54       1.0  0.55017  0.67241  0.12152  1.0000
  H   H1741     1.0  0.75379  0.76482  0.19449  1.0000
  H   H1742     1.0  0.62481  0.77993  0.30679  1.0000
  H   H1743     1.0  0.82596  0.79595  0.33837  1.0000
  H   H1744     1.0  0.93005  0.95352  0.98289  1.0000
  C   C994      1.0  0.84961  0.96680  0.02981  1.0000
  C   C995      1.0  0.82059  0.81191  0.34914  1.0000
  H   H1745     1.0  0.83668  0.82030  0.35056  1.0000
  N   N55       1.0  0.63660  0.75756  0.27556  1.0000
  H   H1746     1.0  0.74234  0.68050  0.38788  1.0000
  N   N56       1.0  0.64266  0.82493  0.41540  1.0000
  C   C996      1.0  0.73281  0.66080  0.09169  1.0000
  C   C997      1.0  0.93958  0.95192  0.00081  1.0000
  H   H1747     1.0  0.80314  0.69345  0.23428  1.0000
  H   H1748     1.0  0.78285  0.76731  0.20382  1.0000
  H   H1749     1.0  0.65014  0.78601  0.24696  1.0000
  C   C998      1.0  0.68277  0.93487  0.30806  1.0000
  H   H1750     1.0  0.77145  0.72596  0.17652  1.0000
  H   H1751     1.0  0.78178  0.72858  0.23395  1.0000
  H   H1752     1.0  0.82453  0.69696  0.20620  1.0000
  H   H1753     1.0  0.81268  0.80565  0.36955  1.0000
  H   H1754     1.0  0.79975  0.72902  0.18612  1.0000
  C   C999      1.0  0.74395  0.73310  0.05028  1.0000
  H   H1755     1.0  0.58492  0.66417  0.13641  1.0000
  H   H1756     1.0  0.69744  0.94468  0.31102  1.0000
  H   H1757     1.0  0.85686  0.96936  0.11827  1.0000
  C   C1000     1.0  0.80922  0.68714  0.21463  1.0000
  H   H1758     1.0  0.59522  0.79009  0.25870  1.0000
  H   H1759     1.0  0.75317  0.72627  0.22421  1.0000
  H   H1760     1.0  0.65056  0.77502  0.40024  1.0000
  H   H1761     1.0  0.62021  0.95885  0.35249  1.0000
  S   S229      1.0  0.75183  0.66877  0.31754  1.0000
  H   H1762     1.0  0.68697  0.91588  0.31693  1.0000
  C   C1001     1.0  0.71021  0.66385  0.29962  1.0000
  H   H1763     1.0  0.81226  0.71643  0.14717  1.0000
  H   H1764     1.0  0.86722  0.98397  0.07001  1.0000
  H   H1765     1.0  0.61045  0.69661  0.14447  1.0000
  C   C1002     1.0  0.97252  0.91378  0.09278  1.0000
  H   H1766     1.0  0.73788  0.65823  0.41639  1.0000
  C   C1003     1.0  0.84358  0.66097  0.39473  1.0000
  N   N57       1.0  0.62723  0.98408  0.31715  1.0000
  H   H1767     1.0  0.58975  0.94577  0.27462  1.0000
  H   H1768     1.0  0.71314  0.73051  0.03054  1.0000
  H   H1769     1.0  0.63459  0.98304  0.35798  1.0000
  C   C1004     1.0  0.69271  0.66872  0.28201  1.0000
  H   H1770     1.0  0.76756  0.67382  0.98796  1.0000
  C   C1005     1.0  0.54111  0.66195  0.07628  1.0000
  H   H1771     1.0  0.68618  0.69824  0.07669  1.0000
  C   C1006     1.0  0.68101  0.69690  0.03578  1.0000
  H   H1772     1.0  0.57492  0.65312  0.09360  1.0000
  H   H1773     1.0  0.56404  0.68427  0.15413  1.0000
  C   C1007     1.0  0.74883  0.68069  0.98388  1.0000
  H   H1774     1.0  0.86948  0.72865  0.42098  1.0000
  H   H1775     1.0  0.52671  0.66652  0.17250  1.0000
  C   C1008     1.0  0.73258  0.68776  0.08060  1.0000
  H   H1776     1.0  0.69848  0.76822  0.42425  1.0000
  H   H1777     1.0  0.79570  0.65938  0.44223  1.0000
  H   H1778     1.0  0.89084  0.67666  0.41368  1.0000
  H   H1779     1.0  0.83664  0.95133  0.99798  1.0000
  C   C1009     1.0  0.69624  0.68989  0.05941  1.0000
  H   H1780     1.0  0.83140  0.66663  0.13060  1.0000
  C   C1010     1.0  0.55335  0.65496  0.04951  1.0000
  H   H1781     1.0  0.68892  0.74877  0.40422  1.0000
  H   H1782     1.0  0.80882  0.68847  0.11521  1.0000
  H   H1783     1.0  0.50240  0.67327  0.10890  1.0000
  H   H1784     1.0  0.56217  0.66994  0.03796  1.0000
  C   C1011     1.0  0.83184  0.97153  0.07508  1.0000
  C   C1012     1.0  0.73632  0.68358  0.03303  1.0000
  H   H1785     1.0  0.65219  0.68856  0.31560  1.0000
  H   H1786     1.0  0.84044  0.98255  0.98966  1.0000
  C   C1013     1.0  0.81903  0.66026  0.22111  1.0000
  H   H1787     1.0  0.52772  0.67802  0.07186  1.0000
  H   H1788     1.0  0.72634  0.65979  0.21866  1.0000
  H   H1789     1.0  0.81532  0.97499  0.08887  1.0000
  H   H1790     1.0  0.96696  0.93283  0.08521  1.0000
  H   H1791     1.0  0.76588  0.67060  0.40900  1.0000
  H   H1792     1.0  0.48611  0.97633  0.38722  1.0000
  C   C1014     1.0  0.61906  0.96623  0.27530  1.0000
  H   H1793     1.0  0.49460  0.89633  0.46835  1.0000
  H   H1794     1.0  0.97586  0.93174  0.03003  1.0000
  H   H1795     1.0  0.64585  0.84978  0.46107  1.0000
  H   H1796     1.0  0.58657  0.96174  0.38818  1.0000
  H   H1797     1.0  0.48877  0.71708  0.09835  1.0000
  H   H1798     1.0  0.67758  0.65880  0.28550  1.0000
  H   H1799     1.0  0.60330  0.98193  0.39978  1.0000
  H   H1800     1.0  0.71461  0.65748  0.10096  1.0000
  H   H1801     1.0  0.65848  0.97519  0.28907  1.0000
  H   H1802     1.0  0.58526  0.97626  0.25787  1.0000
  H   H1803     1.0  0.62792  0.97994  0.26159  1.0000
  H   H1804     1.0  0.92516  0.65697  0.42542  1.0000
  H   H1805     1.0  0.76852  0.65496  0.10489  1.0000
  H   H1806     1.0  0.64342  0.81857  0.47215  1.0000
  H   H1807     1.0  0.98267  0.92447  0.12821  1.0000
  C   C1015     1.0  0.98336  0.89892  0.06980  1.0000
  H   H1808     1.0  0.66526  0.98251  0.31928  1.0000
  C   C1016     1.0  0.74974  0.65318  0.11327  1.0000
  C   C1017     1.0  0.84174  0.65717  0.23503  1.0000
  C   C1018     1.0  0.62065  0.97849  0.34685  1.0000
  C   C1019     1.0  0.48507  0.70751  0.11870  1.0000
  H   H1809     1.0  0.48502  0.71992  0.13358  1.0000
  H   H1810     1.0  0.48872  0.88606  0.66549  1.0000
  S   S230      1.0  0.57378  0.92922  0.51023  1.0000
  H   H1811     1.0  0.58835  0.88700  0.56980  1.0000
  Fe  Fe115     1.0  0.54054  0.91164  0.51409  1.0000
  S   S231      1.0  0.53212  0.88380  0.54852  1.0000
  C   C1020     1.0  0.57229  0.95493  0.66595  1.0000
  H   H1812     1.0  0.65375  0.97601  0.62679  1.0000
  H   H1813     1.0  0.50439  0.84590  0.56844  1.0000
  C   C1021     1.0  0.50351  0.95704  0.59780  1.0000
  H   H1814     1.0  0.84043  0.66840  0.49136  1.0000
  H   H1815     1.0  0.62013  0.84512  0.50329  1.0000
  H   H1816     1.0  0.90619  0.69825  0.48261  1.0000
  C   C1022     1.0  0.48542  0.89126  0.64434  1.0000
  H   H1817     1.0  0.53365  0.96044  0.63660  1.0000
  H   H1818     1.0  0.50483  0.96487  0.67149  1.0000
  H   H1819     1.0  0.59063  0.92518  0.60597  1.0000
  H   H1820     1.0  0.52706  0.90750  0.65589  1.0000
  H   H1821     1.0  0.87127  0.95675  0.96454  1.0000
  N   N58       1.0  0.53832  0.92784  0.61822  1.0000
  C   C1023     1.0  0.55784  0.90819  0.61019  1.0000
  C   C1024     1.0  0.51947  0.91663  0.63749  1.0000
  C   C1025     1.0  0.52804  0.94096  0.59342  1.0000
  H   H1822     1.0  0.65624  0.97199  0.66197  1.0000
  H   H1823     1.0  0.60299  0.88192  0.59998  1.0000
  C   C1026     1.0  0.58057  0.91664  0.59363  1.0000
  H   H1824     1.0  0.56102  0.95526  0.61712  1.0000
  H   H1825     1.0  0.95007  0.69564  0.49856  1.0000
  H   H1826     1.0  0.50503  0.93067  0.64431  1.0000
  H   H1827     1.0  0.49875  0.96369  0.55554  1.0000
  C   C1027     1.0  0.59737  0.89552  0.58323  1.0000
  H   H1828     1.0  0.48890  0.94572  0.60326  1.0000
  H   H1829     1.0  0.55081  0.89668  0.59801  1.0000
  H   H1830     1.0  0.56345  0.89580  0.62793  1.0000
  S   S232      1.0  0.51605  0.94559  0.50351  1.0000
  H   H1831     1.0  0.61360  0.90203  0.57172  1.0000
  H   H1832     1.0  0.52604  0.92824  0.57953  1.0000
  H   H1833     1.0  0.57370  0.92008  0.65407  1.0000
  H   H1834     1.0  0.57587  0.92969  0.57614  1.0000
  C   C1028     1.0  0.50157  0.88439  0.56016  1.0000
  C   C1029     1.0  0.50826  0.89717  0.62708  1.0000
  H   H1835     1.0  0.97868  0.92824  0.89747  1.0000
  C   C1030     1.0  0.92882  0.66678  0.49893  1.0000
  C   C1031     1.0  0.54803  0.94583  0.63133  1.0000
  H   H1836     1.0  0.49316  0.92289  0.55485  1.0000
  H   H1837     1.0  0.54081  0.95264  0.58188  1.0000
  C   C1032     1.0  0.55999  0.93588  0.65703  1.0000
  H   H1838     1.0  0.54631  0.93065  0.67355  1.0000
  H   H1839     1.0  0.74926  0.69092  0.96360  1.0000
  Fe  Fe116     1.0  0.54980  0.96257  0.49601  1.0000
  C   C1033     1.0  0.95285  0.67612  0.49691  1.0000
  H   H1840     1.0  0.55926  0.97130  0.66896  1.0000
  H   H1841     1.0  0.87405  0.67892  0.50899  1.0000
  H   H1842     1.0  0.59116  0.97093  0.58566  1.0000
  H   H1843     1.0  0.50366  0.90319  0.60678  1.0000
  H   H1844     1.0  0.57974  0.94783  0.68502  1.0000
  C   C1034     1.0  0.61299  0.84333  0.48459  1.0000
  H   H1845     1.0  0.49025  0.86608  0.48197  1.0000
  H   H1846     1.0  0.57934  0.96670  0.54151  1.0000
  H   H1847     1.0  0.52113  0.88034  0.62680  1.0000
  H   H1848     1.0  0.91922  0.66942  0.51890  1.0000
  H   H1849     1.0  0.60287  0.86095  0.47742  1.0000
  H   H1850     1.0  0.58722  0.95984  0.65082  1.0000
  H   H1851     1.0  0.50298  0.96827  0.61389  1.0000
  C   C1035     1.0  0.48680  0.88505  0.48596  1.0000
  H   H1852     1.0  0.60054  0.82967  0.48906  1.0000
  H   H1853     1.0  0.96305  0.66652  0.51337  1.0000
  H   H1854     1.0  0.49585  0.88645  0.50353  1.0000
  C   C1036     1.0  0.49275  0.86275  0.56973  1.0000
  C   C1037     1.0  0.87826  0.66246  0.49883  1.0000
  C   C1038     1.0  0.49810  0.97393  0.57251  1.0000
  C   C1039     1.0  0.48949  0.97645  0.67928  1.0000
  C   C1040     1.0  0.48641  0.90615  0.56197  1.0000
  H   H1855     1.0  0.84130  0.65502  0.53996  1.0000
  C   C1041     1.0  0.57317  0.98298  0.55033  1.0000
  C   C1042     1.0  0.85408  0.65324  0.49803  1.0000
  H   H1856     1.0  0.96368  0.67284  0.47774  1.0000
  C   C1043     1.0  0.91333  0.68009  0.47690  1.0000
  C   C1044     1.0  0.65706  0.98503  0.64354  1.0000
