data_image0
_chemical_formula_structural       FeSFeSHFeHFeS2H2FeS2FeSCFeSFeS3H3C2HCH2CH2C3HCH4C6H5CH6CNC3H3S2H6CH4CH4C3H2C2HC2H2CH2C3HC2HCHCH4CH3CH2C2HCH2CH3CH3NCHCHCHCHCHCHC3H2CH3SH2C2H4C2HCH2CH2CSFeCHCH5CSHNCHCH2CHNHC2HNC2HCHC3H3CHC2H3C2HCH2CH2CH3C3HC3H6CH3CH3C2HCHC3H3CH2CH8CHCH4SH3C2H9C2H6CHCH3NH2CFeCFeH3NSFe2S2FeCS2C3HC5SC2H2C2H3FeHSH2FeH2C2HCFeHSHS2HSC3H2C4H5C3H2CHCSH2CHCHNHSHFeH4FeH2SCH2NH2FeC2HCH3CH2C3H2C3H3C3HCH4SH3CH6CH5C3H3C2HC2H8CH3CHC4HC2SC2HCHCH4CHNCH2SC2H3CH9CH2CH5SH8NC2H3C2H8CS2H2CHC4HSH2C2HC2H4CH3CH4CH4C2HCH2CH3C2SH5CH3CH5FeS2HFeCH2S2HSFeSCFeS2FeSFeS3C3H2C6H2FeHC6H2CHCSC2H5C2H3FeSH6CHNC11H27SHCHCHFeH6CH3C3SH4S3CSC3NCH3CH2CHFeH5C2H2CHC3H2CFeH2S2HCH3CH4C5HFeH6CH2CHSH5C2H4C2H3NHCHCH2SH3CH3SCH2CHCH3C2H2C2H9CH2CHCH2SHCHNHCHC4H2CH2CHCH5CH2CH4C2H2CH3CH3CH12C2HFeS2FeS2FeSFeS3FeHSFeHFeS2FeCFeS2H2C5H2NSHC6H4FeCHC7HSH3CHC2HCH3C2HSH2C3H5NC2H11C3H2CH2NCHCH3CH3C2HCHCSCH2NC5HC4HCH11CH13CH5CH4C2SC3H4C2HSHC3H2CH3CHCH10NC3H3CH8C2H2CH4C2H8CHCH2SH3CHSH8SH2FeSCFeSFeHSC2S2CFeH3C2H2FeSHCH4FeH2C5NHFeS2FeS2Fe3S3FeSHFeH2SCH3C6H2CHSC3H2NCHC2HC2HCHNH3CHSH7CHCH3C2HC2HCHC2H3C2HC3H2SC2SHCHCH3C2H4CH3CH5FeCH7C3HNH7CH2CNC2SHCH2CH5CHCHC2H8CHCHCH2NSH2CSHSHC2H5C2H5C5H2CH2CH3CHNC6H15C4H3CHCHCH4C3HCHCHCHCHC3H3NC2HC2H3NH4CH2SH3CH2C3HCH2CH8C2HCH3CH4FeS2FeSCFeSFeS3HFeS2H2Fe2HS2HCHNHC2HCHCHC2H2CHC6H4C4H5C2H2CHCNC4HC4H2CH8CSCH4CH4CH2CH13CHCHC2HC2SH6C2HCH2CH11C2NH3C2HCH4CH5FeCH5C2H3CHC2SH2CHC2H3CH3CH4CSHC2HSC2HSH
_chemical_formula_sum              "Fe64 S128 H1024 C576 N32"
_cell_length_a       34.7126
_cell_length_b       35.38
_cell_length_c       34.7884
_cell_angle_alpha    90.5842
_cell_angle_beta     89.5031
_cell_angle_gamma    90.0597

_space_group_name_H-M_alt    "P 1"
_space_group_IT_number       1

loop_
  _space_group_symop_operation_xyz
  'x, y, z'

loop_
  _atom_site_type_symbol
  _atom_site_label
  _atom_site_symmetry_multiplicity
  _atom_site_fract_x
  _atom_site_fract_y
  _atom_site_fract_z
  _atom_site_occupancy
  Fe  Fe1       1.0  0.43690  0.08285  0.48744  1.0000
  S   S1        1.0  0.42379  0.05851  0.42929  1.0000
  Fe  Fe2       1.0  0.38934  0.15549  0.47253  1.0000
  S   S2        1.0  0.37343  0.13618  0.41337  1.0000
  H   H1        1.0  0.22718  0.03982  0.29630  1.0000
  Fe  Fe3       1.0  0.36378  0.07972  0.43987  1.0000
  H   H2        1.0  0.51822  0.07396  0.43186  1.0000
  Fe  Fe4       1.0  0.43468  0.11710  0.40760  1.0000
  S   S3        1.0  0.46839  0.12240  0.35236  1.0000
  S   S4        1.0  0.45232  0.14066  0.46506  1.0000
  H   H3        1.0  0.21389  0.27932  0.31575  1.0000
  H   H4        1.0  0.14790  0.10933  0.38122  1.0000
  Fe  Fe5       1.0  0.40247  0.13225  0.08351  1.0000
  S   S5        1.0  0.37196  0.18286  0.10796  1.0000
  S   S6        1.0  0.45670  0.13873  0.04612  1.0000
  Fe  Fe6       1.0  0.34131  0.07672  0.11515  1.0000
  S   S7        1.0  0.30639  0.12360  0.14129  1.0000
  C   C1        1.0  0.31193  0.09552  0.30987  1.0000
  Fe  Fe7       1.0  0.31787  0.15499  0.08699  1.0000
  S   S8        1.0  0.26932  0.18831  0.06062  1.0000
  Fe  Fe8       1.0  0.36263  0.14778  0.16068  1.0000
  S   S9        1.0  0.35798  0.17456  0.21956  1.0000
  S   S10       1.0  0.34862  0.10608  0.05833  1.0000
  S   S11       1.0  0.39772  0.09876  0.13848  1.0000
  H   H5        1.0  0.22944  0.33190  0.36743  1.0000
  H   H6        1.0  0.16044  0.21554  0.03933  1.0000
  H   H7        1.0  0.09871  0.11856  0.07814  1.0000
  C   C2        1.0  0.28772  0.14509  0.35793  1.0000
  C   C3        1.0  0.22485  0.33766  0.33640  1.0000
  H   H8        1.0  0.03844  0.24886  0.10061  1.0000
  C   C4        1.0  0.19852  0.30656  0.31937  1.0000
  H   H9        1.0  0.34100  0.35384  0.49744  1.0000
  H   H10       1.0  0.04910  0.30637  0.28571  1.0000
  C   C5        1.0  0.26908  0.23565  0.07674  1.0000
  H   H11       1.0  0.33688  0.03304  0.23772  1.0000
  H   H12       1.0  0.22616  0.04717  0.16927  1.0000
  C   C6        1.0  0.27539  0.31266  0.09625  1.0000
  C   C7        1.0  0.29755  0.28581  0.11521  1.0000
  C   C8        1.0  0.29365  0.24736  0.10614  1.0000
  H   H13       1.0  0.14695  0.32583  0.35023  1.0000
  C   C9        1.0  0.39720  0.29983  0.05030  1.0000
  H   H14       1.0  0.31777  0.29465  0.13701  1.0000
  H   H15       1.0  0.30985  0.22689  0.12192  1.0000
  H   H16       1.0  0.30459  0.23355  0.33446  1.0000
  H   H17       1.0  0.08847  0.10224  0.03014  1.0000
  C   C10       1.0  0.43961  0.13886  0.31469  1.0000
  C   C11       1.0  0.40943  0.16404  0.32227  1.0000
  C   C12       1.0  0.38522  0.17546  0.29256  1.0000
  C   C13       1.0  0.39086  0.16161  0.25511  1.0000
  C   C14       1.0  0.42170  0.13729  0.24712  1.0000
  C   C15       1.0  0.44628  0.12617  0.27689  1.0000
  H   H18       1.0  0.40520  0.17534  0.35091  1.0000
  H   H19       1.0  0.36176  0.19473  0.29870  1.0000
  H   H20       1.0  0.42652  0.12696  0.21813  1.0000
  H   H21       1.0  0.46990  0.10704  0.27082  1.0000
  H   H22       1.0  0.21999  0.13697  0.11908  1.0000
  C   C16       1.0  0.25827  0.27326  0.46012  1.0000
  H   H23       1.0  0.02398  0.24745  0.17064  1.0000
  H   H24       1.0  0.19418  0.12873  0.36704  1.0000
  H   H25       1.0  0.18852  0.07848  0.37373  1.0000
  H   H26       1.0  0.31462  0.16155  0.35337  1.0000
  H   H27       1.0  0.25125  0.22678  0.42024  1.0000
  H   H28       1.0  0.26269  0.03949  0.07701  1.0000
  C   C17       1.0  0.18917  0.14120  0.12693  1.0000
  N   N1        1.0  0.30368  0.06534  0.27982  1.0000
  C   C18       1.0  0.17985  0.15068  0.44290  1.0000
  C   C19       1.0  0.48026  0.18320  0.04157  1.0000
  C   C20       1.0  0.47360  0.21266  0.06790  1.0000
  H   H29       1.0  0.18279  0.19059  0.09268  1.0000
  H   H30       1.0  0.45381  0.20855  0.09166  1.0000
  H   H31       1.0  0.33308  0.34382  0.03603  1.0000
  S   S12       1.0  0.03247  0.22952  0.01543  1.0000
  S   S13       1.0  0.31347  0.04706  0.41654  1.0000
  H   H32       1.0  0.08197  0.24957  0.22636  1.0000
  H   H33       1.0  0.09680  0.26914  0.12098  1.0000
  H   H34       1.0  0.24892  0.04681  0.34299  1.0000
  H   H35       1.0  0.19631  0.17191  0.42584  1.0000
  H   H36       1.0  0.35338  0.23673  0.03867  1.0000
  H   H37       1.0  0.13827  0.16712  0.10470  1.0000
  C   C21       1.0  0.09459  0.27086  0.15287  1.0000
  H   H38       1.0  0.28365  0.31434  0.23834  1.0000
  H   H39       1.0  0.24319  0.32277  0.18149  1.0000
  H   H40       1.0  0.17304  0.28850  0.37369  1.0000
  H   H41       1.0  0.27228  0.14215  0.29843  1.0000
  C   C22       1.0  0.34087  0.05692  0.25842  1.0000
  H   H42       1.0  0.14925  0.15544  0.43562  1.0000
  H   H43       1.0  0.10126  0.25728  0.05097  1.0000
  H   H44       1.0  0.17512  0.08845  0.44273  1.0000
  H   H45       1.0  0.41752  0.05605  0.23718  1.0000
  C   C23       1.0  0.08545  0.34880  0.02581  1.0000
  C   C24       1.0  0.27548  0.04087  0.44921  1.0000
  C   C25       1.0  0.27890  0.05204  0.48767  1.0000
  H   H46       1.0  0.28674  0.10637  0.23763  1.0000
  H   H47       1.0  0.11787  0.19818  0.47344  1.0000
  C   C26       1.0  0.24918  0.02929  0.31638  1.0000
  C   C27       1.0  0.08715  0.28118  0.03815  1.0000
  H   H48       1.0  0.31545  0.31488  0.30067  1.0000
  C   C28       1.0  0.10680  0.16198  0.03356  1.0000
  C   C29       1.0  0.16851  0.16263  0.09525  1.0000
  H   H49       1.0  0.14455  0.27799  0.33202  1.0000
  H   H50       1.0  0.33475  0.11508  0.29932  1.0000
  C   C30       1.0  0.24813  0.30079  0.06926  1.0000
  H   H51       1.0  0.25131  0.10613  0.32785  1.0000
  H   H52       1.0  0.13711  0.27750  0.19921  1.0000
  C   C31       1.0  0.06424  0.33219  0.14196  1.0000
  C   C32       1.0  0.17960  0.10682  0.38457  1.0000
  C   C33       1.0  0.23108  0.06625  0.19431  1.0000
  H   H53       1.0  0.09961  0.29655  0.27711  1.0000
  C   C34       1.0  0.08622  0.12671  0.05019  1.0000
  C   C35       1.0  0.12053  0.12979  0.50620  1.0000
  H   H54       1.0  0.27327  0.31459  0.50317  1.0000
  C   C36       1.0  0.02413  0.27544  0.15631  1.0000
  H   H55       1.0  0.23637  0.09522  0.18355  1.0000
  C   C37       1.0  0.27540  0.07981  0.25067  1.0000
  H   H56       1.0  0.44049  0.34238  0.06555  1.0000
  H   H57       1.0  0.03930  0.15875  0.07720  1.0000
  H   H58       1.0  0.03175  0.25908  0.23477  1.0000
  H   H59       1.0  0.03759  0.32419  0.21495  1.0000
  C   C38       1.0  0.24359  0.34491  0.20436  1.0000
  H   H60       1.0  0.36847  0.29210  0.06206  1.0000
  H   H61       1.0  0.06835  0.32594  0.11087  1.0000
  H   H62       1.0  0.29131  0.12616  0.38294  1.0000
  C   C39       1.0  0.40872  0.33874  0.06767  1.0000
  H   H63       1.0  0.10813  0.26742  0.48057  1.0000
  H   H64       1.0  0.34959  0.08169  0.24066  1.0000
  C   C40       1.0  0.32635  0.23514  0.48239  1.0000
  C   C41       1.0  0.16367  0.29942  0.34548  1.0000
  H   H65       1.0  0.18781  0.15771  0.15422  1.0000
  C   C42       1.0  0.26563  0.05228  0.21710  1.0000
  H   H66       1.0  0.38524  0.07142  0.30121  1.0000
  H   H67       1.0  0.13011  0.32118  0.05749  1.0000
  C   C43       1.0  0.13482  0.28295  0.16795  1.0000
  H   H68       1.0  0.23058  0.32142  0.05480  1.0000
  H   H69       1.0  0.41704  0.27856  0.06278  1.0000
  H   H70       1.0  0.20222  0.13906  0.04928  1.0000
  C   C44       1.0  0.28755  0.30885  0.31556  1.0000
  H   H71       1.0  0.09044  0.34834  0.15020  1.0000
  H   H72       1.0  0.10232  0.18594  0.05410  1.0000
  H   H73       1.0  0.32870  0.24435  0.37889  1.0000
  N   N2        1.0  0.06126  0.29604  0.16455  1.0000
  C   C45       1.0  0.24549  0.26234  0.05901  1.0000
  H   H74       1.0  0.24775  0.08810  0.26442  1.0000
  C   C46       1.0  0.28157  0.28846  0.48899  1.0000
  H   H75       1.0  0.16701  0.26683  0.11609  1.0000
  C   C47       1.0  0.29700  0.29157  0.35522  1.0000
  H   H76       1.0  0.32405  0.08262  0.33626  1.0000
  C   C48       1.0  0.25480  0.32743  0.24263  1.0000
  H   H77       1.0  0.22205  0.10596  0.42871  1.0000
  C   C49       1.0  0.31540  0.26948  0.50005  1.0000
  H   H78       1.0  0.31682  0.29810  0.02090  1.0000
  C   C50       1.0  0.32107  0.25560  0.35028  1.0000
  H   H79       1.0  0.27412  0.28576  0.29856  1.0000
  C   C51       1.0  0.51924  0.25337  0.03355  1.0000
  C   C52       1.0  0.26908  0.23884  0.44256  1.0000
  C   C53       1.0  0.30297  0.21994  0.45351  1.0000
  H   H80       1.0  0.15223  0.22488  0.44639  1.0000
  H   H81       1.0  0.31101  0.19360  0.43963  1.0000
  C   C54       1.0  0.27811  0.12193  0.32195  1.0000
  H   H82       1.0  0.14009  0.31338  0.16370  1.0000
  H   H83       1.0  0.16403  0.23037  0.15232  1.0000
  H   H84       1.0  0.16215  0.11079  0.06138  1.0000
  S   S14       1.0  0.21488  0.29551  0.44583  1.0000
  H   H85       1.0  0.30498  0.06513  0.49755  1.0000
  H   H86       1.0  0.48796  0.26976  0.08483  1.0000
  C   C55       1.0  0.06100  0.27186  0.23460  1.0000
  C   C56       1.0  0.16717  0.26118  0.14747  1.0000
  H   H87       1.0  0.08825  0.32308  0.21333  1.0000
  H   H88       1.0  0.34827  0.26162  0.33440  1.0000
  H   H89       1.0  0.19550  0.27043  0.15887  1.0000
  H   H90       1.0  0.26396  0.16516  0.36459  1.0000
  C   C57       1.0  0.49318  0.24734  0.06405  1.0000
  C   C58       1.0  0.06236  0.30582  0.20677  1.0000
  H   H91       1.0  0.06826  0.26006  0.29528  1.0000
  C   C59       1.0  0.19057  0.11094  0.42684  1.0000
  H   H92       1.0  0.18726  0.31580  0.29122  1.0000
  H   H93       1.0  0.08958  0.24118  0.16199  1.0000
  C   C60       1.0  0.04336  0.13452  0.05700  1.0000
  H   H94       1.0  0.17546  0.11322  0.13165  1.0000
  H   H95       1.0  0.23395  0.30463  0.24902  1.0000
  C   C61       1.0  0.10352  0.31747  0.04201  1.0000
  S   S15       1.0  0.37541  0.09982  0.50018  1.0000
  Fe  Fe9       1.0  0.19725  0.35593  0.46242  1.0000
  C   C62       1.0  0.07003  0.28459  0.27567  1.0000
  H   H96       1.0  0.29046  0.05014  0.19692  1.0000
  C   C63       1.0  0.05276  0.27561  0.01780  1.0000
  H   H97       1.0  0.20465  0.06626  0.21255  1.0000
  H   H98       1.0  0.27027  0.28384  0.37096  1.0000
  H   H99       1.0  0.41112  0.31843  0.12659  1.0000
  H   H100      1.0  0.02892  0.14105  0.02945  1.0000
  H   H101      1.0  0.36608  0.34057  0.11389  1.0000
  C   C64       1.0  0.17100  0.14064  0.05651  1.0000
  S   S16       1.0  0.36908  0.21209  0.49752  1.0000
  H   H102      1.0  0.20265  0.21646  0.48964  1.0000
  N   N3        1.0  0.14895  0.15735  0.02361  1.0000
  C   C65       1.0  0.37599  0.04666  0.28368  1.0000
  H   H103      1.0  0.11138  0.12660  0.47592  1.0000
  C   C66       1.0  0.22951  0.15053  0.49197  1.0000
  H   H104      1.0  0.22612  0.25357  0.03655  1.0000
  H   H105      1.0  0.43578  0.02972  0.27714  1.0000
  C   C67       1.0  0.29019  0.02923  0.29851  1.0000
  H   H106      1.0  0.31395  0.31140  0.37326  1.0000
  N   N4        1.0  0.26279  0.34399  0.31597  1.0000
  H   H107      1.0  0.24713  0.16412  0.46906  1.0000
  C   C68       1.0  0.39782  0.34178  0.11020  1.0000
  C   C69       1.0  0.21496  0.02782  0.50119  1.0000
  H   H108      1.0  0.02928  0.10920  0.06949  1.0000
  N   N5        1.0  0.18705  0.15717  0.48522  1.0000
  C   C70       1.0  0.14331  0.21679  0.47599  1.0000
  C   C71       1.0  0.41024  0.03417  0.25871  1.0000
  H   H109      1.0  0.23626  0.11988  0.48976  1.0000
  C   C72       1.0  0.17775  0.19765  0.49638  1.0000
  H   H110      1.0  0.38662  0.17954  0.01364  1.0000
  C   C73       1.0  0.13059  0.25272  0.49734  1.0000
  C   C74       1.0  0.16555  0.19575  0.01477  1.0000
  C   C75       1.0  0.24138  0.02410  0.43658  1.0000
  H   H111      1.0  0.36935  0.02317  0.30346  1.0000
  H   H112      1.0  0.25850  0.02358  0.22747  1.0000
  H   H113      1.0  0.15525  0.27238  0.50124  1.0000
  C   C76       1.0  0.50680  0.18896  0.01132  1.0000
  H   H114      1.0  0.17522  0.10027  0.50490  1.0000
  C   C77       1.0  0.16490  0.12967  0.50998  1.0000
  C   C78       1.0  0.32856  0.32526  0.01060  1.0000
  H   H115      1.0  0.19747  0.19418  0.01172  1.0000
  H   H116      1.0  0.07047  0.09871  0.52674  1.0000
  H   H117      1.0  0.33309  0.28136  0.52260  1.0000
  C   C79       1.0  0.36262  0.19242  0.99741  1.0000
  C   C80       1.0  0.49735  0.16948  0.56927  1.0000
  H   H118      1.0  0.42143  0.31457  0.93184  1.0000
  C   C81       1.0  0.44629  0.30675  0.94993  1.0000
  H   H119      1.0  0.49783  0.27502  0.63553  1.0000
  H   H120      1.0  0.48874  0.32778  0.56619  1.0000
  C   C82       1.0  0.03493  0.07264  0.79201  1.0000
  H   H121      1.0  0.43946  0.34275  0.99974  1.0000
  H   H122      1.0  0.37717  0.34926  0.98181  1.0000
  C   C83       1.0  0.39589  0.25606  0.99515  1.0000
  H   H123      1.0  0.45741  0.34768  0.62775  1.0000
  H   H124      1.0  0.36785  0.18817  0.96613  1.0000
  H   H125      1.0  0.33552  0.17763  0.00534  1.0000
  C   C84       1.0  0.51091  0.29121  0.61140  1.0000
  C   C85       1.0  0.15239  0.13093  0.98942  1.0000
  C   C86       1.0  0.43689  0.31196  0.99338  1.0000
  H   H126      1.0  0.29918  0.16425  0.56303  1.0000
  C   C87       1.0  0.19328  0.12691  0.97134  1.0000
  C   C88       1.0  0.02381  0.03710  0.62650  1.0000
  C   C89       1.0  0.49919  0.21269  0.57041  1.0000
  H   H127      1.0  0.49784  0.03759  0.99137  1.0000
  H   H128      1.0  0.39746  0.25286  0.96336  1.0000
  H   H129      1.0  0.20452  0.15445  0.96122  1.0000
  H   H130      1.0  0.22779  0.15554  0.55567  1.0000
  H   H131      1.0  0.16458  0.27256  0.99794  1.0000
  H   H132      1.0  0.37465  0.03155  0.60726  1.0000
  C   C90       1.0  0.06287  0.02779  0.60812  1.0000
  H   H133      1.0  0.05155  0.07572  0.66686  1.0000
  H   H134      1.0  0.28637  0.11935  0.54187  1.0000
  H   H135      1.0  0.29029  0.32528  0.96120  1.0000
  C   C91       1.0  0.47768  0.30571  0.58587  1.0000
  H   H136      1.0  0.47113  0.16022  0.55364  1.0000
  H   H137      1.0  0.03432  0.04176  0.79744  1.0000
  H   H138      1.0  0.30527  0.15675  0.51210  1.0000
  C   C92       1.0  0.16858  0.25376  0.97244  1.0000
  C   C93       1.0  0.03513  0.30675  0.00088  1.0000
  H   H139      1.0  0.11064  0.09879  0.55933  1.0000
  C   C94       1.0  0.36850  0.02813  0.57615  1.0000
  H   H140      1.0  0.24709  0.19623  0.53170  1.0000
  C   C95       1.0  0.03410  0.08044  0.74886  1.0000
  C   C96       1.0  0.19277  0.10000  0.93670  1.0000
  C   C97       1.0  0.44573  0.32386  0.61026  1.0000
  H   H141      1.0  0.25181  0.05307  0.54375  1.0000
  H   H142      1.0  0.33379  0.24530  0.99155  1.0000
  H   H143      1.0  0.17075  0.13505  0.54088  1.0000
  C   C98       1.0  0.14904  0.21558  0.97888  1.0000
  H   H144      1.0  0.19989  0.24992  0.96675  1.0000
  H   H145      1.0  0.47213  0.22285  0.58421  1.0000
  C   C99       1.0  0.29797  0.34395  0.98584  1.0000
  H   H146      1.0  0.46472  0.28283  0.56831  1.0000
  H   H147      1.0  0.22229  0.09745  0.92438  1.0000
  H   H148      1.0  0.11772  0.22093  0.98247  1.0000
  H   H149      1.0  0.34323  0.04595  0.56907  1.0000
  H   H150      1.0  0.11184  0.06964  0.51633  1.0000
  H   H151      1.0  0.27158  0.34917  0.00336  1.0000
  H   H152      1.0  0.04055  0.03008  0.68458  1.0000
  H   H153      1.0  0.13217  0.13934  0.96634  1.0000
  C   C100      1.0  0.10237  0.09724  0.52859  1.0000
  H   H154      1.0  0.18291  0.07142  0.94543  1.0000
  C   C101      1.0  0.24571  0.16485  0.53104  1.0000
  H   H155      1.0  0.08080  0.05365  0.60559  1.0000
  H   H156      1.0  0.10862  0.15636  0.51863  1.0000
  H   H157      1.0  0.11836  0.24565  0.52600  1.0000
  H   H158      1.0  0.52289  0.15763  0.55395  1.0000
  S   S17       1.0  0.47389  0.05426  0.53278  1.0000
  H   H159      1.0  0.51221  0.16638  0.99080  1.0000
  H   H160      1.0  0.15344  0.19832  0.95244  1.0000
  H   H161      1.0  0.17334  0.20009  0.52808  1.0000
  C   C102      1.0  0.05133  0.34314  0.00498  1.0000
  C   C103      1.0  0.48069  0.33108  0.93785  1.0000
  H   H162      1.0  0.52266  0.28032  0.53428  1.0000
  H   H163      1.0  0.06171  0.08455  0.80453  1.0000
  H   H164      1.0  0.45406  0.27681  0.94374  1.0000
  H   H165      1.0  0.15555  0.26780  0.94728  1.0000
  H   H166      1.0  0.43250  0.30271  0.62973  1.0000
  H   H167      1.0  0.50021  0.22244  0.54026  1.0000
  H   H168      1.0  0.35993  0.30763  0.95933  1.0000
  H   H169      1.0  0.49588  0.15790  0.59881  1.0000
  H   H170      1.0  0.14324  0.10191  0.99753  1.0000
  C   C104      1.0  0.24875  0.04530  0.51377  1.0000
  C   C105      1.0  0.36693  0.32006  0.98799  1.0000
  H   H171      1.0  0.39405  0.03806  0.55969  1.0000
  H   H172      1.0  0.17340  0.11090  0.91409  1.0000
  H   H173      1.0  0.21392  0.11528  0.99230  1.0000
  H   H174      1.0  0.42296  0.33504  0.59125  1.0000
  H   H175      1.0  0.03555  0.11155  0.74556  1.0000
  H   H176      1.0  0.50621  0.32437  0.95551  1.0000
  C   C106      1.0  0.28660  0.15033  0.53727  1.0000
  H   H177      1.0  0.06041  0.06780  0.73577  1.0000
  C   C107      1.0  0.02839  0.05389  0.66778  1.0000
  H   H178      1.0  0.48808  0.32545  0.90719  1.0000
  H   H179      1.0  0.09039  0.16996  0.00751  1.0000
  H   H180      1.0  0.52281  0.31726  0.62518  1.0000
  N   N6        1.0  0.39823  0.29721  0.00690  1.0000
  H   H181      1.0  0.46046  0.29832  0.00952  1.0000
  H   H182      1.0  0.42126  0.24048  0.00652  1.0000
  C   C108      1.0  0.35903  0.23446  0.00734  1.0000
  Fe  Fe10      1.0  0.17858  0.43041  0.42225  1.0000
  C   C109      1.0  0.41667  0.51705  0.03865  1.0000
  Fe  Fe11      1.0  0.22088  0.43113  0.49737  1.0000
  H   H183      1.0  0.39130  0.44613  0.06710  1.0000
  H   H184      1.0  0.45083  0.58647  0.48366  1.0000
  H   H185      1.0  0.06830  0.68133  0.11303  1.0000
  N   N7        1.0  0.32101  0.64379  0.26035  1.0000
  S   S18       1.0  0.16848  0.46143  0.47766  1.0000
  Fe  Fe12      1.0  0.15115  0.41076  0.07400  1.0000
  Fe  Fe13      1.0  0.19848  0.47436  0.11336  1.0000
  S   S19       1.0  0.22309  0.43411  0.15622  1.0000
  S   S20       1.0  0.21305  0.53688  0.12284  1.0000
  Fe  Fe14      1.0  0.16389  0.40939  0.16031  1.0000
  C   C110      1.0  0.05369  0.62523  0.45185  1.0000
  S   S21       1.0  0.20980  0.43659  0.06178  1.0000
  S   S22       1.0  0.13771  0.45243  0.12171  1.0000
  C   C111      1.0  0.30806  0.56623  0.05997  1.0000
  C   C112      1.0  0.27527  0.54668  0.07333  1.0000
  C   C113      1.0  0.25632  0.55871  0.10688  1.0000
  H   H186      1.0  0.10566  0.53600  0.04092  1.0000
  C   C114      1.0  0.46540  0.47297  0.06524  1.0000
  C   C115      1.0  0.16606  0.44421  0.32652  1.0000
  C   C116      1.0  0.17792  0.46001  0.29160  1.0000
  C   C117      1.0  0.16901  0.44202  0.25667  1.0000
  C   C118      1.0  0.14774  0.40846  0.25663  1.0000
  S   S23       1.0  0.17360  0.36669  0.11339  1.0000
  C   C119      1.0  0.14506  0.41049  0.32651  1.0000
  C   C120      1.0  0.46659  0.57656  0.50819  1.0000
  H   H187      1.0  0.33784  0.44535  0.13709  1.0000
  H   H188      1.0  0.06187  0.40793  0.12257  1.0000
  C   C121      1.0  0.26176  0.50675  0.45754  1.0000
  C   C122      1.0  0.26990  0.53742  0.43362  1.0000
  H   H189      1.0  0.24398  0.48403  0.44690  1.0000
  H   H190      1.0  0.25805  0.53804  0.40498  1.0000
  H   H191      1.0  0.17803  0.45448  0.22978  1.0000
  Fe  Fe15      1.0  0.44697  0.68595  0.16012  1.0000
  H   H192      1.0  0.17306  0.64485  0.01838  1.0000
  S   S24       1.0  0.40821  0.64102  0.43794  1.0000
  H   H193      1.0  0.12738  0.61430  0.46993  1.0000
  H   H194      1.0  0.20720  0.67780  0.09233  1.0000
  Fe  Fe16      1.0  0.34393  0.64831  0.44023  1.0000
  H   H195      1.0  0.27036  0.56806  0.33915  1.0000
  H   H196      1.0  0.14297  0.59962  0.10145  1.0000
  C   C123      1.0  0.28449  0.37438  0.33775  1.0000
  C   C124      1.0  0.12692  0.58292  0.46855  1.0000
  H   H197      1.0  0.12615  0.51621  0.41758  1.0000
  C   C125      1.0  0.24204  0.65934  0.04465  1.0000
  Fe  Fe17      1.0  0.39561  0.67003  0.09127  1.0000
  H   H198      1.0  0.31366  0.54169  0.34767  1.0000
  S   S25       1.0  0.36518  0.61991  0.06266  1.0000
  H   H199      1.0  0.14344  0.57403  0.39272  1.0000
  S   S26       1.0  0.14223  0.38063  0.43878  1.0000
  S   S27       1.0  0.46497  0.65159  0.21114  1.0000
  H   H200      1.0  0.15368  0.51988  0.02925  1.0000
  S   S28       1.0  0.45913  0.66326  0.10084  1.0000
  C   C126      1.0  0.32308  0.59724  0.08051  1.0000
  C   C127      1.0  0.27071  0.59037  0.12698  1.0000
  C   C128      1.0  0.30421  0.60927  0.11417  1.0000
  H   H201      1.0  0.25576  0.60036  0.15251  1.0000
  H   H202      1.0  0.31495  0.63359  0.12982  1.0000
  C   C129      1.0  0.48278  0.57201  0.13452  1.0000
  C   C130      1.0  0.44702  0.66813  0.32532  1.0000
  C   C131      1.0  0.45142  0.65126  0.28880  1.0000
  C   C132      1.0  0.45898  0.67350  0.25643  1.0000
  H   H203      1.0  0.29899  0.43487  0.38750  1.0000
  H   H204      1.0  0.05892  0.58376  0.36841  1.0000
  H   H205      1.0  0.44115  0.65084  0.35016  1.0000
  H   H206      1.0  0.44903  0.62091  0.28562  1.0000
  H   H207      1.0  0.38644  0.54419  0.42710  1.0000
  C   C133      1.0  0.03419  0.39281  0.11808  1.0000
  C   C134      1.0  0.29336  0.56704  0.44658  1.0000
  C   C135      1.0  0.39969  0.48460  0.43672  1.0000
  H   H208      1.0  0.32663  0.58858  0.49400  1.0000
  H   H209      1.0  0.32183  0.55729  0.03345  1.0000
  C   C136      1.0  0.09176  0.66547  0.12707  1.0000
  H   H210      1.0  0.18409  0.58745  0.44103  1.0000
  C   C137      1.0  0.16877  0.66027  0.04594  1.0000
  S   S29       1.0  0.23371  0.40353  0.44059  1.0000
  H   H211      1.0  0.13490  0.58781  0.32241  1.0000
  H   H212      1.0  0.43110  0.48764  0.43097  1.0000
  C   C138      1.0  0.08941  0.57538  0.36411  1.0000
  H   H213      1.0  0.11621  0.57337  0.49716  1.0000
  C   C139      1.0  0.14999  0.57971  0.04359  1.0000
  H   H214      1.0  0.34817  0.57704  0.29725  1.0000
  N   N8        1.0  0.42877  0.49518  0.07351  1.0000
  H   H215      1.0  0.38756  0.51506  0.38424  1.0000
  S   S30       1.0  0.13554  0.38579  0.21339  1.0000
  H   H216      1.0  0.40759  0.51373  0.48972  1.0000
  Fe  Fe18      1.0  0.23044  0.39514  0.10564  1.0000
  H   H217      1.0  0.18165  0.58025  0.04786  1.0000
  H   H218      1.0  0.46230  0.45756  0.48563  1.0000
  H   H219      1.0  0.13554  0.39843  0.35338  1.0000
  H   H220      1.0  0.11914  0.36686  0.29156  1.0000
  Fe  Fe19      1.0  0.13561  0.41054  0.49620  1.0000
  H   H221      1.0  0.05243  0.51513  0.39786  1.0000
  H   H222      1.0  0.25989  0.42467  0.30887  1.0000
  S   S31       1.0  0.34064  0.66947  0.50136  1.0000
  C   C140      1.0  0.12980  0.60649  0.07322  1.0000
  H   H223      1.0  0.36077  0.49414  0.48515  1.0000
  H   H224      1.0  0.10878  0.51517  0.46551  1.0000
  N   N9        1.0  0.13185  0.64853  0.06575  1.0000
  H   H225      1.0  0.04608  0.44710  0.41147  1.0000
  H   H226      1.0  0.48362  0.48795  0.04366  1.0000
  Fe  Fe20      1.0  0.40574  0.66548  0.49770  1.0000
  C   C141      1.0  0.06502  0.50425  0.42465  1.0000
  C   C142      1.0  0.52163  0.65403  0.46379  1.0000
  H   H227      1.0  0.07034  0.65270  0.05594  1.0000
  C   C143      1.0  0.13657  0.53885  0.04845  1.0000
  H   H228      1.0  0.31614  0.36412  0.45354  1.0000
  H   H229      1.0  0.20675  0.62774  0.08435  1.0000
  H   H230      1.0  0.09398  0.45786  0.39439  1.0000
  C   C144      1.0  0.32162  0.58952  0.30986  1.0000
  H   H231      1.0  0.50690  0.59175  0.12834  1.0000
  H   H232      1.0  0.31950  0.44687  0.34109  1.0000
  C   C145      1.0  0.27646  0.50571  0.49485  1.0000
  C   C146      1.0  0.07321  0.46219  0.41850  1.0000
  C   C147      1.0  0.12984  0.66953  0.10381  1.0000
  H   H233      1.0  0.51409  0.40792  0.48770  1.0000
  H   H234      1.0  0.28752  0.36671  0.36852  1.0000
  C   C148      1.0  0.35682  0.62857  0.24084  1.0000
  C   C149      1.0  0.37050  0.42687  0.50936  1.0000
  C   C150      1.0  0.37902  0.51589  0.41506  1.0000
  H   H235      1.0  0.48978  0.65309  0.46670  1.0000
  H   H236      1.0  0.19410  0.48617  0.29157  1.0000
  H   H237      1.0  0.30828  0.68009  0.30944  1.0000
  C   C151      1.0  0.35082  0.59372  0.21404  1.0000
  C   C152      1.0  0.38783  0.58348  0.19241  1.0000
  C   C153      1.0  0.49148  0.38604  0.49193  1.0000
  H   H238      1.0  0.28434  0.63881  0.21042  1.0000
  C   C154      1.0  0.05996  0.58195  0.44792  1.0000
  H   H239      1.0  0.23852  0.66261  0.25819  1.0000
  H   H240      1.0  0.37900  0.62099  0.26231  1.0000
  H   H241      1.0  0.28620  0.59290  0.25854  1.0000
  H   H242      1.0  0.44066  0.53538  0.02845  1.0000
  S   S32       1.0  0.30379  0.60467  0.41555  1.0000
  H   H243      1.0  0.48347  0.52436  0.48049  1.0000
  H   H244      1.0  0.06992  0.63706  0.47653  1.0000
  H   H245      1.0  0.32338  0.43659  0.08790  1.0000
  C   C155      1.0  0.13579  0.39270  0.29155  1.0000
  H   H246      1.0  0.27736  0.47126  0.35916  1.0000
  H   H247      1.0  0.34190  0.56862  0.23076  1.0000
  H   H248      1.0  0.32853  0.59910  0.19227  1.0000
  H   H249      1.0  0.39608  0.60665  0.17266  1.0000
  H   H250      1.0  0.41174  0.57845  0.21278  1.0000
  H   H251      1.0  0.38315  0.55744  0.17504  1.0000
  C   C156      1.0  0.32807  0.45881  0.11017  1.0000
  H   H252      1.0  0.39309  0.53723  0.04622  1.0000
  H   H253      1.0  0.22962  0.37506  0.27396  1.0000
  H   H254      1.0  0.22274  0.57297  0.49725  1.0000
  H   H255      1.0  0.34080  0.42923  0.45427  1.0000
  H   H256      1.0  0.03322  0.38211  0.08796  1.0000
  C   C157      1.0  0.19177  0.57953  0.50147  1.0000
  C   C158      1.0  0.43919  0.43593  0.48899  1.0000
  C   C159      1.0  0.10455  0.59599  0.32863  1.0000
  H   H257      1.0  0.24165  0.68646  0.02884  1.0000
  H   H258      1.0  0.37973  0.39509  0.45493  1.0000
  H   H259      1.0  0.45820  0.58882  0.14594  1.0000
  C   C160      1.0  0.30837  0.56597  0.48378  1.0000
  C   C161      1.0  0.11405  0.58486  0.39973  1.0000
  H   H260      1.0  0.30004  0.47299  0.11605  1.0000
  C   C162      1.0  0.29227  0.44347  0.35768  1.0000
  C   C163      1.0  0.09798  0.66138  0.04219  1.0000
  H   H261      1.0  0.28959  0.53683  0.30210  1.0000
  H   H262      1.0  0.26406  0.52289  0.05713  1.0000
  H   H263      1.0  0.11746  0.61608  0.40199  1.0000
  H   H264      1.0  0.15328  0.66003  0.12310  1.0000
  H   H265      1.0  0.46303  0.57251  0.07629  1.0000
  H   H266      1.0  0.34736  0.51176  0.41701  1.0000
  H   H267      1.0  0.03859  0.57169  0.42675  1.0000
  H   H268      1.0  0.39027  0.45724  0.42438  1.0000
  C   C164      1.0  0.47139  0.55099  0.09772  1.0000
  H   H269      1.0  0.27360  0.62481  0.29599  1.0000
  H   H270      1.0  0.48344  0.47131  0.09157  1.0000
  H   H271      1.0  0.43437  0.42461  0.45964  1.0000
  C   C165      1.0  0.20596  0.65546  0.06980  1.0000
  H   H272      1.0  0.33002  0.60772  0.33456  1.0000
  C   C166      1.0  0.29878  0.61278  0.28008  1.0000
  C   C167      1.0  0.39184  0.48768  0.48068  1.0000
  C   C168      1.0  0.33292  0.67271  0.29015  1.0000
  C   C169      1.0  0.26603  0.41441  0.33820  1.0000
  H   H273      1.0  0.31432  0.37710  0.32592  1.0000
  C   C170      1.0  0.29719  0.55704  0.32548  1.0000
  C   C171      1.0  0.10203  0.52609  0.43650  1.0000
  S   S33       1.0  0.10434  0.39531  0.03095  1.0000
  C   C172      1.0  0.29558  0.66102  0.23019  1.0000
  C   C173      1.0  0.35596  0.40799  0.47192  1.0000
  H   H274      1.0  0.41191  0.54210  0.11086  1.0000
  C   C174      1.0  0.16992  0.57119  0.46437  1.0000
  H   H275      1.0  0.08306  0.63540  0.12953  1.0000
  C   C175      1.0  0.35747  0.48790  0.09613  1.0000
  H   H276      1.0  0.35921  0.51040  0.11844  1.0000
  H   H277      1.0  0.34591  0.50002  0.06942  1.0000
  H   H278      1.0  0.40663  0.45509  0.11469  1.0000
  H   H279      1.0  0.17340  0.54076  0.45754  1.0000
  C   C176      1.0  0.09593  0.68195  0.16763  1.0000
  H   H280      1.0  0.10286  0.62710  0.33299  1.0000
  N   N10       1.0  0.10020  0.56891  0.43741  1.0000
  C   C177      1.0  0.39718  0.46931  0.08792  1.0000
  H   H281      1.0  0.09916  0.59745  0.07610  1.0000
  H   H282      1.0  0.37081  0.65101  0.22344  1.0000
  S   S34       1.0  0.17789  0.46709  0.36975  1.0000
  C   C178      1.0  0.43719  0.52348  0.10524  1.0000
  C   C179      1.0  0.48508  0.54119  0.50654  1.0000
  H   H283      1.0  0.44272  0.50841  0.13266  1.0000
  H   H284      1.0  0.31253  0.68008  0.21113  1.0000
  H   H285      1.0  0.18922  0.60987  0.50965  1.0000
  C   C180      1.0  0.29943  0.53562  0.50807  1.0000
  H   H286      1.0  0.23869  0.41402  0.35472  1.0000
  H   H287      1.0  0.05096  0.56918  0.47577  1.0000
  H   H288      1.0  0.26806  0.65916  0.06294  1.0000
  H   H289      1.0  0.35491  0.66061  0.30965  1.0000
  H   H290      1.0  0.48324  0.37400  0.46355  1.0000
  H   H291      1.0  0.28018  0.37712  0.26636  1.0000
  H   H292      1.0  0.06260  0.64002  0.42526  1.0000
  H   H293      1.0  0.08514  0.44975  0.44500  1.0000
  H   H294      1.0  0.02930  0.37258  0.17577  1.0000
  C   C181      1.0  0.25958  0.68264  0.24547  1.0000
  H   H295      1.0  0.14063  0.52961  0.07854  1.0000
  H   H296      1.0  0.06784  0.68043  0.18307  1.0000
  C   C182      1.0  0.32707  0.37660  0.48077  1.0000
  H   H297      1.0  0.04292  0.50672  0.44788  1.0000
  H   H298      1.0  0.24414  0.63536  0.02387  1.0000
  H   H299      1.0  0.09108  0.54466  0.35757  1.0000
  H   H300      1.0  0.08684  0.58819  0.30331  1.0000
  H   H301      1.0  0.11759  0.66577  0.18404  1.0000
  S   S35       1.0  0.28455  0.36086  0.10427  1.0000
  H   H302      1.0  0.49232  0.55192  0.15683  1.0000
  H   H303      1.0  0.20734  0.36385  0.33625  1.0000
  H   H304      1.0  0.49747  0.53623  0.08681  1.0000
  H   H305      1.0  0.23168  0.68359  0.18929  1.0000
  H   H306      1.0  0.45058  0.41372  0.07581  1.0000
  H   H307      1.0  0.14475  0.58765  0.01347  1.0000
  H   H308      1.0  0.30218  0.38798  0.49754  1.0000
  H   H309      1.0  0.26476  0.36690  0.19578  1.0000
  N   N11       1.0  0.40334  0.45451  0.50527  1.0000
  C   C183      1.0  0.25643  0.35775  0.27531  1.0000
  C   C184      1.0  0.03007  0.36020  0.14632  1.0000
  H   H310      1.0  0.39479  0.36226  0.05217  1.0000
  H   H311      1.0  0.21448  0.35771  0.20642  1.0000
  H   H312      1.0  0.40810  0.36914  0.12219  1.0000
  C   C185      1.0  0.46114  0.43121  0.05154  1.0000
  C   C186      1.0  0.49980  0.41472  0.03824  1.0000
  H   H313      1.0  0.52129  0.41629  0.06170  1.0000
  H   H314      1.0  0.44066  0.42809  0.02752  1.0000
  H   H315      1.0  0.49618  0.38452  0.02989  1.0000
  H   H316      1.0  0.50390  0.36311  0.50944  1.0000
  H   H317      1.0  0.51109  0.43020  0.01288  1.0000
  H   H318      1.0  0.38097  0.47302  0.01083  1.0000
  H   H319      1.0  0.31028  0.53535  0.53710  1.0000
  H   H320      1.0  0.03734  0.36707  0.99196  1.0000
  C   C187      1.0  0.02831  0.53415  0.66371  1.0000
  S   S36       1.0  0.44639  0.64422  0.54420  1.0000
  S   S37       1.0  0.26664  0.46695  0.52475  1.0000
  H   H321      1.0  0.03422  0.65451  0.99248  1.0000
  H   H322      1.0  0.04319  0.43978  0.64629  1.0000
  C   C188      1.0  0.48957  0.58556  0.57297  1.0000
  H   H323      1.0  0.05670  0.54166  0.67627  1.0000
  C   C189      1.0  0.41287  0.46925  0.54504  1.0000
  C   C190      1.0  0.02318  0.48428  0.71142  1.0000
  C   C191      1.0  0.38288  0.49619  0.56432  1.0000
  C   C192      1.0  0.50543  0.52744  0.53821  1.0000
  H   H324      1.0  0.41692  0.44548  0.56532  1.0000
  S   S38       1.0  0.07584  0.41742  0.52377  1.0000
  H   H325      1.0  0.14799  0.45571  0.63719  1.0000
  H   H326      1.0  0.44074  0.48467  0.54437  1.0000
  C   C193      1.0  0.11724  0.45028  0.63049  1.0000
  C   C194      1.0  0.38922  0.51851  0.97144  1.0000
  H   H327      1.0  0.03926  0.42380  0.70631  1.0000
  C   C195      1.0  0.09158  0.47692  0.65429  1.0000
  C   C196      1.0  0.45637  0.40306  0.51257  1.0000
  H   H328      1.0  0.05073  0.49581  0.72279  1.0000
  H   H329      1.0  0.03069  0.54071  0.63250  1.0000
  H   H330      1.0  0.04460  0.47774  0.61407  1.0000
  H   H331      1.0  0.10055  0.50620  0.64730  1.0000
  C   C197      1.0  0.04844  0.47063  0.64488  1.0000
  H   H332      1.0  0.37828  0.52190  0.54699  1.0000
  H   H333      1.0  0.06204  0.65422  0.94873  1.0000
  H   H334      1.0  0.40087  0.48518  0.62315  1.0000
  C   C198      1.0  0.06180  0.66377  0.97923  1.0000
  H   H335      1.0  0.43502  0.38009  0.51663  1.0000
  H   H336      1.0  0.11306  0.45489  0.59926  1.0000
  H   H337      1.0  0.46621  0.41319  0.54116  1.0000
  H   H338      1.0  0.09737  0.47159  0.68505  1.0000
  C   C199      1.0  0.39675  0.50958  0.60376  1.0000
  H   H339      1.0  0.37496  0.52882  0.61693  1.0000
  H   H340      1.0  0.42434  0.52534  0.60094  1.0000
  H   H341      1.0  0.35472  0.48191  0.56848  1.0000
  H   H342      1.0  0.07402  0.55503  0.54963  1.0000
  C   C200      1.0  0.05362  0.46201  0.53272  1.0000
  C   C201      1.0  0.05693  0.52970  0.54596  1.0000
  H   H343      1.0  0.49123  0.60263  0.59889  1.0000
  C   C202      1.0  0.46870  0.59904  0.54141  1.0000
  H   H344      1.0  0.38107  0.50088  0.94620  1.0000
  H   H345      1.0  0.10624  0.49415  0.53339  1.0000
  C   C203      1.0  0.07524  0.49522  0.53658  1.0000
  H   H346      1.0  0.11062  0.42030  0.63710  1.0000
  H   H347      1.0  0.36338  0.53446  0.98137  1.0000
  H   H348      1.0  0.12213  0.65306  0.98362  1.0000
  C   C204      1.0  0.50755  0.54976  0.57155  1.0000
  C   C205      1.0  0.40422  0.49323  0.00338  1.0000
  S   S39       1.0  0.18781  0.38173  0.52146  1.0000
  H   H349      1.0  0.41177  0.53891  0.96224  1.0000
  H   H350      1.0  0.04033  0.60819  0.68903  1.0000
  H   H351      1.0  0.42932  0.47758  0.99139  1.0000
  H   H352      1.0  0.02683  0.40756  0.77390  1.0000
  H   H353      1.0  0.37776  0.40443  0.53023  1.0000
  C   C206      1.0  0.03040  0.43763  0.76568  1.0000
  H   H354      1.0  0.52260  0.53926  0.59635  1.0000
  H   H355      1.0  0.18058  0.56176  0.52524  1.0000
  H   H356      1.0  0.30842  0.37156  0.97495  1.0000
  C   C207      1.0  0.09576  0.64629  0.00034  1.0000
  H   H357      1.0  0.34494  0.44116  0.52219  1.0000
  H   H358      1.0  0.06088  0.44587  0.77058  1.0000
  H   H359      1.0  0.47389  0.36162  0.94124  1.0000
  H   H360      1.0  0.09089  0.61532  0.00022  1.0000
  H   H361      1.0  0.25797  0.97713  0.34802  1.0000
  Fe  Fe21      1.0  0.10611  0.95006  0.42894  1.0000
  S   S40       1.0  0.06699  0.90748  0.45702  1.0000
  S   S41       1.0  0.12212  0.95912  0.36633  1.0000
  H   H362      1.0  0.26705  0.70413  0.26755  1.0000
  Fe  Fe22      1.0  0.34566  0.72728  0.47472  1.0000
  C   C208      1.0  0.50836  0.77788  0.45576  1.0000
  H   H363      1.0  0.21028  0.87512  0.48685  1.0000
  H   H364      1.0  0.50619  0.93082  0.47205  1.0000
  S   S42       1.0  0.15799  0.93330  0.46258  1.0000
  S   S43       1.0  0.08934  0.99721  0.46990  1.0000
  H   H365      1.0  0.36679  0.96048  0.37825  1.0000
  S   S44       1.0  0.36244  0.79853  0.14791  1.0000
  Fe  Fe23      1.0  0.07387  0.82775  0.09012  1.0000
  S   S45       1.0  0.08567  0.79518  0.14344  1.0000
  C   C209      1.0  0.35406  0.92939  0.05471  1.0000
  Fe  Fe24      1.0  0.13490  0.88882  0.11089  1.0000
  S   S46       1.0  0.15147  0.85985  0.16555  1.0000
  S   S47       1.0  0.16006  0.94449  0.08915  1.0000
  Fe  Fe25      1.0  0.14777  0.80643  0.13017  1.0000
  S   S48       1.0  0.18717  0.75620  0.13109  1.0000
  Fe  Fe26      1.0  0.08792  0.85133  0.17425  1.0000
  S   S49       1.0  0.05696  0.85509  0.23172  1.0000
  S   S50       1.0  0.13635  0.83567  0.07459  1.0000
  S   S51       1.0  0.07078  0.88373  0.12180  1.0000
  C   C210      1.0  0.26447  0.96566  0.13873  1.0000
  C   C211      1.0  0.22843  0.94919  0.13034  1.0000
  C   C212      1.0  0.20485  0.96500  0.10232  1.0000
  H   H366      1.0  0.10504  0.71204  0.16639  1.0000
  H   H367      1.0  0.21908  0.92401  0.14515  1.0000
  C   C213      1.0  0.31368  0.78749  0.14289  1.0000
  C   C214      1.0  0.28532  0.81256  0.15629  1.0000
  C   C215      1.0  0.24626  0.80348  0.15197  1.0000
  C   C216      1.0  0.23565  0.76905  0.13498  1.0000
  C   C217      1.0  0.26411  0.74404  0.12182  1.0000
  C   C218      1.0  0.30303  0.75343  0.12537  1.0000
  H   H368      1.0  0.29344  0.83885  0.17012  1.0000
  H   H369      1.0  0.22445  0.82287  0.16215  1.0000
  Fe  Fe27      1.0  0.46621  0.72404  0.08306  1.0000
  H   H370      1.0  0.32471  0.73427  0.11428  1.0000
  C   C219      1.0  0.10407  0.92951  0.32947  1.0000
  C   C220      1.0  0.12231  0.92937  0.29327  1.0000
  C   C221      1.0  0.10839  0.90644  0.26313  1.0000
  C   C222      1.0  0.07593  0.88366  0.26897  1.0000
  C   C223      1.0  0.05775  0.88380  0.30519  1.0000
  C   C224      1.0  0.07168  0.90671  0.33530  1.0000
  H   H371      1.0  0.14716  0.94722  0.28844  1.0000
  H   H372      1.0  0.12241  0.90682  0.23527  1.0000
  C   C225      1.0  0.46246  0.71268  0.26075  1.0000
  H   H373      1.0  0.05696  0.90719  0.36283  1.0000
  C   C226      1.0  0.39167  0.87040  0.06754  1.0000
  S   S52       1.0  0.31687  0.78458  0.48562  1.0000
  C   C227      1.0  0.50865  0.94865  0.49736  1.0000
  C   C228      1.0  0.50829  0.82154  0.45174  1.0000
  H   H374      1.0  0.47468  0.99405  0.47358  1.0000
  H   H375      1.0  0.27873  0.88542  0.11022  1.0000
  H   H376      1.0  0.08026  0.82664  0.37145  1.0000
  H   H377      1.0  0.40993  0.82609  0.49154  1.0000
  H   H378      1.0  0.27852  0.85531  0.47998  1.0000
  C   C229      1.0  0.32148  0.86910  0.06558  1.0000
  C   C230      1.0  0.48110  0.83368  0.41981  1.0000
  H   H379      1.0  0.03250  0.86644  0.30982  1.0000
  H   H380      1.0  0.27583  0.91286  0.06710  1.0000
  H   H381      1.0  0.33984  0.91909  0.39215  1.0000
  Fe  Fe28      1.0  0.13785  0.97627  0.50579  1.0000
  S   S53       1.0  0.44889  0.72883  0.37554  1.0000
  H   H382      1.0  0.38672  0.93688  0.44191  1.0000
  H   H383      1.0  0.22087  0.86918  0.07499  1.0000
  H   H384      1.0  0.24814  0.85869  0.03191  1.0000
  H   H385      1.0  0.41625  0.94303  0.05241  1.0000
  H   H386      1.0  0.51623  0.76614  0.42694  1.0000
  H   H387      1.0  0.25625  0.71747  0.10864  1.0000
  C   C231      1.0  0.39140  0.90627  0.14202  1.0000
  H   H388      1.0  0.37391  0.72606  0.33029  1.0000
  N   N12       1.0  0.20045  0.81644  0.34914  1.0000
  C   C232      1.0  0.15786  0.82493  0.35171  1.0000
  C   C233      1.0  0.21331  0.81851  0.30763  1.0000
  C   C234      1.0  0.20592  0.77610  0.36208  1.0000
  C   C235      1.0  0.22449  0.84229  0.37428  1.0000
  C   C236      1.0  0.20958  0.88336  0.38056  1.0000
  C   C237      1.0  0.13871  0.81593  0.39103  1.0000
  C   C238      1.0  0.24662  0.75894  0.35606  1.0000
  C   C239      1.0  0.20812  0.85689  0.28740  1.0000
  C   C240      1.0  0.21857  0.85355  0.24474  1.0000
  C   C241      1.0  0.24025  0.90853  0.39901  1.0000
  C   C242      1.0  0.09963  0.83501  0.39534  1.0000
  H   H389      1.0  0.50726  0.81296  0.08035  1.0000
  H   H390      1.0  0.14190  0.80847  0.32943  1.0000
  H   H391      1.0  0.15163  0.85486  0.34488  1.0000
  H   H392      1.0  0.24458  0.81218  0.30480  1.0000
  H   H393      1.0  0.19796  0.79654  0.29032  1.0000
  H   H394      1.0  0.18513  0.75702  0.34714  1.0000
  H   H395      1.0  0.19940  0.77366  0.39342  1.0000
  H   H396      1.0  0.22742  0.83044  0.40369  1.0000
  H   H397      1.0  0.25456  0.84373  0.36297  1.0000
  H   H398      1.0  0.18410  0.88323  0.40000  1.0000
  H   H399      1.0  0.20054  0.89696  0.35364  1.0000
  H   H400      1.0  0.13405  0.78499  0.39372  1.0000
  H   H401      1.0  0.15711  0.82539  0.41515  1.0000
  H   H402      1.0  0.26920  0.77787  0.36799  1.0000
  H   H403      1.0  0.25252  0.75398  0.32499  1.0000
  H   H404      1.0  0.17798  0.86698  0.28930  1.0000
  H   H405      1.0  0.22769  0.87836  0.30004  1.0000
  H   H406      1.0  0.24922  0.84520  0.24082  1.0000
  H   H407      1.0  0.19994  0.83219  0.23043  1.0000
  H   H408      1.0  0.21412  0.88121  0.23059  1.0000
  H   H409      1.0  0.26573  0.91093  0.37971  1.0000
  H   H410      1.0  0.22827  0.93726  0.40418  1.0000
  H   H411      1.0  0.24929  0.89691  0.42701  1.0000
  H   H412      1.0  0.25300  0.82918  0.07377  1.0000
  H   H413      1.0  0.30484  0.96205  0.46634  1.0000
  H   H414      1.0  0.10362  0.86609  0.39545  1.0000
  H   H415      1.0  0.35016  0.92349  0.02352  1.0000
  S   S54       1.0  0.40346  0.72903  0.06796  1.0000
  H   H416      1.0  0.29223  0.00509  0.27781  1.0000
  C   C243      1.0  0.24899  0.85862  0.06380  1.0000
  H   H417      1.0  0.32438  0.84004  0.07743  1.0000
  C   C244      1.0  0.43596  0.83852  0.01870  1.0000
  H   H418      1.0  0.45122  0.82403  0.42599  1.0000
  Fe  Fe29      1.0  0.05458  0.95344  0.50130  1.0000
  H   H419      1.0  0.36999  0.94986  0.18149  1.0000
  H   H420      1.0  0.31714  0.91388  0.46092  1.0000
  H   H421      1.0  0.03398  0.74077  0.09094  1.0000
  H   H422      1.0  0.08607  0.82676  0.42305  1.0000
  H   H423      1.0  0.36450  0.90190  0.19867  1.0000
  H   H424      1.0  0.17676  0.75887  0.49669  1.0000
  C   C245      1.0  0.38368  0.92150  0.18264  1.0000
  H   H425      1.0  0.23478  0.97075  0.30192  1.0000
  H   H426      1.0  0.41811  0.88592  0.07584  1.0000
  H   H427      1.0  0.13467  0.70038  0.09939  1.0000
  C   C246      1.0  0.19894  0.78004  0.49285  1.0000
  C   C247      1.0  0.38842  0.95687  0.05946  1.0000
  C   C248      1.0  0.25642  0.83426  0.48393  1.0000
  S   S55       1.0  0.41044  0.72570  0.47796  1.0000
  H   H428      1.0  0.37306  0.76334  0.29549  1.0000
  H   H429      1.0  0.46316  0.75962  0.30082  1.0000
  H   H430      1.0  0.39195  0.84416  0.08504  1.0000
  H   H431      1.0  0.32891  0.74845  0.31858  1.0000
  S   S56       1.0  0.03043  0.80947  0.04445  1.0000
  S   S57       1.0  0.45984  0.74603  0.14373  1.0000
  S   S58       1.0  0.34511  0.70597  0.41394  1.0000
  C   C249      1.0  0.34509  0.94940  0.39893  1.0000
  S   S59       1.0  0.51428  0.73938  0.04055  1.0000
  C   C250      1.0  0.35078  0.70975  0.27436  1.0000
  C   C251      1.0  0.32909  0.94184  0.46975  1.0000
  C   C252      1.0  0.21724  0.99805  0.08373  1.0000
  N   N13       1.0  0.35583  0.89299  0.07692  1.0000
  C   C253      1.0  0.21097  0.01808  0.46241  1.0000
  H   H432      1.0  0.36783  0.98414  0.44426  1.0000
  H   H433      1.0  0.37908  0.70378  0.26055  1.0000
  H   H434      1.0  0.32020  0.86561  0.03381  1.0000
  C   C254      1.0  0.21762  0.84551  0.48736  1.0000
  H   H435      1.0  0.43840  0.81337  0.03744  1.0000
  H   H436      1.0  0.25881  0.72573  0.20143  1.0000
  C   C255      1.0  0.38439  0.99091  0.03304  1.0000
  H   H437      1.0  0.28249  0.95307  0.16031  1.0000
  Fe  Fe30      1.0  0.39693  0.74780  0.12961  1.0000
  H   H438      1.0  0.46837  0.73000  0.23594  1.0000
  H   H439      1.0  0.41128  0.92413  0.19835  1.0000
  H   H440      1.0  0.33217  0.72348  0.25289  1.0000
  H   H441      1.0  0.38899  0.96820  0.08926  1.0000
  H   H442      1.0  0.43686  0.86981  0.49081  1.0000
  C   C256      1.0  0.39712  0.85809  0.02491  1.0000
  C   C257      1.0  0.25323  0.01455  0.09215  1.0000
  H   H443      1.0  0.46000  0.85831  0.02499  1.0000
  H   H444      1.0  0.41150  0.92591  0.12763  1.0000
  C   C258      1.0  0.27733  0.99803  0.11924  1.0000
  H   H445      1.0  0.48109  0.86498  0.41774  1.0000
  C   C259      1.0  0.45182  0.70718  0.32982  1.0000
  C   C260      1.0  0.26697  0.79602  0.48581  1.0000
  C   C261      1.0  0.49065  0.98447  0.49820  1.0000
  H   H446      1.0  0.21282  0.71719  0.22390  1.0000
  H   H447      1.0  0.40885  0.01067  0.03768  1.0000
  C   C262      1.0  0.36009  0.95396  0.43990  1.0000
  Fe  Fe31      1.0  0.40910  0.70124  0.41846  1.0000
  H   H448      1.0  0.47809  0.76866  0.46035  1.0000
  H   H449      1.0  0.20821  0.99027  0.34210  1.0000
  S   S60       1.0  0.13942  0.83184  0.49858  1.0000
  S   S61       1.0  0.38334  0.68979  0.15144  1.0000
  H   H450      1.0  0.40325  0.93097  0.50361  1.0000
  C   C263      1.0  0.35697  0.73858  0.30673  1.0000
  H   H451      1.0  0.49844  0.83564  0.47867  1.0000
  H   H452      1.0  0.33872  0.87694  0.13463  1.0000
  H   H453      1.0  0.32818  0.94600  0.06348  1.0000
  C   C264      1.0  0.28129  0.88423  0.07843  1.0000
  H   H454      1.0  0.40625  0.87858  0.14469  1.0000
  H   H455      1.0  0.31792  0.96548  0.39531  1.0000
  H   H456      1.0  0.49358  0.71699  0.49681  1.0000
  H   H457      1.0  0.36950  0.87661  0.46718  1.0000
  C   C265      1.0  0.18860  0.81852  0.49243  1.0000
  C   C266      1.0  0.23695  0.98935  0.32774  1.0000
  C   C267      1.0  0.35317  0.90083  0.11974  1.0000
  C   C268      1.0  0.24961  0.72060  0.37569  1.0000
  C   C269      1.0  0.45960  0.72938  0.29749  1.0000
  H   H458      1.0  0.33466  0.92593  0.12545  1.0000
  Fe  Fe32      1.0  0.11908  0.89290  0.49246  1.0000
  H   H459      1.0  0.37450  0.83759  0.01626  1.0000
  H   H460      1.0  0.09737  0.69292  0.04118  1.0000
  H   H461      1.0  0.25884  0.95044  0.50817  1.0000
  H   H462      1.0  0.18425  0.00636  0.45207  1.0000
  H   H463      1.0  0.49058  0.82154  0.39169  1.0000
  H   H464      1.0  0.35720  0.00639  0.03959  1.0000
  C   C270      1.0  0.23792  0.76878  0.48950  1.0000
  H   H465      1.0  0.19912  0.01059  0.06219  1.0000
  H   H466      1.0  0.23826  0.01593  0.40680  1.0000
  C   C271      1.0  0.23954  0.70340  0.21296  1.0000
  H   H467      1.0  0.40355  0.00727  0.24342  1.0000
  S   S62       1.0  0.32448  0.01560  0.12774  1.0000
  H   H468      1.0  0.24556  0.73920  0.49105  1.0000
  H   H469      1.0  0.24856  0.72420  0.40748  1.0000
  H   H470      1.0  0.30966  0.02146  0.32240  1.0000
  H   H471      1.0  0.16722  0.69070  0.03794  1.0000
  H   H472      1.0  0.52070  0.70411  0.42992  1.0000
  C   C272      1.0  0.37482  0.87625  0.49855  1.0000
  C   C273      1.0  0.41236  0.85478  0.50461  1.0000
  H   H473      1.0  0.37736  0.99135  0.50758  1.0000
  H   H474      1.0  0.22592  0.70149  0.36653  1.0000
  H   H475      1.0  0.27727  0.70694  0.36765  1.0000
  H   H476      1.0  0.23541  0.90002  0.55240  1.0000
  C   C274      1.0  0.35158  0.98091  0.52357  1.0000
  C   C275      1.0  0.24200  0.92902  0.56302  1.0000
  H   H477      1.0  0.51727  0.01260  0.58774  1.0000
  H   H478      1.0  0.50342  0.79659  0.59926  1.0000
  H   H479      1.0  0.46577  0.79190  0.51961  1.0000
  N   N14       1.0  0.34191  0.94110  0.51108  1.0000
  H   H480      1.0  0.31952  0.91982  0.56519  1.0000
  C   C276      1.0  0.37725  0.91683  0.51582  1.0000
  H   H481      1.0  0.49950  0.95989  0.95078  1.0000
  C   C277      1.0  0.36032  0.98661  0.56691  1.0000
  H   H482      1.0  0.21486  0.94562  0.56311  1.0000
  H   H483      1.0  0.33562  0.97793  0.58521  1.0000
  S   S63       1.0  0.17815  0.01750  0.53400  1.0000
  H   H484      1.0  0.07845  0.00653  0.62537  1.0000
  H   H485      1.0  0.41813  0.85172  0.53577  1.0000
  H   H486      1.0  0.49052  0.83637  0.56964  1.0000
  C   C278      1.0  0.48681  0.78149  0.54071  1.0000
  H   H487      1.0  0.45361  0.80540  0.58816  1.0000
  H   H488      1.0  0.47836  0.75235  0.54891  1.0000
  H   H489      1.0  0.25261  0.92752  0.59299  1.0000
  S   S64       1.0  0.10298  0.93460  0.53947  1.0000
  C   C279      1.0  0.51485  0.99492  0.56232  1.0000
  H   H490      1.0  0.46934  0.97294  0.99152  1.0000
  H   H491      1.0  0.38606  0.97012  0.57522  1.0000
  C   C280      1.0  0.48353  0.80652  0.57664  1.0000
  H   H492      1.0  0.43881  0.82889  0.98832  1.0000
  C   C281      1.0  0.27184  0.94806  0.53707  1.0000
  H   H493      1.0  0.35145  0.85983  0.51251  1.0000
  H   H494      1.0  0.39620  0.88277  0.00555  1.0000
  H   H495      1.0  0.46334  0.99609  0.94606  1.0000
  C   C282      1.0  0.30975  0.92483  0.53528  1.0000
  C   C283      1.0  0.51407  0.01411  0.97745  1.0000
  H   H496      1.0  0.27686  0.97689  0.54873  1.0000
  H   H497      1.0  0.05854  0.01582  0.57880  1.0000
  C   C284      1.0  0.48484  0.98381  0.96582  1.0000
  C   C285      1.0  0.49387  0.00794  0.53068  1.0000
  H   H498      1.0  0.38453  0.98175  0.00241  1.0000
  H   H499      1.0  0.06336  0.69515  0.98003  1.0000
  H   H500      1.0  0.30168  0.89638  0.52445  1.0000
  H   H501      1.0  0.38377  0.91342  0.54686  1.0000
  H   H502      1.0  0.32805  0.00053  0.51582  1.0000
  H   H503      1.0  0.60146  0.06578  0.08700  1.0000
  H   H504      1.0  0.59401  0.30521  0.48871  1.0000
  H   H505      1.0  0.66575  0.13802  0.03370  1.0000
  H   H506      1.0  0.76621  0.20912  0.04878  1.0000
  C   C286      1.0  0.67069  0.07045  0.47649  1.0000
  H   H507      1.0  0.77216  0.15837  0.04757  1.0000
  H   H508      1.0  0.54554  0.10994  0.48670  1.0000
  C   C287      1.0  0.70388  0.09859  0.47220  1.0000
  H   H509      1.0  0.70300  0.21045  0.05603  1.0000
  C   C288      1.0  0.63592  0.24242  0.06395  1.0000
  H   H510      1.0  0.78560  0.34685  0.50393  1.0000
  H   H511      1.0  0.70950  0.14623  0.05750  1.0000
  S   S65       1.0  0.54107  0.29868  0.02929  1.0000
  H   H512      1.0  0.60599  0.25891  0.47032  1.0000
  C   C289      1.0  0.58189  0.08126  0.06768  1.0000
  H   H513      1.0  0.01465  0.29381  0.09645  1.0000
  N   N15       1.0  0.57455  0.02506  0.01962  1.0000
  H   H514      1.0  0.71752  0.04522  0.02996  1.0000
  C   C290      1.0  0.58414  0.27534  0.48692  1.0000
  H   H515      1.0  0.01863  0.04052  0.50423  1.0000
  C   C291      1.0  0.77367  0.18448  0.03024  1.0000
  C   C292      1.0  0.55491  0.05377  0.04553  1.0000
  C   C293      1.0  0.58169  0.05916  0.47826  1.0000
  C   C294      1.0  0.70906  0.07288  0.04289  1.0000
  H   H516      1.0  0.53180  0.12126  0.41876  1.0000
  H   H517      1.0  0.81179  0.28127  0.49731  1.0000
  C   C295      1.0  0.56574  0.09780  0.46497  1.0000
  H   H518      1.0  0.70170  0.23708  0.01307  1.0000
  H   H519      1.0  0.96158  0.32071  0.03464  1.0000
  C   C296      1.0  0.69076  0.21058  0.02657  1.0000
  H   H520      1.0  0.53982  0.12677  0.07417  1.0000
  C   C297      1.0  0.71168  0.10360  0.01238  1.0000
  H   H521      1.0  0.72901  0.07927  0.06690  1.0000
  H   H522      1.0  0.72002  0.10128  0.49957  1.0000
  H   H523      1.0  0.58941  0.11819  0.45963  1.0000
  H   H524      1.0  0.91310  0.31981  0.05381  1.0000
  H   H525      1.0  0.84911  0.03218  0.01752  1.0000
  C   C298      1.0  0.97715  0.24729  0.10831  1.0000
  H   H526      1.0  0.67921  0.07052  0.05430  1.0000
  H   H527      1.0  0.95327  0.26474  0.12036  1.0000
  C   C299      1.0  0.54311  0.09334  0.42768  1.0000
  H   H528      1.0  0.57834  0.12811  0.10846  1.0000
  H   H529      1.0  0.60434  0.24755  0.06434  1.0000
  H   H530      1.0  0.00203  0.34644  0.14052  1.0000
  H   H531      1.0  0.63131  0.18833  0.03649  1.0000
  C   C300      1.0  0.69705  0.14195  0.02839  1.0000
  C   C301      1.0  0.94121  0.33484  0.05486  1.0000
  H   H532      1.0  0.68375  0.04293  0.48408  1.0000
  H   H533      1.0  0.97743  0.21937  0.12261  1.0000
  C   C302      1.0  0.81558  0.18945  0.01747  1.0000
  H   H534      1.0  0.97166  0.24255  0.07721  1.0000
  H   H535      1.0  0.69290  0.12683  0.46397  1.0000
  H   H536      1.0  0.65629  0.06804  0.44827  1.0000
  C   C303      1.0  0.55857  0.10907  0.09244  1.0000
  H   H537      1.0  0.65081  0.26998  0.06053  1.0000
  H   H538      1.0  0.72417  0.08849  0.44948  1.0000
  H   H539      1.0  0.55633  0.04034  0.48312  1.0000
  C   C304      1.0  0.64628  0.21538  0.03091  1.0000
  H   H540      1.0  0.83445  0.19086  0.04306  1.0000
  H   H541      1.0  0.64409  0.23007  0.09194  1.0000
  H   H542      1.0  0.59961  0.09824  0.04758  1.0000
  H   H543      1.0  0.54027  0.09378  0.11356  1.0000
  H   H544      1.0  0.56181  0.08215  0.40414  1.0000
  H   H545      1.0  0.59726  0.04669  0.45327  1.0000
  H   H546      1.0  0.55638  0.27401  0.47130  1.0000
  H   H547      1.0  0.99912  0.29082  0.16914  1.0000
  H   H548      1.0  0.53581  0.03954  0.06684  1.0000
  H   H549      1.0  0.95278  0.33273  0.08439  1.0000
  H   H550      1.0  0.63489  0.11343  0.50390  1.0000
  H   H551      1.0  0.53524  0.07191  0.02860  1.0000
  C   C305      1.0  0.01581  0.26739  0.11327  1.0000
  C   C306      1.0  0.64238  0.08328  0.50855  1.0000
  H   H552      1.0  0.68499  0.26170  0.54782  1.0000
  Fe  Fe33      1.0  0.78090  0.12697  0.60449  1.0000
  S   S66       1.0  0.81278  0.16925  0.56848  1.0000
  S   S67       1.0  0.72526  0.09894  0.58865  1.0000
  Fe  Fe34      1.0  0.83396  0.13637  0.67253  1.0000
  S   S68       1.0  0.87004  0.17967  0.64252  1.0000
  S   S69       1.0  0.83918  0.11527  0.73306  1.0000
  Fe  Fe35      1.0  0.81364  0.20419  0.62291  1.0000
  S   S70       1.0  0.79823  0.26607  0.63212  1.0000
  Fe  Fe36      1.0  0.86604  0.14031  0.59117  1.0000
  S   S71       1.0  0.91956  0.12776  0.55460  1.0000
  S   S72       1.0  0.77827  0.16368  0.65707  1.0000
  S   S73       1.0  0.83344  0.09545  0.62295  1.0000
  Fe  Fe37      1.0  0.64923  0.30576  0.92788  1.0000
  H   H553      1.0  0.78561  0.32897  0.97916  1.0000
  S   S74       1.0  0.58483  0.30375  0.92075  1.0000
  Fe  Fe38      1.0  0.89746  0.23940  0.95863  1.0000
  H   H554      1.0  0.64096  0.26884  0.66359  1.0000
  Fe  Fe39      1.0  0.94682  0.19467  0.90246  1.0000
  S   S75       1.0  0.97276  0.15968  0.94909  1.0000
  S   S76       1.0  0.96487  0.18970  0.84006  1.0000
  Fe  Fe40      1.0  0.91189  0.15600  0.97229  1.0000
  C   C307      1.0  0.74754  0.07759  0.70240  1.0000
  Fe  Fe41      1.0  0.97793  0.21492  0.98180  1.0000
  S   S77       1.0  0.88595  0.18720  0.92328  1.0000
  S   S78       1.0  0.95612  0.25000  0.93340  1.0000
  H   H555      1.0  0.00895  0.30282  0.98469  1.0000
  H   H556      1.0  0.89848  0.05252  0.58203  1.0000
  C   C308      1.0  0.84297  0.07924  0.97921  1.0000
  C   C309      1.0  0.73572  0.27014  0.91971  1.0000
  C   C310      1.0  0.76561  0.24580  0.90876  1.0000
  C   C311      1.0  0.80274  0.25144  0.92321  1.0000
  C   C312      1.0  0.81012  0.28109  0.94901  1.0000
  H   H557      1.0  0.76015  0.22260  0.88912  1.0000
  H   H558      1.0  0.82562  0.23310  0.91389  1.0000
  N   N16       1.0  0.99265  0.06961  0.68765  1.0000
  S   S79       1.0  0.91956  0.20797  0.00965  1.0000
  H   H559      1.0  0.95145  0.11148  0.63015  1.0000
  C   C313      1.0  0.87529  0.13479  0.76208  1.0000
  C   C314      1.0  0.87333  0.12952  0.80185  1.0000
  C   C315      1.0  0.90099  0.14596  0.82593  1.0000
  C   C316      1.0  0.93089  0.16754  0.81027  1.0000
  C   C317      1.0  0.93360  0.17175  0.77031  1.0000
  C   C318      1.0  0.90571  0.15552  0.74624  1.0000
  H   H560      1.0  0.85018  0.11296  0.81420  1.0000
  H   H561      1.0  0.89942  0.14150  0.85655  1.0000
  H   H562      1.0  0.95688  0.18820  0.75809  1.0000
  H   H563      1.0  0.90744  0.15948  0.71555  1.0000
  Fe  Fe42      1.0  0.58363  0.31959  0.98363  1.0000
  C   C319      1.0  0.59395  0.04571  0.98701  1.0000
  H   H564      1.0  0.72509  0.17165  0.92088  1.0000
  C   C320      1.0  0.68726  0.31370  0.58056  1.0000
  C   C321      1.0  0.70729  0.33390  0.60883  1.0000
  C   C322      1.0  0.74057  0.31846  0.62529  1.0000
  C   C323      1.0  0.75393  0.28260  0.61397  1.0000
  C   C324      1.0  0.73315  0.26180  0.58669  1.0000
  C   C325      1.0  0.70020  0.27751  0.56973  1.0000
  C   C326      1.0  0.80114  0.31546  0.81719  1.0000
  H   H565      1.0  0.75635  0.33463  0.64646  1.0000
  S   S80       1.0  0.85629  0.28796  0.96823  1.0000
  H   H566      1.0  0.74093  0.05040  0.75689  1.0000
  H   H567      1.0  0.56010  0.21006  0.58496  1.0000
  H   H568      1.0  0.96630  0.12365  0.70041  1.0000
  C   C327      1.0  0.83146  0.04477  0.99560  1.0000
  H   H569      1.0  0.78889  0.05019  0.56621  1.0000
  C   C328      1.0  0.78544  0.07705  0.93950  1.0000
  C   C329      1.0  0.57950  0.27607  0.61397  1.0000
  H   H570      1.0  0.77484  0.33887  0.55305  1.0000
  C   C330      1.0  0.72802  0.04820  0.72785  1.0000
  H   H571      1.0  0.60859  0.25964  0.54046  1.0000
  H   H572      1.0  0.69344  0.09423  0.98808  1.0000
  H   H573      1.0  0.64700  0.13272  0.90757  1.0000
  C   C331      1.0  0.97519  0.07865  0.52718  1.0000
  C   C332      1.0  0.62897  0.04445  0.92263  1.0000
  H   H574      1.0  0.90697  0.24363  0.69051  1.0000
  S   S81       1.0  0.88587  0.10148  0.99579  1.0000
  H   H575      1.0  0.96732  0.17510  0.60814  1.0000
  H   H576      1.0  0.66194  0.17824  0.88921  1.0000
  C   C333      1.0  0.67214  0.15007  0.89865  1.0000
  C   C334      1.0  0.81984  0.09516  0.95083  1.0000
  C   C335      1.0  0.54475  0.34620  0.77009  1.0000
  H   H577      1.0  0.61620  0.31228  0.67633  1.0000
  H   H578      1.0  0.71066  0.02593  0.83570  1.0000
  H   H579      1.0  0.00246  0.11544  0.61937  1.0000
  H   H580      1.0  0.84734  0.32753  0.56370  1.0000
  H   H581      1.0  0.91063  0.08908  0.68373  1.0000
  N   N17       1.0  0.60649  0.05973  0.51377  1.0000
  C   C336      1.0  0.79695  0.35131  0.53354  1.0000
  C   C337      1.0  0.94095  0.08238  0.54883  1.0000
  H   H582      1.0  0.76781  0.08966  0.91763  1.0000
  H   H583      1.0  0.65941  0.03137  0.68687  1.0000
  H   H584      1.0  0.00861  0.05645  0.60709  1.0000
  H   H585      1.0  0.60451  0.04548  0.59572  1.0000
  H   H586      1.0  0.01584  0.12637  0.68847  1.0000
  H   H587      1.0  0.54432  0.07828  0.61662  1.0000
  H   H588      1.0  0.65961  0.08341  0.53533  1.0000
  H   H589      1.0  0.85038  0.26712  0.52843  1.0000
  H   H590      1.0  0.53833  0.31739  0.76165  1.0000
  H   H591      1.0  0.74627  0.10577  0.71670  1.0000
  H   H592      1.0  0.71175  0.12615  0.93853  1.0000
  C   C338      1.0  0.92478  0.05011  0.56539  1.0000
  C   C339      1.0  0.74318  0.30041  0.94473  1.0000
  C   C340      1.0  0.98872  0.11146  0.68091  1.0000
  H   H593      1.0  0.79588  0.32465  0.87891  1.0000
  H   H594      1.0  0.55117  0.33302  0.83028  1.0000
  C   C341      1.0  0.82385  0.28453  0.52663  1.0000
  H   H595      1.0  0.55386  0.06441  0.54706  1.0000
  H   H596      1.0  0.67522  0.20348  0.95677  1.0000
  N   N18       1.0  0.54280  0.26847  0.59205  1.0000
  C   C342      1.0  0.54951  0.28143  0.55125  1.0000
  H   H597      1.0  0.95342  0.04976  0.64348  1.0000
  C   C343      1.0  0.99688  0.06407  0.73050  1.0000
  H   H598      1.0  0.62775  0.09054  0.58891  1.0000
  H   H599      1.0  0.74215  0.10511  0.00295  1.0000
  H   H600      1.0  0.85488  0.33449  0.51307  1.0000
  C   C344      1.0  0.74665  0.18168  0.99506  1.0000
  H   H601      1.0  0.97273  0.07774  0.74661  1.0000
  H   H602      1.0  0.61751  0.06400  0.99811  1.0000
  H   H603      1.0  0.55338  0.27982  0.67245  1.0000
  C   C345      1.0  0.95742  0.04789  0.67501  1.0000
  C   C346      1.0  0.70058  0.15445  0.93168  1.0000
  H   H604      1.0  0.70600  0.26073  0.70451  1.0000
  C   C347      1.0  0.91832  0.06015  0.69310  1.0000
  H   H605      1.0  0.54583  0.22824  0.98340  1.0000
  C   C348      1.0  0.52598  0.22397  0.00711  1.0000
  S   S82       1.0  0.68923  0.26246  0.90208  1.0000
  C   C349      1.0  0.58296  0.07751  0.54595  1.0000
  H   H606      1.0  0.80276  0.27356  0.54777  1.0000
  H   H607      1.0  0.65090  0.06467  0.93355  1.0000
  N   N19       1.0  0.80113  0.25263  0.77801  1.0000
  C   C350      1.0  0.79365  0.27212  0.81619  1.0000
  C   C351      1.0  0.79860  0.21035  0.78350  1.0000
  C   C352      1.0  0.84220  0.26149  0.76628  1.0000
  C   C353      1.0  0.77433  0.26558  0.74670  1.0000
  C   C354      1.0  0.73264  0.27666  0.75896  1.0000
  H   H608      1.0  0.77823  0.07017  0.69719  1.0000
  C   C355      1.0  0.85648  0.24365  0.72778  1.0000
  C   C356      1.0  0.75909  0.19417  0.79628  1.0000
  C   C357      1.0  0.76267  0.15281  0.80810  1.0000
  C   C358      1.0  0.70821  0.28576  0.72394  1.0000
  H   H609      1.0  0.72096  0.30968  0.70776  1.0000
  C   C359      1.0  0.89693  0.25762  0.71750  1.0000
  H   H610      1.0  0.81206  0.25951  0.83883  1.0000
  H   H611      1.0  0.76368  0.26732  0.82623  1.0000
  H   H612      1.0  0.80543  0.19497  0.75629  1.0000
  H   H613      1.0  0.82074  0.20117  0.80455  1.0000
  H   H614      1.0  0.86254  0.25276  0.78926  1.0000
  H   H615      1.0  0.84613  0.29244  0.76277  1.0000
  H   H616      1.0  0.78640  0.29085  0.73192  1.0000
  H   H617      1.0  0.77237  0.24348  0.72369  1.0000
  H   H618      1.0  0.73260  0.30227  0.77758  1.0000
  H   H619      1.0  0.71795  0.25403  0.77512  1.0000
  H   H620      1.0  0.60549  0.06025  0.90844  1.0000
  C   C360      1.0  0.78025  0.30575  0.95951  1.0000
  H   H621      1.0  0.83715  0.25097  0.70383  1.0000
  H   H622      1.0  0.85792  0.21255  0.72954  1.0000
  H   H623      1.0  0.74643  0.20965  0.82110  1.0000
  H   H624      1.0  0.73875  0.19504  0.77185  1.0000
  H   H625      1.0  0.78225  0.15014  0.83304  1.0000
  H   H626      1.0  0.73392  0.14169  0.81645  1.0000
  H   H627      1.0  0.77397  0.13535  0.78383  1.0000
  H   H628      1.0  0.75075  0.20781  0.97787  1.0000
  H   H629      1.0  0.69734  0.05612  0.73070  1.0000
  H   H630      1.0  0.67880  0.29408  0.73352  1.0000
  H   H631      1.0  0.74319  0.23412  0.57770  1.0000
  H   H632      1.0  0.72057  0.31995  0.95264  1.0000
  H   H633      1.0  0.67291  0.04026  0.60842  1.0000
  C   C361      1.0  0.78200  0.33435  0.85216  1.0000
  H   H634      1.0  0.89683  0.28864  0.71296  1.0000
  H   H635      1.0  0.91749  0.25070  0.74070  1.0000
  H   H636      1.0  0.56798  0.12349  0.61023  1.0000
  H   H637      1.0  0.64314  0.02577  0.90088  1.0000
  H   H638      1.0  0.73272  0.07937  0.67430  1.0000
  C   C362      1.0  0.57975  0.25885  0.52717  1.0000
  H   H639      1.0  0.58775  0.30644  0.61128  1.0000
  H   H640      1.0  0.61395  0.27258  0.70814  1.0000
  H   H641      1.0  0.83258  0.32106  0.81915  1.0000
  H   H642      1.0  0.95382  0.17752  0.65822  1.0000
  C   C363      1.0  0.97588  0.16682  0.63757  1.0000
  C   C364      1.0  0.61472  0.28095  0.67746  1.0000
  S   S83       1.0  0.64722  0.33364  0.55707  1.0000
  C   C365      1.0  0.97919  0.12377  0.63964  1.0000
  C   C366      1.0  0.57257  0.09313  0.61662  1.0000
  C   C367      1.0  0.59995  0.07520  0.58703  1.0000
  H   H643      1.0  0.60407  0.25972  0.60174  1.0000
  H   H644      1.0  0.68658  0.13579  0.87389  1.0000
  H   H645      1.0  0.82838  0.12147  0.93771  1.0000
  H   H646      1.0  0.65289  0.16105  0.97226  1.0000
  C   C368      1.0  0.77381  0.04277  0.95623  1.0000
  C   C369      1.0  0.73035  0.04979  0.58728  1.0000
  H   H647      1.0  0.88438  0.03178  0.64875  1.0000
  S   S84       1.0  0.64791  0.31769  0.99145  1.0000
  H   H648      1.0  0.58517  0.09100  0.64576  1.0000
  C   C370      1.0  0.99269  0.04299  0.52149  1.0000
  C   C371      1.0  0.57841  0.26667  0.65749  1.0000
  C   C372      1.0  0.68151  0.17438  0.96698  1.0000
  H   H649      1.0  0.00992  0.08625  0.80678  1.0000
  H   H650      1.0  0.63419  0.22718  0.00409  1.0000
  C   C373      1.0  0.79722  0.02654  0.98409  1.0000
  H   H651      1.0  0.00397  0.18037  0.64412  1.0000
  H   H652      1.0  0.75078  0.32757  0.85359  1.0000
  H   H653      1.0  0.75821  0.15846  0.97667  1.0000
  C   C374      1.0  0.55213  0.35498  0.80888  1.0000
  H   H654      1.0  0.57699  0.23563  0.66162  1.0000
  C   C375      1.0  0.83346  0.32592  0.53523  1.0000
  H   H655      1.0  0.82160  0.35530  0.61453  1.0000
  H   H656      1.0  0.55841  0.31172  0.55136  1.0000
  H   H657      1.0  0.57342  0.06541  0.97312  1.0000
  H   H658      1.0  0.57826  0.10808  0.54054  1.0000
  H   H659      1.0  0.79046  0.32930  0.79089  1.0000
  H   H660      1.0  0.57085  0.22889  0.52372  1.0000
  H   H661      1.0  0.98799  0.10341  0.51428  1.0000
  H   H662      1.0  0.91856  0.05978  0.72490  1.0000
  H   H663      1.0  0.99548  0.03338  0.73743  1.0000
  H   H664      1.0  0.85818  0.04308  0.69231  1.0000
  N   N20       1.0  0.70431  0.17627  0.00387  1.0000
  C   C376      1.0  0.76476  0.03284  0.57497  1.0000
  C   C377      1.0  0.69913  0.02726  0.59799  1.0000
  C   C378      1.0  0.53425  0.22672  0.59384  1.0000
  H   H665      1.0  0.81922  0.21600  0.00110  1.0000
  H   H666      1.0  0.82511  0.16524  0.99922  1.0000
  H   H667      1.0  0.52833  0.21820  0.62401  1.0000
  C   C379      1.0  0.88628  0.03313  0.68057  1.0000
  H   H668      1.0  0.52773  0.02474  0.95072  1.0000
  H   H669      1.0  0.71009  0.67181  0.14348  1.0000
  H   H670      1.0  0.70318  0.45326  0.50350  1.0000
  H   H671      1.0  0.80341  0.41372  0.06761  1.0000
  H   H672      1.0  0.78485  0.37052  0.04683  1.0000
  H   H673      1.0  0.00099  0.62060  0.48623  1.0000
  H   H674      1.0  0.55564  0.56746  0.47797  1.0000
  H   H675      1.0  0.53451  0.64294  0.49047  1.0000
  C   C380      1.0  0.80104  0.39689  0.04062  1.0000
  C   C381      1.0  0.70225  0.42218  0.49876  1.0000
  H   H676      1.0  0.00191  0.67809  0.08316  1.0000
  H   H677      1.0  0.99317  0.62449  0.43501  1.0000
  C   C382      1.0  0.86453  0.42335  0.01558  1.0000
  H   H678      1.0  0.63819  0.55717  0.50734  1.0000
  H   H679      1.0  0.74220  0.63272  0.50237  1.0000
  H   H680      1.0  0.96465  0.39060  0.04759  1.0000
  H   H681      1.0  0.71028  0.41552  0.46847  1.0000
  C   C383      1.0  0.93621  0.37642  0.04447  1.0000
  C   C384      1.0  0.01120  0.63432  0.45938  1.0000
  H   H682      1.0  0.58882  0.53097  0.46318  1.0000
  H   H683      1.0  0.57976  0.68004  0.08087  1.0000
  H   H684      1.0  0.89815  0.44949  0.49236  1.0000
  H   H685      1.0  0.61550  0.67597  0.11811  1.0000
  H   H686      1.0  0.93421  0.44918  0.03779  1.0000
  H   H687      1.0  0.59983  0.57980  0.45321  1.0000
  H   H688      1.0  0.94080  0.51784  0.04750  1.0000
  H   H689      1.0  0.54881  0.67089  0.14342  1.0000
  C   C385      1.0  0.58661  0.56038  0.47448  1.0000
  H   H690      1.0  0.67228  0.41224  0.50375  1.0000
  C   C386      1.0  0.94265  0.51994  0.01570  1.0000
  H   H691      1.0  0.86908  0.43760  0.04389  1.0000
  H   H692      1.0  0.60787  0.62488  0.50937  1.0000
  S   S85       1.0  0.76620  0.67763  0.02068  1.0000
  H   H693      1.0  0.00745  0.66535  0.46282  1.0000
  H   H694      1.0  0.77806  0.41156  0.48796  1.0000
  H   H695      1.0  0.67184  0.61744  0.50032  1.0000
  C   C387      1.0  0.84094  0.38709  0.02457  1.0000
  H   H696      1.0  0.85565  0.36986  0.04645  1.0000
  S   S86       1.0  0.95234  0.64683  0.02511  1.0000
  H   H697      1.0  0.71381  0.49950  0.02120  1.0000
  H   H698      1.0  0.91604  0.38951  0.06561  1.0000
  H   H699      1.0  0.53021  0.63546  0.43927  1.0000
  H   H700      1.0  0.78446  0.41329  0.01941  1.0000
  H   H701      1.0  0.84488  0.39909  0.49725  1.0000
  H   H702      1.0  0.01024  0.41321  0.12249  1.0000
  H   H703      1.0  0.66992  0.68099  0.08501  1.0000
  H   H704      1.0  0.62438  0.68241  0.03589  1.0000
  S   S87       1.0  0.84922  0.60455  0.01270  1.0000
  H   H705      1.0  0.80750  0.51683  0.62440  1.0000
  H   H706      1.0  0.71022  0.42532  0.86030  1.0000
  Fe  Fe43      1.0  0.56123  0.45098  0.58013  1.0000
  S   S88       1.0  0.56462  0.46421  0.64348  1.0000
  C   C388      1.0  0.57643  0.66317  0.59208  1.0000
  Fe  Fe44      1.0  0.62814  0.45462  0.63452  1.0000
  S   S89       1.0  0.67467  0.48916  0.66222  1.0000
  Fe  Fe45      1.0  0.56263  0.40106  0.65141  1.0000
  H   H707      1.0  0.92127  0.40903  0.62546  1.0000
  S   S90       1.0  0.62511  0.44481  0.57078  1.0000
  C   C389      1.0  0.54506  0.37472  0.74235  1.0000
  C   C390      1.0  0.01678  0.53160  0.55138  1.0000
  S   S91       1.0  0.58499  0.38213  0.97205  1.0000
  S   S92       1.0  0.56207  0.40549  0.86891  1.0000
  C   C391      1.0  0.69544  0.44118  0.83712  1.0000
  Fe  Fe46      1.0  0.64955  0.37878  0.97377  1.0000
  H   H708      1.0  0.75652  0.58114  0.67288  1.0000
  H   H709      1.0  0.60549  0.53800  0.66265  1.0000
  H   H710      1.0  0.78317  0.60397  0.75380  1.0000
  C   C392      1.0  0.77786  0.45545  0.94099  1.0000
  C   C393      1.0  0.74434  0.43632  0.95335  1.0000
  H   H711      1.0  0.79607  0.44280  0.91905  1.0000
  H   H712      1.0  0.73719  0.40890  0.94133  1.0000
  Fe  Fe47      1.0  0.59131  0.36607  0.90988  1.0000
  S   S93       1.0  0.53281  0.36392  0.69448  1.0000
  H   H713      1.0  0.65292  0.42781  0.79207  1.0000
  C   C394      1.0  0.55845  0.39253  0.82012  1.0000
  H   H714      1.0  0.74894  0.65001  0.68689  1.0000
  H   H715      1.0  0.91544  0.45791  0.61311  1.0000
  H   H716      1.0  0.69186  0.48510  0.77276  1.0000
  H   H717      1.0  0.63096  0.66652  0.96499  1.0000
  Fe  Fe48      1.0  0.61827  0.38380  0.58606  1.0000
  H   H718      1.0  0.98035  0.42239  0.65992  1.0000
  H   H719      1.0  0.96424  0.49944  0.55179  1.0000
  C   C395      1.0  0.01345  0.46385  0.53836  1.0000
  C   C396      1.0  0.71104  0.49980  0.62888  1.0000
  C   C397      1.0  0.74918  0.50327  0.64101  1.0000
  C   C398      1.0  0.73114  0.51451  0.56380  1.0000
  C   C399      1.0  0.70208  0.50554  0.59030  1.0000
  N   N21       1.0  0.80185  0.39323  0.54195  1.0000
  H   H720      1.0  0.67260  0.50463  0.58110  1.0000
  Fe  Fe49      1.0  0.84913  0.56591  0.57721  1.0000
  S   S94       1.0  0.88522  0.61109  0.55004  1.0000
  S   S95       1.0  0.80421  0.53476  0.54380  1.0000
  Fe  Fe50      1.0  0.88334  0.57796  0.65604  1.0000
  S   S96       1.0  0.92176  0.62446  0.63523  1.0000
  S   S97       1.0  0.88236  0.55495  0.71620  1.0000
  Fe  Fe51      1.0  0.86945  0.64466  0.60329  1.0000
  Fe  Fe52      1.0  0.93356  0.58571  0.58437  1.0000
  Fe  Fe53      1.0  0.89979  0.63618  0.98740  1.0000
  S   S98       1.0  0.83051  0.60071  0.62809  1.0000
  S   S99       1.0  0.89797  0.53811  0.60745  1.0000
  S   S100      1.0  0.65584  0.36631  0.91102  1.0000
  Fe  Fe54      1.0  0.85877  0.64749  0.91117  1.0000
  S   S101      1.0  0.89820  0.60204  0.93223  1.0000
  H   H721      1.0  0.56390  0.45000  0.80089  1.0000
  Fe  Fe55      1.0  0.84372  0.57513  0.95535  1.0000
  H   H722      1.0  0.71978  0.41003  0.55607  1.0000
  H   H723      1.0  0.90143  0.39380  0.87612  1.0000
  S   S102      1.0  0.80443  0.61890  0.93075  1.0000
  C   C400      1.0  0.78812  0.49065  0.95716  1.0000
  H   H724      1.0  0.01369  0.60958  0.64450  1.0000
  H   H725      1.0  0.83821  0.39015  0.67332  1.0000
  H   H726      1.0  0.96999  0.55907  0.66826  1.0000
  C   C401      1.0  0.87861  0.58839  0.75394  1.0000
  C   C402      1.0  0.87004  0.57604  0.79122  1.0000
  C   C403      1.0  0.86625  0.60213  0.82172  1.0000
  C   C404      1.0  0.87132  0.64076  0.81514  1.0000
  C   C405      1.0  0.88035  0.65313  0.77794  1.0000
  C   C406      1.0  0.88378  0.62702  0.74734  1.0000
  H   H727      1.0  0.86608  0.54620  0.79650  1.0000
  H   H728      1.0  0.85912  0.59234  0.85028  1.0000
  C   C407      1.0  0.55340  0.41193  0.75337  1.0000
  H   H729      1.0  0.89056  0.63676  0.71870  1.0000
  S   S103      1.0  0.83178  0.51267  0.94280  1.0000
  C   C408      1.0  0.89686  0.42132  0.95137  1.0000
  C   C409      1.0  0.77813  0.51352  0.61477  1.0000
  C   C410      1.0  0.76898  0.51942  0.57620  1.0000
  H   H730      1.0  0.75626  0.49824  0.67072  1.0000
  H   H731      1.0  0.59547  0.54116  0.53197  1.0000
  N   N22       1.0  0.62359  0.61102  0.56777  1.0000
  C   C411      1.0  0.60883  0.58493  0.59860  1.0000
  H   H732      1.0  0.56994  0.60561  0.53712  1.0000
  C   C412      1.0  0.66612  0.60401  0.56213  1.0000
  C   C413      1.0  0.61779  0.65203  0.57884  1.0000
  H   H733      1.0  0.73167  0.58480  0.51569  1.0000
  C   C414      1.0  0.62527  0.59168  0.63943  1.0000
  C   C415      1.0  0.82460  0.38644  0.61259  1.0000
  H   H734      1.0  0.57683  0.58597  0.60028  1.0000
  C   C416      1.0  0.87209  0.39041  0.93172  1.0000
  H   H735      1.0  0.59906  0.51217  0.95965  1.0000
  N   N23       1.0  0.01972  0.49261  0.66911  1.0000
  H   H736      1.0  0.99645  0.43833  0.53568  1.0000
  H   H737      1.0  0.61560  0.55498  0.59110  1.0000
  H   H738      1.0  0.84548  0.44298  0.99960  1.0000
  C   C417      1.0  0.01181  0.60317  0.67568  1.0000
  H   H739      1.0  0.70819  0.38330  0.78305  1.0000
  S   S104      1.0  0.86411  0.67406  0.85250  1.0000
  H   H740      1.0  0.68214  0.61244  0.58845  1.0000
  H   H741      1.0  0.89635  0.48913  0.52522  1.0000
  H   H742      1.0  0.85907  0.42351  0.88085  1.0000
  H   H743      1.0  0.73697  0.63478  0.86215  1.0000
  H   H744      1.0  0.78421  0.62746  0.84137  1.0000
  H   H745      1.0  0.65597  0.58285  0.64032  1.0000
  H   H746      1.0  0.62336  0.62169  0.64856  1.0000
  C   C418      1.0  0.81767  0.40290  0.65289  1.0000
  H   H747      1.0  0.68348  0.65606  0.53218  1.0000
  C   C419      1.0  0.60305  0.56867  0.66920  1.0000
  H   H748      1.0  0.57212  0.57675  0.66972  1.0000
  H   H749      1.0  0.85415  0.37303  0.87473  1.0000
  H   H750      1.0  0.76664  0.39072  0.59343  1.0000
  C   C420      1.0  0.74406  0.65721  0.80457  1.0000
  C   C421      1.0  0.64885  0.52527  0.75716  1.0000
  H   H751      1.0  0.80482  0.53329  0.84519  1.0000
  C   C422      1.0  0.60736  0.56342  0.51296  1.0000
  C   C423      1.0  0.75190  0.64579  0.71842  1.0000
  H   H752      1.0  0.77045  0.67358  0.85895  1.0000
  C   C424      1.0  0.77159  0.68865  0.59815  1.0000
  H   H753      1.0  0.84425  0.45935  0.56249  1.0000
  C   C425      1.0  0.72130  0.45191  0.98272  1.0000
  C   C426      1.0  0.92668  0.43853  0.63519  1.0000
  H   H754      1.0  0.74325  0.61951  0.55218  1.0000
  H   H755      1.0  0.91091  0.44345  0.66273  1.0000
  H   H756      1.0  0.97268  0.50366  0.63026  1.0000
  C   C427      1.0  0.92178  0.38101  0.00263  1.0000
  C   C428      1.0  0.76180  0.57600  0.70384  1.0000
  H   H757      1.0  0.62330  0.52302  0.89414  1.0000
  C   C429      1.0  0.97919  0.48513  0.65512  1.0000
  C   C430      1.0  0.89151  0.45816  0.52247  1.0000
  C   C431      1.0  0.77185  0.41436  0.51937  1.0000
  H   H758      1.0  0.64214  0.40665  0.83760  1.0000
  H   H759      1.0  0.62242  0.46683  0.96077  1.0000
  S   S105      1.0  0.62636  0.39324  0.64887  1.0000
  C   C432      1.0  0.60144  0.60314  0.53143  1.0000
  C   C433      1.0  0.87174  0.39567  0.88817  1.0000
  S   S106      1.0  0.55380  0.38828  0.58881  1.0000
  H   H760      1.0  0.63222  0.54932  0.76959  1.0000
  C   C434      1.0  0.66574  0.41437  0.81765  1.0000
  H   H761      1.0  0.73295  0.63058  0.79181  1.0000
  C   C435      1.0  0.55934  0.42090  0.79227  1.0000
  H   H762      1.0  0.91849  0.49530  0.96508  1.0000
  H   H763      1.0  0.99541  0.55831  0.71303  1.0000
  H   H764      1.0  0.71098  0.67630  0.59340  1.0000
  C   C436      1.0  0.76431  0.50677  0.98543  1.0000
  C   C437      1.0  0.68463  0.37755  0.80400  1.0000
  H   H765      1.0  0.73434  0.56762  0.71799  1.0000
  H   H766      1.0  0.78260  0.55230  0.70619  1.0000
  H   H767      1.0  0.71885  0.49464  0.89863  1.0000
  H   H768      1.0  0.80218  0.65815  0.78066  1.0000
  C   C438      1.0  0.84103  0.40641  0.52831  1.0000
  H   H769      1.0  0.98405  0.43957  0.61203  1.0000
  H   H770      1.0  0.72404  0.51906  0.53400  1.0000
  H   H771      1.0  0.67206  0.57331  0.55869  1.0000
  C   C439      1.0  0.75990  0.64773  0.84413  1.0000
  H   H772      1.0  0.85453  0.39362  0.60434  1.0000
  H   H773      1.0  0.70157  0.53262  0.87104  1.0000
  H   H774      1.0  0.71795  0.44604  0.81499  1.0000
  H   H775      1.0  0.82214  0.43403  0.65297  1.0000
  H   H776      1.0  0.64508  0.52581  0.83632  1.0000
  Fe  Fe56      1.0  0.81392  0.65038  0.98622  1.0000
  C   C440      1.0  0.77874  0.61107  0.72319  1.0000
  H   H777      1.0  0.99068  0.62279  0.68935  1.0000
  H   H778      1.0  0.62742  0.45267  0.87625  1.0000
  H   H779      1.0  0.76722  0.47644  0.85533  1.0000
  H   H780      1.0  0.92545  0.42185  0.93650  1.0000
  H   H781      1.0  0.78529  0.36551  0.85049  1.0000
  H   H782      1.0  0.88336  0.36169  0.93704  1.0000
  H   H783      1.0  0.66818  0.44853  0.90656  1.0000
  C   C441      1.0  0.92967  0.44955  0.00617  1.0000
  C   C442      1.0  0.75088  0.50204  0.84688  1.0000
  C   C443      1.0  0.65327  0.46803  0.88658  1.0000
  H   H784      1.0  0.80734  0.61636  0.70992  1.0000
  N   N24       1.0  0.67956  0.47792  0.85324  1.0000
  H   H785      1.0  0.74796  0.50119  0.81528  1.0000
  H   H786      1.0  0.77289  0.44521  0.52607  1.0000
  H   H787      1.0  0.79244  0.43320  0.58868  1.0000
  H   H788      1.0  0.61510  0.57411  0.69815  1.0000
  H   H789      1.0  0.72254  0.63774  0.72854  1.0000
  H   H790      1.0  0.76223  0.56235  0.84396  1.0000
  H   H791      1.0  0.62959  0.48241  0.81668  1.0000
  C   C444      1.0  0.71158  0.50275  0.86865  1.0000
  H   H792      1.0  0.62861  0.50280  0.74748  1.0000
  H   H793      1.0  0.82415  0.67571  0.71840  1.0000
  C   C445      1.0  0.67709  0.50962  0.78640  1.0000
  N   N25       1.0  0.90242  0.41821  0.99424  1.0000
  C   C446      1.0  0.65601  0.49878  0.82404  1.0000
  C   C447      1.0  0.99510  0.49843  0.54759  1.0000
  S   S107      1.0  0.99542  0.57595  0.56316  1.0000
  H   H794      1.0  0.69840  0.53228  0.79237  1.0000
  C   C448      1.0  0.77511  0.53680  0.85680  1.0000
  H   H795      1.0  0.77678  0.54095  0.88840  1.0000
  H   H796      1.0  0.66512  0.53551  0.73170  1.0000
  C   C449      1.0  0.79496  0.40211  0.58396  1.0000
  H   H797      1.0  0.69624  0.36189  0.82882  1.0000
  H   H798      1.0  0.63835  0.66090  0.60163  1.0000
  H   H799      1.0  0.56674  0.64644  0.61715  1.0000
  H   H800      1.0  0.58364  0.47485  0.92753  1.0000
  H   H801      1.0  0.88254  0.44841  0.94430  1.0000
  C   C450      1.0  0.63813  0.50160  0.91163  1.0000
  H   H802      1.0  0.66209  0.51561  0.92724  1.0000
  C   C451      1.0  0.60904  0.48793  0.94168  1.0000
  H   H803      1.0  0.78787  0.39675  0.66294  1.0000
  C   C452      1.0  0.77569  0.67553  0.77902  1.0000
  C   C453      1.0  0.96993  0.44448  0.64042  1.0000
  H   H804      1.0  0.95769  0.49304  0.67784  1.0000
  H   H805      1.0  0.71954  0.67698  0.80887  1.0000
  H   H806      1.0  0.95867  0.44507  0.99281  1.0000
  H   H807      1.0  0.55552  0.65879  0.56850  1.0000
  H   H808      1.0  0.88675  0.49575  0.00642  1.0000
  H   H809      1.0  0.78004  0.65932  0.59878  1.0000
  H   H810      1.0  0.72510  0.37143  0.52241  1.0000
  H   H811      1.0  0.62502  0.67062  0.55419  1.0000
  C   C454      1.0  0.99873  0.56236  0.68164  1.0000
  H   H812      1.0  0.86445  0.39139  0.54327  1.0000
  C   C455      1.0  0.73134  0.48730  0.99839  1.0000
  H   H813      1.0  0.00029  0.49931  0.72807  1.0000
  C   C456      1.0  0.72927  0.40229  0.52646  1.0000
  H   H814      1.0  0.98964  0.43274  0.72042  1.0000
  H   H815      1.0  0.69793  0.36194  0.61715  1.0000
  N   N26       1.0  0.76507  0.68195  0.73766  1.0000
  S   S108      1.0  0.68150  0.42727  0.00275  1.0000
  H   H816      1.0  0.77192  0.53376  0.99821  1.0000
  H   H817      1.0  0.83712  0.36898  0.99888  1.0000
  C   C457      1.0  0.84958  0.44920  0.53266  1.0000
  S   S109      1.0  0.86431  0.68362  0.96436  1.0000
  H   H818      1.0  0.91144  0.44353  0.54217  1.0000
  S   S110      1.0  0.52634  0.48171  0.53477  1.0000
  H   H819      1.0  0.84179  0.39236  0.94183  1.0000
  C   C458      1.0  0.68548  0.62499  0.52806  1.0000
  C   C459      1.0  0.91675  0.49042  0.99653  1.0000
  H   H820      1.0  0.94723  0.37679  0.98327  1.0000
  H   H821      1.0  0.83147  0.46542  0.51258  1.0000
  H   H822      1.0  0.55352  0.43407  0.73215  1.0000
  H   H823      1.0  0.88441  0.68295  0.77271  1.0000
  H   H824      1.0  0.01131  0.45517  0.78446  1.0000
  C   C460      1.0  0.72818  0.61483  0.52452  1.0000
  C   C461      1.0  0.01987  0.44242  0.72341  1.0000
  H   H825      1.0  0.66273  0.35942  0.78971  1.0000
  H   H826      1.0  0.93316  0.54874  0.00751  1.0000
  H   H827      1.0  0.97306  0.51620  0.00622  1.0000
  H   H828      1.0  0.90259  0.35679  0.99584  1.0000
  H   H829      1.0  0.61658  0.98010  0.02209  1.0000
  C   C462      1.0  0.64688  0.75416  0.48137  1.0000
  C   C463      1.0  0.60979  0.73346  0.09450  1.0000
  C   C464      1.0  0.82617  0.87734  0.12576  1.0000
  C   C465      1.0  0.62984  0.71286  0.03030  1.0000
  C   C466      1.0  0.85277  0.93438  0.49730  1.0000
  H   H830      1.0  0.98780  0.84015  0.15923  1.0000
  H   H831      1.0  0.65506  0.85078  0.04668  1.0000
  C   C467      1.0  0.01084  0.76330  0.03882  1.0000
  H   H832      1.0  0.91334  0.75455  0.07428  1.0000
  H   H833      1.0  0.86976  0.78047  0.08484  1.0000
  C   C468      1.0  0.86194  0.86948  0.10101  1.0000
  H   H834      1.0  0.90269  0.83513  0.04419  1.0000
  H   H835      1.0  0.87204  0.77978  0.48931  1.0000
  H   H836      1.0  0.79670  0.79815  0.08381  1.0000
  C   C469      1.0  0.78566  0.78446  0.05826  1.0000
  H   H837      1.0  0.67288  0.73077  0.14229  1.0000
  N   N27       1.0  0.92747  0.83356  0.10128  1.0000
  C   C470      1.0  0.91812  0.81533  0.06307  1.0000
  C   C471      1.0  0.95451  0.86679  0.09567  1.0000
  C   C472      1.0  0.94818  0.80444  0.12498  1.0000
  C   C473      1.0  0.89157  0.84546  0.12308  1.0000
  C   C474      1.0  0.78497  0.74486  0.05563  1.0000
  C   C475      1.0  0.96493  0.81864  0.16382  1.0000
  H   H838      1.0  0.66201  0.86376  0.09629  1.0000
  H   H839      1.0  0.70107  0.71157  0.06036  1.0000
  H   H840      1.0  0.64233  0.93253  0.48346  1.0000
  H   H841      1.0  0.80551  0.89469  0.10927  1.0000
  H   H842      1.0  0.81159  0.85049  0.13356  1.0000
  H   H843      1.0  0.95241  0.88686  0.12049  1.0000
  H   H844      1.0  0.96496  0.88751  0.50205  1.0000
  H   H845      1.0  0.83397  0.89311  0.15236  1.0000
  H   H846      1.0  0.97256  0.79204  0.10806  1.0000
  H   H847      1.0  0.87610  0.82030  0.13443  1.0000
  H   H848      1.0  0.89934  0.86231  0.14903  1.0000
  H   H849      1.0  0.87446  0.89725  0.09357  1.0000
  H   H850      1.0  0.98507  0.85710  0.09542  1.0000
  H   H851      1.0  0.94225  0.83125  0.18251  1.0000
  H   H852      1.0  0.61820  0.80963  0.09199  1.0000
  C   C476      1.0  0.54457  0.85120  0.04888  1.0000
  C   C477      1.0  0.52496  0.72069  0.49114  1.0000
  C   C478      1.0  0.72444  0.69854  0.13487  1.0000
  C   C479      1.0  0.97383  0.69218  0.03026  1.0000
  H   H853      1.0  0.85188  0.85486  0.07461  1.0000
  H   H854      1.0  0.96059  0.76465  0.19337  1.0000
  H   H855      1.0  0.66244  0.79633  0.11470  1.0000
  C   C480      1.0  0.57558  0.76769  0.47342  1.0000
  H   H856      1.0  0.61354  0.94870  0.12395  1.0000
  C   C481      1.0  0.89459  0.77807  0.06475  1.0000
  H   H857      1.0  0.99576  0.79687  0.21289  1.0000
  C   C482      1.0  0.77049  0.72699  0.02272  1.0000
  H   H858      1.0  0.79570  0.72810  0.07905  1.0000
  H   H859      1.0  0.64776  0.98203  0.10456  1.0000
  H   H860      1.0  0.64834  0.73910  0.45322  1.0000
  H   H861      1.0  0.57280  0.71182  0.16317  1.0000
  C   C483      1.0  0.64942  0.80422  0.08701  1.0000
  C   C484      1.0  0.66759  0.84145  0.07427  1.0000
  C   C485      1.0  0.97593  0.92509  0.05906  1.0000
  H   H862      1.0  0.71010  0.75348  0.11396  1.0000
  C   C486      1.0  0.87891  0.76707  0.02533  1.0000
  H   H863      1.0  0.60169  0.71972  0.50440  1.0000
  C   C487      1.0  0.99786  0.69969  0.06180  1.0000
  H   H864      1.0  0.00587  0.77216  0.16843  1.0000
  C   C488      1.0  0.59299  0.69445  0.10599  1.0000
  H   H865      1.0  0.90960  0.91290  0.48707  1.0000
  C   C489      1.0  0.65472  0.77291  0.05580  1.0000
  H   H866      1.0  0.92871  0.78041  0.13196  1.0000
  C   C490      1.0  0.62401  0.96226  0.09717  1.0000
  C   C491      1.0  0.62199  0.99003  0.49220  1.0000
  C   C492      1.0  0.77203  0.80629  0.02794  1.0000
  H   H867      1.0  0.56811  0.96214  0.07193  1.0000
  H   H868      1.0  0.65415  0.78445  0.47727  1.0000
  H   H869      1.0  0.52821  0.98531  0.02948  1.0000
  N   N28       1.0  0.64320  0.73295  0.06637  1.0000
  C   C493      1.0  0.98283  0.78598  0.18586  1.0000
  C   C494      1.0  0.64046  0.95389  0.50701  1.0000
  H   H870      1.0  0.64010  0.00049  0.46828  1.0000
  C   C495      1.0  0.60682  0.75020  0.49947  1.0000
  C   C496      1.0  0.67713  0.71142  0.08164  1.0000
  H   H871      1.0  0.00670  0.91737  0.06286  1.0000
  H   H872      1.0  0.86836  0.99414  0.49642  1.0000
  H   H873      1.0  0.57994  0.75685  0.44353  1.0000
  N   N29       1.0  0.53436  0.76202  0.48622  1.0000
  H   H874      1.0  0.69922  0.83818  0.07069  1.0000
  H   H875      1.0  0.61732  0.74830  0.12159  1.0000
  H   H876      1.0  0.59339  0.98229  0.48025  1.0000
  H   H877      1.0  0.58573  0.75024  0.08242  1.0000
  C   C497      1.0  0.01620  0.73509  0.06617  1.0000
  H   H878      1.0  0.63736  0.78295  0.03114  1.0000
  H   H879      1.0  0.94524  0.80879  0.04722  1.0000
  S   S111      1.0  0.77318  0.85579  0.03178  1.0000
  H   H880      1.0  0.53781  0.71707  0.12532  1.0000
  H   H881      1.0  0.58241  0.79840  0.47202  1.0000
  H   H882      1.0  0.96084  0.87213  0.03306  1.0000
  C   C498      1.0  0.85772  0.97187  0.47636  1.0000
  H   H883      1.0  0.96675  0.94421  0.08294  1.0000
  H   H884      1.0  0.84082  0.91344  0.47658  1.0000
  C   C499      1.0  0.56123  0.69896  0.13639  1.0000
  C   C500      1.0  0.57068  0.85540  0.01802  1.0000
  C   C501      1.0  0.59085  0.98330  0.07823  1.0000
  H   H885      1.0  0.68527  0.77364  0.04559  1.0000
  C   C502      1.0  0.52677  0.81601  0.05615  1.0000
  H   H886      1.0  0.87845  0.96874  0.45201  1.0000
  H   H887      1.0  0.82955  0.98111  0.46487  1.0000
  C   C503      1.0  0.69486  0.72642  0.11943  1.0000
  H   H888      1.0  0.85684  0.78758  0.01608  1.0000
  H   H889      1.0  0.62985  0.02118  0.04789  1.0000
  H   H890      1.0  0.73883  0.71097  0.16044  1.0000
  H   H891      1.0  0.97325  0.94053  0.03157  1.0000
  H   H892      1.0  0.86512  0.73883  0.02719  1.0000
  H   H893      1.0  0.63526  0.93971  0.07763  1.0000
  H   H894      1.0  0.66871  0.74169  0.50065  1.0000
  H   H895      1.0  0.88927  0.84929  0.49069  1.0000
  C   C504      1.0  0.95081  0.88960  0.05794  1.0000
  C   C505      1.0  0.53427  0.78490  0.03204  1.0000
  H   H896      1.0  0.60175  0.72468  0.02104  1.0000
  C   C506      1.0  0.60468  0.00299  0.04088  1.0000
  H   H897      1.0  0.92087  0.89836  0.05235  1.0000
  H   H898      1.0  0.56657  0.69369  0.45115  1.0000
  H   H899      1.0  0.53834  0.87515  0.06745  1.0000
  C   C507      1.0  0.53503  0.69449  0.45645  1.0000
  H   H900      1.0  0.57929  0.00398  0.09951  1.0000
  H   H901      1.0  0.74676  0.69196  0.11273  1.0000
  H   H902      1.0  0.53745  0.83231  0.44454  1.0000
  H   H903      1.0  0.95041  0.83937  0.50976  1.0000
  Fe  Fe57      1.0  0.65418  0.80918  0.59406  1.0000
  S   S112      1.0  0.68427  0.84595  0.63710  1.0000
  S   S113      1.0  0.67141  0.74733  0.58789  1.0000
  Fe  Fe58      1.0  0.60039  0.87380  0.56842  1.0000
  S   S114      1.0  0.62702  0.91474  0.60976  1.0000
  C   C508      1.0  0.71681  0.99519  0.83728  1.0000
  Fe  Fe59      1.0  0.68368  0.88975  0.59103  1.0000
  S   S115      1.0  0.73894  0.92131  0.57847  1.0000
  Fe  Fe60      1.0  0.62532  0.86751  0.65214  1.0000
  S   S116      1.0  0.60463  0.88357  0.71176  1.0000
  S   S117      1.0  0.65754  0.85153  0.54640  1.0000
  S   S118      1.0  0.59433  0.82751  0.61224  1.0000
  H   H904      1.0  0.68107  0.76368  0.67077  1.0000
  Fe  Fe61      1.0  0.70315  0.88692  0.90927  1.0000
  S   S119      1.0  0.66333  0.93541  0.92282  1.0000
  S   S120      1.0  0.71677  0.85894  0.85200  1.0000
  H   H905      1.0  0.82450  0.91685  0.81028  1.0000
  H   H906      1.0  0.83827  0.75383  0.67488  1.0000
  Fe  Fe62      1.0  0.65000  0.90425  0.97782  1.0000
  Fe  Fe63      1.0  0.71418  0.96058  0.95416  1.0000
  H   H907      1.0  0.88296  0.84610  0.86054  1.0000
  S   S121      1.0  0.68556  0.85369  0.96142  1.0000
  S   S122      1.0  0.75456  0.91385  0.93709  1.0000
  H   H908      1.0  0.87218  0.72609  0.70193  1.0000
  C   C509      1.0  0.72917  0.97953  0.79796  1.0000
  H   H909      1.0  0.85770  0.81791  0.56798  1.0000
  N   N30       1.0  0.88987  0.88730  0.54002  1.0000
  H   H910      1.0  0.69078  0.98015  0.84795  1.0000
  C   C510      1.0  0.89191  0.92024  0.51288  1.0000
  C   C511      1.0  0.69635  0.98278  0.76812  1.0000
  H   H911      1.0  0.78333  0.70269  0.79346  1.0000
  C   C512      1.0  0.86377  0.89576  0.57402  1.0000
  H   H912      1.0  0.81317  0.93633  0.62039  1.0000
  C   C513      1.0  0.53041  0.93607  0.52872  1.0000
  H   H913      1.0  0.81122  0.87548  0.86570  1.0000
  C   C514      1.0  0.98735  0.75551  0.00695  1.0000
  C   C515      1.0  0.67231  0.97294  0.70257  1.0000
  H   H914      1.0  0.90744  0.94442  0.52637  1.0000
  H   H915      1.0  0.78862  0.00028  0.99735  1.0000
  C   C516      1.0  0.73402  0.00773  0.71118  1.0000
  H   H916      1.0  0.98308  0.77706  0.98557  1.0000
  C   C517      1.0  0.68507  0.86579  0.81352  1.0000
  C   C518      1.0  0.69358  0.84901  0.77774  1.0000
  C   C519      1.0  0.66893  0.85414  0.74641  1.0000
  C   C520      1.0  0.63564  0.87600  0.75070  1.0000
  C   C521      1.0  0.62708  0.89268  0.78651  1.0000
  C   C522      1.0  0.65181  0.88772  0.81784  1.0000
  H   H917      1.0  0.71927  0.83201  0.77426  1.0000
  H   H918      1.0  0.67561  0.84121  0.71898  1.0000
  H   H919      1.0  0.60124  0.90949  0.79002  1.0000
  H   H920      1.0  0.64491  0.90055  0.84536  1.0000
  C   C523      1.0  0.72091  0.73631  0.59324  1.0000
  C   C524      1.0  0.74896  0.76464  0.59602  1.0000
  C   C525      1.0  0.78813  0.75497  0.59970  1.0000
  C   C526      1.0  0.79972  0.71694  0.60033  1.0000
  H   H921      1.0  0.72657  0.77564  0.89295  1.0000
  H   H922      1.0  0.54460  0.71260  0.61190  1.0000
  H   H923      1.0  0.74059  0.79403  0.59485  1.0000
  H   H924      1.0  0.80956  0.77706  0.60169  1.0000
  H   H925      1.0  0.84779  0.96681  0.64307  1.0000
  C   C527      1.0  0.65799  0.71373  0.99527  1.0000
  C   C528      1.0  0.73573  0.97074  0.58243  1.0000
  H   H926      1.0  0.85780  0.84955  0.99324  1.0000
  H   H927      1.0  0.92443  0.72297  0.91072  1.0000
  C   C529      1.0  0.70175  0.98791  0.59529  1.0000
  H   H928      1.0  0.71333  0.70148  0.67708  1.0000
  C   C530      1.0  0.57831  0.82423  0.99414  1.0000
  N   N31       1.0  0.84133  0.80541  0.88219  1.0000
  C   C531      1.0  0.87433  0.81561  0.54072  1.0000
  C   C532      1.0  0.86911  0.77273  0.88505  1.0000
  C   C533      1.0  0.80335  0.78960  0.86831  1.0000
  C   C534      1.0  0.83510  0.82453  0.92095  1.0000
  H   H929      1.0  0.95101  0.71459  0.97804  1.0000
  C   C535      1.0  0.63939  0.69632  0.95960  1.0000
  C   C536      1.0  0.78629  0.75646  0.89169  1.0000
  C   C537      1.0  0.91028  0.78191  0.89905  1.0000
  C   C538      1.0  0.93651  0.74738  0.89476  1.0000
  H   H930      1.0  0.71480  0.91730  0.66669  1.0000
  H   H931      1.0  0.01026  0.88354  0.55706  1.0000
  C   C539      1.0  0.74353  0.75065  0.88311  1.0000
  H   H932      1.0  0.75182  0.86761  0.70009  1.0000
  H   H933      1.0  0.87711  0.89470  0.97933  1.0000
  H   H934      1.0  0.85824  0.75128  0.90564  1.0000
  H   H935      1.0  0.87144  0.75785  0.85668  1.0000
  H   H936      1.0  0.80595  0.77953  0.83790  1.0000
  H   H937      1.0  0.78109  0.81218  0.86836  1.0000
  H   H938      1.0  0.66027  0.69675  0.93523  1.0000
  H   H939      1.0  0.83682  0.80336  0.94439  1.0000
  C   C540      1.0  0.87078  0.93401  0.59506  1.0000
  S   S123      1.0  0.55358  0.89122  0.52617  1.0000
  C   C541      1.0  0.85552  0.87262  0.97211  1.0000
  H   H940      1.0  0.90071  0.93590  0.60576  1.0000
  H   H941      1.0  0.78960  0.76169  0.92284  1.0000
  H   H942      1.0  0.80156  0.72980  0.88412  1.0000
  H   H943      1.0  0.54925  0.94991  0.58589  1.0000
  C   C542      1.0  0.73257  0.71018  0.73681  1.0000
  H   H944      1.0  0.59781  0.82714  0.96994  1.0000
  H   H945      1.0  0.75622  0.94799  0.66674  1.0000
  H   H946      1.0  0.94229  0.90582  0.56770  1.0000
  H   H947      1.0  0.74594  0.74068  0.68316  1.0000
  C   C543      1.0  0.74078  0.92571  0.68298  1.0000
  H   H948      1.0  0.76493  0.00107  0.71627  1.0000
  H   H949      1.0  0.59370  0.00758  0.54368  1.0000
  C   C544      1.0  0.95990  0.86576  0.52427  1.0000
  H   H950      1.0  0.59326  0.71005  0.62957  1.0000
  H   H951      1.0  0.74032  0.99100  0.85831  1.0000
  H   H952      1.0  0.73910  0.74621  0.85180  1.0000
  H   H953      1.0  0.73267  0.72541  0.89854  1.0000
  H   H954      1.0  0.67405  0.96155  0.77640  1.0000
  H   H955      1.0  0.00704  0.01033  0.62755  1.0000
  H   H956      1.0  0.69439  0.77616  0.71912  1.0000
  H   H957      1.0  0.60749  0.76504  0.52771  1.0000
  H   H958      1.0  0.80450  0.85134  0.82072  1.0000
  H   H959      1.0  0.59314  0.97386  0.69160  1.0000
  H   H960      1.0  0.61602  0.99162  0.64843  1.0000
  H   H961      1.0  0.86207  0.77435  0.71589  1.0000
  H   H962      1.0  0.73161  0.00905  0.67925  1.0000
  C   C545      1.0  0.85569  0.83227  0.85181  1.0000
  H   H963      1.0  0.85795  0.88213  0.91188  1.0000
  C   C546      1.0  0.81643  0.73476  0.73028  1.0000
  H   H964      1.0  0.83287  0.89465  0.56556  1.0000
  C   C547      1.0  0.68754  0.75217  0.69955  1.0000
  C   C548      1.0  0.75769  0.78838  0.99502  1.0000
  H   H965      1.0  0.73676  0.94930  0.80201  1.0000
  C   C549      1.0  0.84925  0.74795  0.70411  1.0000
  C   C550      1.0  0.75642  0.74878  0.99270  1.0000
  S   S124      1.0  0.84940  0.70595  0.60433  1.0000
  H   H966      1.0  0.68205  0.01045  0.77263  1.0000
  H   H967      1.0  0.73892  0.73500  0.75567  1.0000
  H   H968      1.0  0.79413  0.89768  0.69927  1.0000
  H   H969      1.0  0.54662  0.76890  0.54675  1.0000
  H   H970      1.0  0.82647  0.88548  0.97453  1.0000
  H   H971      1.0  0.56540  0.76582  0.98161  1.0000
  C   C551      1.0  0.84642  0.89581  0.81901  1.0000
  C   C552      1.0  0.72959  0.93971  0.72397  1.0000
  H   H972      1.0  0.67735  0.97104  0.60297  1.0000
  C   C553      1.0  0.76668  0.89084  0.68459  1.0000
  H   H973      1.0  0.82824  0.73225  0.75969  1.0000
  H   H974      1.0  0.79413  0.75716  0.73053  1.0000
  C   C554      1.0  0.97611  0.01063  0.53749  1.0000
  H   H975      1.0  0.84951  0.91658  0.65132  1.0000
  H   H976      1.0  0.67987  0.96734  0.67203  1.0000
  H   H977      1.0  0.55839  0.97299  0.99035  1.0000
  H   H978      1.0  0.74789  0.80492  0.97116  1.0000
  H   H979      1.0  0.71236  0.91700  0.73778  1.0000
  H   H980      1.0  0.92373  0.80515  0.88260  1.0000
  H   H981      1.0  0.90415  0.80688  0.54759  1.0000
  H   H982      1.0  0.86145  0.88500  0.79281  1.0000
  H   H983      1.0  0.93984  0.73917  0.86399  1.0000
  H   H984      1.0  0.96155  0.01724  0.68094  1.0000
  H   H985      1.0  0.86751  0.91024  0.83803  1.0000
  C   C555      1.0  0.86259  0.85788  0.93126  1.0000
  C   C556      1.0  0.76746  0.99329  0.57264  1.0000
  N   N32       1.0  0.70817  0.97684  0.72658  1.0000
  H   H986      1.0  0.79388  0.98029  0.56261  1.0000
  H   H987      1.0  0.96543  0.75397  0.90652  1.0000
  H   H988      1.0  0.70590  0.69757  0.74925  1.0000
  C   C557      1.0  0.60863  0.99832  0.67886  1.0000
  C   C558      1.0  0.82659  0.86351  0.84025  1.0000
  H   H989      1.0  0.77337  0.88088  0.65488  1.0000
  C   C559      1.0  0.84363  0.93856  0.62960  1.0000
  H   H990      1.0  0.86667  0.87343  0.59609  1.0000
  H   H991      1.0  0.86336  0.81634  0.82500  1.0000
  H   H992      1.0  0.74422  0.73492  0.96782  1.0000
  H   H993      1.0  0.90944  0.78951  0.93009  1.0000
  C   C560      1.0  0.72166  0.72504  0.69656  1.0000
  H   H994      1.0  0.75700  0.94144  0.74023  1.0000
  H   H995      1.0  0.86549  0.95821  0.57577  1.0000
  H   H996      1.0  0.62272  0.94189  0.53055  1.0000
  H   H997      1.0  0.83116  0.93890  0.52045  1.0000
  H   H998      1.0  0.80533  0.83621  0.92345  1.0000
  Fe  Fe64      1.0  0.73374  0.88478  0.99033  1.0000
  C   C561      1.0  0.80009  0.69623  0.71626  1.0000
  H   H999      1.0  0.66999  0.95961  0.51772  1.0000
  H   H1000     1.0  0.92905  0.85882  0.57842  1.0000
  H   H1001     1.0  0.65525  0.94805  0.71224  1.0000
  H   H1002     1.0  0.89324  0.84978  0.92880  1.0000
  H   H1003     1.0  0.75544  0.99477  0.78836  1.0000
  C   C562      1.0  0.92991  0.87967  0.55468  1.0000
  C   C563      1.0  0.64503  0.00747  0.70162  1.0000
  H   H1004     1.0  0.61349  0.71273  0.95140  1.0000
  H   H1005     1.0  0.59222  0.00008  0.94283  1.0000
  H   H1006     1.0  0.79440  0.69793  0.68485  1.0000
  C   C564      1.0  0.55989  0.78940  0.00088  1.0000
  H   H1007     1.0  0.89169  0.00431  0.69165  1.0000
  C   C565      1.0  0.53314  0.95935  0.56133  1.0000
  C   C566      1.0  0.94241  0.01456  0.55992  1.0000
  S   S125      1.0  0.99584  0.96474  0.52984  1.0000
  H   H1008     1.0  0.53906  0.70924  0.51714  1.0000
  H   H1009     1.0  0.92983  0.98998  0.57307  1.0000
  C   C567      1.0  0.96887  0.72023  0.00274  1.0000
  H   H1010     1.0  0.90231  0.76578  0.00346  1.0000
  C   C568      1.0  0.73242  0.69833  0.59476  1.0000
  C   C569      1.0  0.99874  0.85766  0.54288  1.0000
  H   H1011     1.0  0.99589  0.83486  0.56443  1.0000
  H   H1012     1.0  0.66145  0.73736  0.71038  1.0000
  H   H1013     1.0  0.63578  0.01635  0.73089  1.0000
  C   C570      1.0  0.52850  0.78193  0.52434  1.0000
  H   H1014     1.0  0.63746  0.00454  0.96747  1.0000
  H   H1015     1.0  0.58464  0.72310  0.58043  1.0000
  H   H1016     1.0  0.66683  0.74290  0.98781  1.0000
  C   C571      1.0  0.61668  0.01974  0.52507  1.0000
  H   H1017     1.0  0.53873  0.81168  0.52282  1.0000
  H   H1018     1.0  0.64312  0.01978  0.54286  1.0000
  H   H1019     1.0  0.58900  0.02308  0.67940  1.0000
  H   H1020     1.0  0.68427  0.69710  0.00126  1.0000
  C   C572      1.0  0.57470  0.70477  0.60419  1.0000
  S   S126      1.0  0.72857  0.02266  0.94372  1.0000
  H   H1021     1.0  0.85744  0.75696  0.53315  1.0000
  C   C573      1.0  0.87389  0.85354  0.51863  1.0000
  C   C574      1.0  0.85619  0.78382  0.51692  1.0000
  H   H1022     1.0  0.01984  0.84843  0.52049  1.0000
  S   S127      1.0  0.59212  0.90016  0.00915  1.0000
  C   C575      1.0  0.61294  0.02050  0.95541  1.0000
  C   C576      1.0  0.54456  0.99767  0.00500  1.0000
  H   H1023     1.0  0.82546  0.79014  0.51103  1.0000
  S   S128      1.0  0.69741  0.93380  0.01023  1.0000
  H   H1024     1.0  0.84334  0.85877  0.51074  1.0000
