data_image0
_chemical_formula_structural       FeS2FeH2FeCFeS4C6H4CHCNHC3H3NC5HC4HCH4CH20CH4CHFeH2CH2CHC3HC2HC2H5SH3CH4CH2CSCH3CH5CH5NH3CH4SFeSHFeS2FeSFeS3CHC4H4C4H3C6H5C3HC4HCH15C2HC2H3CHC2NH7CHCHC2HCH3CHCH7C4HCHCNHCH3C2H2CNH3CH5C2HCH7C3HCH3FeS2FeS2FeSFeS3FeS2FeH2FeH2SH2C6H4C7H3C3HCH4C2H3CHCH6C4H3CH2CHCH3CHCHCH4CHCH9SH4NCH2CHCS2H7SH3C2HNCH3C2H2CHCSH2CH4CH7C2HFeS2C2HFeSFeCS3HC8H4CHSC2FeH2CH3CH2C2H3CHC2HSNH5CH2C2HCH10CH3C2H18CH3CFeH2NCHCH3CH5CH3CHC3HC4H4CHFeS2FeSHFeSFeCS2C3H2CHCH3C3H4C4H2CNCHCHNHC2HCH2CH3C2H2CHNH2CH3CH2C2HC2H9CH2CH2CH3C3H2CH2CH6CHCHSHCHSHC3HCH4C2H3SCH2CH3CH2SH2C2HC2HSCHFeSHFeSFeSCHFeS2FeS2FeSFeS3C6HCHCNSC6H7NC9H25CH2CH6CH2C2H2C6HCHC2HCH5CH4NH2CHSH3CH3C2HCH2CH5CHCH8C3HC2HCHCH4FeHSFeCHSFeS2FeS2FeSFeS3C2H2C4HCHCH4C3H3C6H4C2NC2HC7H22SCFeCH9C5HCH5CH2CH2CH4CN2C3H3CH2CHCH11CNCH2CH6CH2CH2CH2C3H2CH5CHCHCH2CFeS2FeS2FeSFeHS2CH3C3H2CHC9H3C6HCH10SHCH3CH6CHCHCH2CH3NCH3CSCH6CSH2CHCH10CH5NC10HCH12CH4SHCH2CHCHC2H3NCH3CH3FeS2HCH2FeS3HFeSH2C7H7C2HC2H2C2HCHCHCH6CH2SC2HCHNC2H4NHCH2SCHCFeHCHFeCH2SH4C2H5CH4CHCH7C2HCH8FeS2FeS2FeSFeS3CHFeHSFeHSH2C6H4C6H8CSHCH2CHCHCHCH4CHCHNC6H2FeC3H2C2H8CH5CH7NH2CH2CHNHCH4C2H4C2H4CHCHCH3SHCH4CH6CSFeSHFeS2FeHFeS3HSCH2C3HC3H2C6H3CHC4H3C2SH2SH3CH6CH4CHCH3CH2CHCH3CSH3NHCH2CH3C2NC11H16CH5SH3CH2C2HCH3FeH3SHFeSHCFeSHS2FeSHSC6H4C3NH3CHCH2CH5CH3CHCH6CHFeHCSH7C3NC2HC3HC2HCH6CH10CH3CHCH2CSH2C2
_chemical_formula_sum              "Fe64 S128 H1024 C576 N32"
_cell_length_a       36.6327
_cell_length_b       40.5158
_cell_length_c       41.9986
_cell_angle_alpha    89.9651
_cell_angle_beta     89.9308
_cell_angle_gamma    89.8201

_space_group_name_H-M_alt    "P 1"
_space_group_IT_number       1

loop_
  _space_group_symop_operation_xyz
  'x, y, z'

loop_
  _atom_site_type_symbol
  _atom_site_label
  _atom_site_symmetry_multiplicity
  _atom_site_fract_x
  _atom_site_fract_y
  _atom_site_fract_z
  _atom_site_occupancy
  Fe  Fe1       1.0  0.35457  0.14480  0.22160  1.0000
  S   S1        1.0  0.37743  0.18915  0.24680  1.0000
  S   S2        1.0  0.34759  0.15518  0.16806  1.0000
  Fe  Fe2       1.0  0.35577  0.10495  0.28426  1.0000
  H   H1        1.0  0.42718  0.17982  0.14196  1.0000
  H   H2        1.0  0.41523  0.02927  0.10995  1.0000
  Fe  Fe3       1.0  0.33776  0.17935  0.28687  1.0000
  C   C1        1.0  0.45892  0.06457  0.11061  1.0000
  Fe  Fe4       1.0  0.41582  0.15420  0.27090  1.0000
  S   S3        1.0  0.47649  0.16309  0.27773  1.0000
  S   S4        1.0  0.31227  0.13638  0.26017  1.0000
  S   S5        1.0  0.39573  0.11071  0.24359  1.0000
  S   S6        1.0  0.34210  0.06128  0.04489  1.0000
  C   C2        1.0  0.34639  0.12848  0.13419  1.0000
  C   C3        1.0  0.34892  0.14228  0.10345  1.0000
  C   C4        1.0  0.34813  0.12224  0.07591  1.0000
  C   C5        1.0  0.34382  0.08806  0.07867  1.0000
  C   C6        1.0  0.34085  0.07429  0.10941  1.0000
  C   C7        1.0  0.34239  0.09426  0.13697  1.0000
  H   H3        1.0  0.35148  0.16869  0.10078  1.0000
  H   H4        1.0  0.35026  0.13328  0.05252  1.0000
  H   H5        1.0  0.33732  0.04792  0.11190  1.0000
  H   H6        1.0  0.34010  0.08318  0.16033  1.0000
  C   C8        1.0  0.47670  0.03370  0.04760  1.0000
  H   H7        1.0  0.46258  0.14353  0.21222  1.0000
  C   C9        1.0  0.39139  0.98119  0.06817  1.0000
  N   N1        1.0  0.44970  0.01734  0.06964  1.0000
  H   H8        1.0  0.49344  0.00326  0.10141  1.0000
  C   C10       1.0  0.43792  0.25068  0.28688  1.0000
  C   C11       1.0  0.25101  0.13273  0.17399  1.0000
  C   C12       1.0  0.46151  0.06266  0.02727  1.0000
  H   H9        1.0  0.44692  0.26170  0.30975  1.0000
  H   H10       1.0  0.17389  0.22184  0.28342  1.0000
  H   H11       1.0  0.47725  0.04968  0.12597  1.0000
  N   N2        1.0  0.25269  0.22146  0.21058  1.0000
  C   C13       1.0  0.26629  0.18922  0.19694  1.0000
  C   C14       1.0  0.28508  0.24348  0.21695  1.0000
  C   C15       1.0  0.23509  0.21413  0.24242  1.0000
  C   C16       1.0  0.22505  0.23847  0.18941  1.0000
  C   C17       1.0  0.22911  0.23345  0.15287  1.0000
  H   H12       1.0  0.39134  0.20635  0.12750  1.0000
  C   C18       1.0  0.22204  0.24452  0.26199  1.0000
  C   C19       1.0  0.30892  0.25316  0.18800  1.0000
  C   C20       1.0  0.34254  0.27246  0.19871  1.0000
  C   C21       1.0  0.20381  0.25664  0.13446  1.0000
  H   H13       1.0  0.45742  0.10348  0.14614  1.0000
  C   C22       1.0  0.27691  0.99394  0.27620  1.0000
  H   H14       1.0  0.28965  0.17987  0.21122  1.0000
  H   H15       1.0  0.27787  0.19258  0.17277  1.0000
  H   H16       1.0  0.27618  0.26729  0.22759  1.0000
  H   H17       1.0  0.30331  0.23159  0.23487  1.0000
  C   C23       1.0  0.46688  0.22979  0.17278  1.0000
  H   H18       1.0  0.43583  0.33377  0.14908  1.0000
  H   H19       1.0  0.19686  0.23011  0.19528  1.0000
  H   H20       1.0  0.22492  0.26552  0.19425  1.0000
  H   H21       1.0  0.22172  0.20782  0.14621  1.0000
  H   H22       1.0  0.25728  0.23770  0.14440  1.0000
  H   H23       1.0  0.48051  0.09969  0.99392  1.0000
  H   H24       1.0  0.21122  0.17003  0.18608  1.0000
  H   H25       1.0  0.20490  0.26130  0.24738  1.0000
  H   H26       1.0  0.41710  0.25405  0.15476  1.0000
  H   H27       1.0  0.31883  0.23124  0.17472  1.0000
  H   H28       1.0  0.29328  0.26958  0.17185  1.0000
  H   H29       1.0  0.35897  0.27963  0.17760  1.0000
  H   H30       1.0  0.33430  0.29525  0.21161  1.0000
  H   H31       1.0  0.35974  0.25705  0.21464  1.0000
  H   H32       1.0  0.20661  0.25193  0.10851  1.0000
  H   H33       1.0  0.17489  0.25244  0.14135  1.0000
  H   H34       1.0  0.21106  0.28281  0.13911  1.0000
  H   H35       1.0  0.43746  0.21267  0.11401  1.0000
  H   H36       1.0  0.40845  0.22068  0.18232  1.0000
  H   H37       1.0  0.44680  0.08126  0.04179  1.0000
  C   C24       1.0  0.48307  0.30352  0.16177  1.0000
  H   H38       1.0  0.41085  0.26129  0.28062  1.0000
  H   H39       1.0  0.45625  0.21519  0.23167  1.0000
  H   H40       1.0  0.41282  0.05819  0.07879  1.0000
  H   H41       1.0  0.25629  0.14160  0.14937  1.0000
  C   C25       1.0  0.43231  0.04208  0.09187  1.0000
  H   H42       1.0  0.27650  0.12175  0.18372  1.0000
  Fe  Fe5       1.0  0.35250  0.06537  0.99069  1.0000
  H   H43       1.0  0.34846  0.98529  0.03245  1.0000
  H   H44       1.0  0.45188  0.98264  0.10894  1.0000
  C   C26       1.0  0.42043  0.20555  0.13479  1.0000
  H   H45       1.0  0.22992  0.11314  0.17299  1.0000
  H   H46       1.0  0.47778  0.08465  0.26209  1.0000
  C   C27       1.0  0.19965  0.23390  0.29096  1.0000
  H   H47       1.0  0.48768  0.01556  0.03017  1.0000
  C   C28       1.0  0.49226  0.08058  0.00993  1.0000
  C   C29       1.0  0.43798  0.08849  0.13208  1.0000
  C   C30       1.0  0.46961  0.99185  0.08932  1.0000
  H   H48       1.0  0.43604  0.29093  0.19077  1.0000
  C   C31       1.0  0.46540  0.33684  0.15413  1.0000
  C   C32       1.0  0.42623  0.22923  0.16260  1.0000
  H   H49       1.0  0.44249  0.05310  0.00892  1.0000
  C   C33       1.0  0.23781  0.16097  0.19525  1.0000
  C   C34       1.0  0.42014  0.00180  0.04976  1.0000
  H   H50       1.0  0.42104  0.10551  0.11748  1.0000
  H   H51       1.0  0.14598  0.44912  0.07877  1.0000
  H   H52       1.0  0.40462  0.02115  0.03679  1.0000
  H   H53       1.0  0.24566  0.25865  0.27114  1.0000
  H   H54       1.0  0.47942  0.28754  0.14064  1.0000
  S   S7        1.0  0.31110  0.22859  0.30325  1.0000
  H   H55       1.0  0.43213  0.98611  0.03073  1.0000
  H   H56       1.0  0.25420  0.19971  0.25781  1.0000
  H   H57       1.0  0.24721  0.98871  0.27500  1.0000
  C   C35       1.0  0.01051  0.46064  0.98469  1.0000
  H   H58       1.0  0.21056  0.19837  0.23921  1.0000
  H   H59       1.0  0.42529  0.24825  0.22515  1.0000
  H   H60       1.0  0.42011  0.07489  0.14895  1.0000
  H   H61       1.0  0.46862  0.28521  0.25930  1.0000
  C   C36       1.0  0.46603  0.25806  0.26089  1.0000
  H   H62       1.0  0.37577  0.99703  0.08492  1.0000
  H   H63       1.0  0.21558  0.21652  0.30603  1.0000
  C   C37       1.0  0.04813  0.46364  0.99017  1.0000
  S   S8        1.0  0.35567  0.05073  0.29953  1.0000
  C   C38       1.0  0.45471  0.24248  0.22853  1.0000
  H   H64       1.0  0.23328  0.15050  0.21940  1.0000
  H   H65       1.0  0.14828  0.37822  0.98435  1.0000
  H   H66       1.0  0.28195  0.01284  0.29486  1.0000
  C   C39       1.0  0.46625  0.28825  0.19217  1.0000
  H   H67       1.0  0.47858  0.34771  0.13273  1.0000
  H   H68       1.0  0.28581  0.00426  0.25295  1.0000
  H   H69       1.0  0.06236  0.44425  0.00285  1.0000
  H   H70       1.0  0.47586  0.07969  0.09430  1.0000
  H   H71       1.0  0.48104  0.04419  0.24456  1.0000
  C   C40       1.0  0.49136  0.14878  0.21476  1.0000
  H   H72       1.0  0.46882  0.35429  0.17432  1.0000
  H   H73       1.0  0.49264  0.24782  0.26893  1.0000
  H   H74       1.0  0.43502  0.22366  0.29041  1.0000
  H   H75       1.0  0.47446  0.30484  0.21192  1.0000
  H   H76       1.0  0.48292  0.23513  0.15100  1.0000
  N   N3        1.0  0.47652  0.25297  0.19963  1.0000
  H   H77       1.0  0.19272  0.25588  0.30563  1.0000
  H   H78       1.0  0.13188  0.41996  0.98894  1.0000
  H   H79       1.0  0.47464  0.20414  0.17939  1.0000
  C   C41       1.0  0.49683  0.06652  0.25112  1.0000
  H   H80       1.0  0.10110  0.47342  0.04227  1.0000
  H   H81       1.0  0.43389  0.08628  0.31182  1.0000
  H   H82       1.0  0.50101  0.04238  0.06103  1.0000
  H   H83       1.0  0.29016  0.29662  0.31270  1.0000
  S   S9        1.0  0.37855  0.14716  0.31300  1.0000
  Fe  Fe6       1.0  0.19837  0.42759  0.43332  1.0000
  S   S10       1.0  0.16501  0.39579  0.40051  1.0000
  H   H84       1.0  0.25263  0.31624  0.46667  1.0000
  Fe  Fe7       1.0  0.18006  0.38547  0.49299  1.0000
  S   S11       1.0  0.14460  0.35184  0.46387  1.0000
  S   S12       1.0  0.18434  0.38833  0.54751  1.0000
  Fe  Fe8       1.0  0.19024  0.35252  0.42699  1.0000
  S   S13       1.0  0.21059  0.30134  0.40890  1.0000
  Fe  Fe9       1.0  0.12314  0.39812  0.44009  1.0000
  S   S14       1.0  0.06260  0.41025  0.43252  1.0000
  S   S15       1.0  0.22639  0.38475  0.45765  1.0000
  S   S16       1.0  0.15565  0.43126  0.47130  1.0000
  C   C42       1.0  0.33483  0.99567  0.39377  1.0000
  H   H85       1.0  0.49502  0.07795  0.50651  1.0000
  C   C43       1.0  0.48504  0.00589  0.39631  1.0000
  C   C44       1.0  0.00503  0.45408  0.43651  1.0000
  C   C45       1.0  0.32270  0.04307  0.35890  1.0000
  C   C46       1.0  0.31537  0.02480  0.38682  1.0000
  H   H86       1.0  0.30703  0.06506  0.35356  1.0000
  H   H87       1.0  0.29415  0.03307  0.40292  1.0000
  H   H88       1.0  0.33383  0.27248  0.44693  1.0000
  H   H89       1.0  0.33285  0.25167  0.51735  1.0000
  C   C47       1.0  0.23901  0.28187  0.37933  1.0000
  C   C48       1.0  0.24527  0.24752  0.38117  1.0000
  C   C49       1.0  0.26753  0.23088  0.35862  1.0000
  C   C50       1.0  0.25569  0.29933  0.35447  1.0000
  H   H90       1.0  0.23262  0.23359  0.40016  1.0000
  H   H91       1.0  0.29315  0.31339  0.41558  1.0000
  H   H92       1.0  0.25136  0.32569  0.35256  1.0000
  C   C51       1.0  0.19290  0.36100  0.57994  1.0000
  C   C52       1.0  0.19946  0.32725  0.57573  1.0000
  C   C53       1.0  0.20714  0.30692  0.60227  1.0000
  C   C54       1.0  0.12662  0.27002  0.64545  1.0000
  C   C55       1.0  0.34896  0.03186  0.33721  1.0000
  C   C56       1.0  0.19254  0.37378  0.61110  1.0000
  H   H93       1.0  0.19870  0.31695  0.55206  1.0000
  H   H94       1.0  0.21292  0.28099  0.59870  1.0000
  H   H95       1.0  0.31999  0.35601  0.56983  1.0000
  H   H96       1.0  0.18724  0.39980  0.61471  1.0000
  H   H97       1.0  0.43788  0.04259  0.35246  1.0000
  C   C57       1.0  0.04270  0.44942  0.44123  1.0000
  C   C58       1.0  0.28390  0.24830  0.33357  1.0000
  C   C59       1.0  0.27780  0.28268  0.33184  1.0000
  H   H98       1.0  0.24508  0.29529  0.52147  1.0000
  C   C60       1.0  0.27031  0.29512  0.47383  1.0000
  C   C61       1.0  0.24975  0.27790  0.50160  1.0000
  C   C62       1.0  0.21232  0.26570  0.49082  1.0000
  C   C63       1.0  0.36849  0.00286  0.34425  1.0000
  H   H99       1.0  0.26987  0.27806  0.45303  1.0000
  C   C64       1.0  0.33364  0.24748  0.49130  1.0000
  H   H100      1.0  0.01287  0.41861  0.50454  1.0000
  H   H101      1.0  0.21519  0.24755  0.47114  1.0000
  H   H102      1.0  0.19807  0.25364  0.51105  1.0000
  H   H103      1.0  0.19527  0.28673  0.48246  1.0000
  H   H104      1.0  0.34408  0.34669  0.46466  1.0000
  H   H105      1.0  0.12362  0.33570  0.53713  1.0000
  H   H106      1.0  0.12947  0.32347  0.61269  1.0000
  H   H107      1.0  0.27578  0.37553  0.56674  1.0000
  H   H108      1.0  0.30791  0.29787  0.53119  1.0000
  H   H109      1.0  0.33771  0.37735  0.40903  1.0000
  H   H110      1.0  0.30890  0.23376  0.48385  1.0000
  H   H111      1.0  0.07955  0.25254  0.62111  1.0000
  H   H112      1.0  0.34216  0.31583  0.41522  1.0000
  H   H113      1.0  0.04038  0.45413  0.56516  1.0000
  H   H114      1.0  0.46762  0.03987  0.46560  1.0000
  C   C65       1.0  0.29253  0.34909  0.52423  1.0000
  C   C66       1.0  0.31466  0.36075  0.40299  1.0000
  H   H115      1.0  0.08070  0.42697  0.50647  1.0000
  C   C67       1.0  0.33634  0.28010  0.47228  1.0000
  C   C68       1.0  0.04171  0.29858  0.59986  1.0000
  H   H116      1.0  0.38663  0.05283  0.40952  1.0000
  H   H117      1.0  0.49926  0.05668  0.43865  1.0000
  H   H118      1.0  0.29683  0.35591  0.46286  1.0000
  C   C69       1.0  0.06283  0.33126  0.64547  1.0000
  H   H119      1.0  0.26394  0.34825  0.51561  1.0000
  C   C70       1.0  0.09563  0.35113  0.58051  1.0000
  C   C71       1.0  0.40544  0.05920  0.42936  1.0000
  N   N4        1.0  0.07415  0.30609  0.62083  1.0000
  H   H120      1.0  0.49171  0.12197  0.50089  1.0000
  H   H121      1.0  0.01046  0.46169  0.50928  1.0000
  H   H122      1.0  0.34351  0.03644  0.48904  1.0000
  H   H123      1.0  0.39213  0.23700  0.49217  1.0000
  H   H124      1.0  0.28843  0.37378  0.40756  1.0000
  H   H125      1.0  0.35447  0.07793  0.47670  1.0000
  H   H126      1.0  0.27877  0.33154  0.57194  1.0000
  C   C72       1.0  0.46661  0.09323  0.46322  1.0000
  H   H127      1.0  0.33387  0.04933  0.44898  1.0000
  C   C73       1.0  0.44779  0.01667  0.41049  1.0000
  H   H128      1.0  0.27163  0.20451  0.36045  1.0000
  C   C74       1.0  0.29186  0.35316  0.56041  1.0000
  C   C75       1.0  0.10402  0.31874  0.59931  1.0000
  H   H129      1.0  0.09216  0.47272  0.45703  1.0000
  C   C76       1.0  0.04243  0.43616  0.54535  1.0000
  H   H130      1.0  0.44699  0.11698  0.34069  1.0000
  H   H131      1.0  0.38874  0.99388  0.32757  1.0000
  H   H132      1.0  0.06924  0.36272  0.58666  1.0000
  C   C77       1.0  0.31672  0.32885  0.42237  1.0000
  H   H133      1.0  0.30542  0.37158  0.51412  1.0000
  C   C78       1.0  0.31447  0.31786  0.51411  1.0000
  H   H134      1.0  0.09256  0.36961  0.53198  1.0000
  H   H135      1.0  0.05005  0.28127  0.58049  1.0000
  H   H136      1.0  0.31603  0.35484  0.37719  1.0000
  H   H137      1.0  0.11648  0.36996  0.58654  1.0000
  H   H138      1.0  0.07484  0.32843  0.53702  1.0000
  H   H139      1.0  0.38933  0.01311  0.45329  1.0000
  H   H140      1.0  0.04924  0.35277  0.63410  1.0000
  C   C79       1.0  0.47044  0.05904  0.44688  1.0000
  C   C80       1.0  0.36637  0.22506  0.48441  1.0000
  C   C81       1.0  0.00889  0.43818  0.52280  1.0000
  C   C82       1.0  0.09664  0.34574  0.54448  1.0000
  H   H141      1.0  0.49424  0.02235  0.37686  1.0000
  C   C83       1.0  0.11093  0.46512  0.37645  1.0000
  H   H142      1.0  0.01549  0.26225  0.63204  1.0000
  C   C84       1.0  0.08574  0.27410  0.63669  1.0000
  N   N5        1.0  0.30884  0.30673  0.48016  1.0000
  H   H143      1.0  0.11230  0.29892  0.58232  1.0000
  C   C85       1.0  0.20710  0.31982  0.63345  1.0000
  H   H144      1.0  0.36455  0.28999  0.47506  1.0000
  H   H145      1.0  0.42584  0.00984  0.39358  1.0000
  H   H146      1.0  0.34386  0.32339  0.51836  1.0000
  C   C86       1.0  0.35352  0.05176  0.46891  1.0000
  C   C87       1.0  0.39142  0.03983  0.45886  1.0000
  H   H147      1.0  0.49921  0.01093  0.50864  1.0000
  H   H148      1.0  0.40960  0.04273  0.47971  1.0000
  C   C88       1.0  0.45422  0.07511  0.39251  1.0000
  N   N6        1.0  0.44447  0.05249  0.41979  1.0000
  H   H149      1.0  0.26497  0.25663  0.51136  1.0000
  H   H150      1.0  0.44323  0.00042  0.43154  1.0000
  H   H151      1.0  0.48419  0.07493  0.38816  1.0000
  C   C89       1.0  0.00797  0.28365  0.61693  1.0000
  H   H152      1.0  0.36808  0.21935  0.45857  1.0000
  H   H153      1.0  0.46941  0.11361  0.44579  1.0000
  H   H154      1.0  0.36331  0.20149  0.49767  1.0000
  H   H155      1.0  0.40481  0.07378  0.36285  1.0000
  H   H156      1.0  0.40098  0.08605  0.43351  1.0000
  C   C90       1.0  0.31698  0.33585  0.45874  1.0000
  C   C91       1.0  0.36188  0.98520  0.37256  1.0000
  H   H157      1.0  0.04505  0.41103  0.55550  1.0000
  C   C92       1.0  0.43442  0.06844  0.36052  1.0000
  H   H158      1.0  0.44772  0.10116  0.39872  1.0000
  H   H159      1.0  0.43973  0.09560  0.47522  1.0000
  H   H160      1.0  0.12113  0.46423  0.40134  1.0000
  H   H161      1.0  0.47854  0.08465  0.32956  1.0000
  H   H162      1.0  0.20496  0.45490  0.35847  1.0000
  H   H163      1.0  0.09226  0.44392  0.37276  1.0000
  H   H164      1.0  0.10164  0.43887  0.54347  1.0000
  C   C93       1.0  0.49602  0.09806  0.48852  1.0000
  C   C94       1.0  0.19922  0.35333  0.63769  1.0000
  C   C95       1.0  0.44946  0.09052  0.33413  1.0000
  H   H165      1.0  0.03161  0.32109  0.58756  1.0000
  C   C96       1.0  0.07790  0.44333  0.52756  1.0000
  H   H166      1.0  0.14339  0.26773  0.62350  1.0000
  H   H167      1.0  0.07858  0.46950  0.51976  1.0000
  H   H168      1.0  0.13432  0.46245  0.35984  1.0000
  Fe  Fe10      1.0  0.20634  0.27165  0.78657  1.0000
  S   S17       1.0  0.24391  0.30642  0.75994  1.0000
  S   S18       1.0  0.21840  0.22822  0.82117  1.0000
  Fe  Fe11      1.0  0.13791  0.30912  0.76230  1.0000
  S   S19       1.0  0.17081  0.34596  0.73498  1.0000
  S   S20       1.0  0.07742  0.32068  0.76359  1.0000
  Fe  Fe12      1.0  0.20401  0.30269  0.71880  1.0000
  S   S21       1.0  0.21750  0.29333  0.66614  1.0000
  Fe  Fe13      1.0  0.20695  0.34718  0.77820  1.0000
  S   S22       1.0  0.22399  0.39850  0.79473  1.0000
  S   S23       1.0  0.16876  0.26514  0.74411  1.0000
  S   S24       1.0  0.17178  0.31316  0.80677  1.0000
  Fe  Fe14      1.0  0.35322  0.10119  0.92521  1.0000
  S   S25       1.0  0.31054  0.07147  0.95139  1.0000
  S   S26       1.0  0.34567  0.14984  0.89645  1.0000
  Fe  Fe15      1.0  0.41415  0.05019  0.94321  1.0000
  H   H169      1.0  0.09404  0.38716  0.95117  1.0000
  H   H170      1.0  0.13305  0.41465  0.86737  1.0000
  Fe  Fe16      1.0  0.33726  0.02698  0.92841  1.0000
  H   H171      1.0  0.09959  0.25484  0.83976  1.0000
  H   H172      1.0  0.37288  0.02640  0.82738  1.0000
  S   S27       1.0  0.37766  0.05676  0.90049  1.0000
  H   H173      1.0  0.06658  0.22404  0.82851  1.0000
  H   H174      1.0  0.30692  0.26740  0.97530  1.0000
  C   C97       1.0  0.25430  0.20476  0.83987  1.0000
  C   C98       1.0  0.24524  0.18065  0.86280  1.0000
  C   C99       1.0  0.27257  0.16286  0.87953  1.0000
  C   C100      1.0  0.30964  0.16922  0.87403  1.0000
  C   C101      1.0  0.31866  0.19327  0.85102  1.0000
  C   C102      1.0  0.29133  0.21047  0.83376  1.0000
  H   H175      1.0  0.21680  0.17578  0.86782  1.0000
  H   H176      1.0  0.26492  0.14464  0.89714  1.0000
  H   H177      1.0  0.34711  0.19842  0.84630  1.0000
  H   H178      1.0  0.29893  0.22821  0.81578  1.0000
  C   C103      1.0  0.21573  0.41610  0.83266  1.0000
  C   C104      1.0  0.21697  0.45061  0.83598  1.0000
  C   C105      1.0  0.11472  0.43088  0.92499  1.0000
  C   C106      1.0  0.21368  0.44582  0.89356  1.0000
  C   C107      1.0  0.21086  0.41137  0.89022  1.0000
  C   C108      1.0  0.21105  0.39660  0.85984  1.0000
  C   C109      1.0  0.28480  0.34218  0.88007  1.0000
  H   H179      1.0  0.16998  0.27736  0.91066  1.0000
  H   H180      1.0  0.20913  0.39603  0.91126  1.0000
  H   H181      1.0  0.20914  0.37010  0.85748  1.0000
  C   C110      1.0  0.02186  0.25595  0.70787  1.0000
  C   C111      1.0  0.04997  0.27068  0.72574  1.0000
  C   C112      1.0  0.04555  0.30273  0.73744  1.0000
  H   H182      1.0  0.04162  0.32077  0.66149  1.0000
  C   C113      1.0  0.31918  0.36439  0.88128  1.0000
  H   H183      1.0  0.07445  0.25687  0.73138  1.0000
  H   H184      1.0  0.31791  0.99533  0.78082  1.0000
  H   H185      1.0  0.26070  0.26093  0.87428  1.0000
  H   H186      1.0  0.02506  0.23089  0.69941  1.0000
  C   C114      1.0  0.21520  0.46544  0.86627  1.0000
  C   C115      1.0  0.19214  0.27211  0.89333  1.0000
  H   H187      1.0  0.14227  0.43861  0.91701  1.0000
  H   H188      1.0  0.32449  0.24605  0.90671  1.0000
  H   H189      1.0  0.01864  0.42950  0.86696  1.0000
  C   C116      1.0  0.07483  0.25018  0.82520  1.0000
  H   H190      1.0  0.35675  0.01967  0.76971  1.0000
  C   C117      1.0  0.08060  0.37455  0.68630  1.0000
  H   H191      1.0  0.19911  0.36368  0.66143  1.0000
  H   H192      1.0  0.32301  0.26714  0.85924  1.0000
  H   H193      1.0  0.16252  0.23621  0.67052  1.0000
  H   H194      1.0  0.28930  0.31022  0.93379  1.0000
  H   H195      1.0  0.29123  0.40797  0.90005  1.0000
  H   H196      1.0  0.01162  0.45626  0.90041  1.0000
  C   C118      1.0  0.34624  0.00166  0.78744  1.0000
  C   C119      1.0  0.10498  0.38766  0.81516  1.0000
  C   C120      1.0  0.04414  0.27357  0.83545  1.0000
  C   C121      1.0  0.12028  0.39763  0.94277  1.0000
  H   H197      1.0  0.18140  0.27621  0.86894  1.0000
  H   H198      1.0  0.26962  0.34828  0.85788  1.0000
  H   H199      1.0  0.34707  0.30422  0.86434  1.0000
  C   C122      1.0  0.34335  0.29347  0.80148  1.0000
  H   H200      1.0  0.39941  0.98134  0.79246  1.0000
  H   H201      1.0  0.00807  0.38771  0.79156  1.0000
  C   C123      1.0  0.14456  0.40224  0.97201  1.0000
  H   H202      1.0  0.13383  0.37932  0.92702  1.0000
  C   C124      1.0  0.00904  0.26758  0.81544  1.0000
  H   H203      1.0  0.10783  0.36158  0.82298  1.0000
  H   H204      1.0  0.05181  0.38986  0.90856  1.0000
  H   H205      1.0  0.35212  0.26437  0.95779  1.0000
  C   C125      1.0  0.25608  0.28797  0.87575  1.0000
  H   H206      1.0  0.07993  0.43280  0.82984  1.0000
  C   C126      1.0  0.34503  0.01919  0.81964  1.0000
  H   H207      1.0  0.05458  0.29908  0.83268  1.0000
  C   C127      1.0  0.31124  0.30267  0.82302  1.0000
  H   H208      1.0  0.29366  0.40610  0.85702  1.0000
  H   H209      1.0  0.00375  0.33533  0.83976  1.0000
  H   H210      1.0  0.20028  0.24576  0.89573  1.0000
  H   H211      1.0  0.21500  0.32054  0.89770  1.0000
  C   C128      1.0  0.05203  0.41733  0.90950  1.0000
  H   H212      1.0  0.23335  0.29026  0.92469  1.0000
  C   C129      1.0  0.30569  0.29742  0.91516  1.0000
  H   H213      1.0  0.36777  0.30835  0.80761  1.0000
  H   H214      1.0  0.32798  0.04184  0.81791  1.0000
  H   H215      1.0  0.33277  0.00290  0.83797  1.0000
  H   H216      1.0  0.29846  0.46281  0.83207  1.0000
  H   H217      1.0  0.33765  0.35925  0.86092  1.0000
  H   H218      1.0  0.32448  0.22799  0.96235  1.0000
  H   H219      1.0  0.33604  0.29850  0.77627  1.0000
  H   H220      1.0  0.24517  0.29501  0.85197  1.0000
  H   H221      1.0  0.04817  0.42358  0.93513  1.0000
  S   S28       1.0  0.47460  0.03670  0.93739  1.0000
  H   H222      1.0  0.30552  0.32929  0.81941  1.0000
  H   H223      1.0  0.33363  0.41634  0.87989  1.0000
  H   H224      1.0  0.09021  0.38800  0.79207  1.0000
  H   H225      1.0  0.10480  0.38231  0.88048  1.0000
  N   N7        1.0  0.08823  0.43054  0.89745  1.0000
  C   C130      1.0  0.01340  0.32017  0.73051  1.0000
  H   H226      1.0  0.28729  0.28835  0.81486  1.0000
  H   H227      1.0  0.35009  0.26682  0.80380  1.0000
  C   C131      1.0  0.08403  0.46576  0.88613  1.0000
  H   H228      1.0  0.03880  0.26908  0.86109  1.0000
  C   C132      1.0  0.30866  0.40089  0.87946  1.0000
  S   S29       1.0  0.37495  0.01800  0.96960  1.0000
  S   S30       1.0  0.39406  0.09745  0.96600  1.0000
  H   H229      1.0  0.13258  0.39829  0.81124  1.0000
  H   H230      1.0  0.11828  0.35123  0.65486  1.0000
  H   H231      1.0  0.10202  0.38184  0.70360  1.0000
  H   H232      1.0  0.33385  0.30717  0.91811  1.0000
  H   H233      1.0  0.08204  0.25430  0.79979  1.0000
  H   H234      1.0  0.05670  0.39571  0.84272  1.0000
  H   H235      1.0  0.33447  0.36048  0.90375  1.0000
  S   S31       1.0  0.30453  0.98678  0.90355  1.0000
  H   H236      1.0  0.12411  0.21657  0.65170  1.0000
  H   H237      1.0  0.26669  0.35048  0.89982  1.0000
  H   H238      1.0  0.11781  0.24013  0.68796  1.0000
  C   C133      1.0  0.22469  0.29464  0.89979  1.0000
  C   C134      1.0  0.30738  0.26008  0.92382  1.0000
  H   H239      1.0  0.27978  0.24888  0.92402  1.0000
  N   N8        1.0  0.29152  0.30551  0.88231  1.0000
  C   C135      1.0  0.31963  0.29435  0.85830  1.0000
  H   H240      1.0  0.05519  0.36932  0.69973  1.0000
  H   H241      1.0  0.38017  0.98751  0.66748  1.0000
  H   H242      1.0  0.06354  0.46777  0.86686  1.0000
  C   C136      1.0  0.08365  0.40770  0.83980  1.0000
  C   C137      1.0  0.10397  0.40832  0.87204  1.0000
  H   H243      1.0  0.29022  0.46796  0.78990  1.0000
  H   H244      1.0  0.38687  0.98635  0.72677  1.0000
  C   C138      1.0  0.01670  0.43022  0.89320  1.0000
  H   H245      1.0  0.00987  0.34503  0.73938  1.0000
  C   C139      1.0  0.13296  0.23876  0.66509  1.0000
  S   S32       1.0  0.21733  0.46318  0.93209  1.0000
  H   H246      1.0  0.17185  0.41160  0.96490  1.0000
  H   H247      1.0  0.10019  0.32475  0.68563  1.0000
  C   C140      1.0  0.32374  0.25484  0.95689  1.0000
  H   H248      1.0  0.07575  0.39553  0.66978  1.0000
  H   H249      1.0  0.33605  0.46185  0.80438  1.0000
  H   H250      1.0  0.01707  0.26791  0.78984  1.0000
  H   H251      1.0  0.10618  0.44963  0.94280  1.0000
  C   C141      1.0  0.09325  0.34407  0.66785  1.0000
  H   H252      1.0  0.13691  0.29121  0.65930  1.0000
  H   H253      1.0  0.06961  0.27001  0.65876  1.0000
  H   H254      1.0  0.33925  0.98135  0.73053  1.0000
  H   H255      1.0  0.21996  0.46587  0.81500  1.0000
  H   H256      1.0  0.13254  0.46769  0.85473  1.0000
  H   H257      1.0  0.33119  0.98249  0.67148  1.0000
  H   H258      1.0  0.01500  0.32646  0.79970  1.0000
  C   C142      1.0  0.49745  0.00110  0.95244  1.0000
  C   C143      1.0  0.48024  0.97860  0.97271  1.0000
  H   H259      1.0  0.45151  0.98152  0.97783  1.0000
  Fe  Fe17      1.0  0.19575  0.65526  0.22546  1.0000
  S   S33       1.0  0.16624  0.69323  0.25548  1.0000
  S   S34       1.0  0.20121  0.66667  0.17213  1.0000
  C   C144      1.0  0.09638  0.58332  0.06842  1.0000
  C   C145      1.0  0.09116  0.62935  0.02792  1.0000
  H   H260      1.0  0.05796  0.76314  0.27186  1.0000
  Fe  Fe18      1.0  0.13384  0.65049  0.27401  1.0000
  S   S35       1.0  0.07249  0.65082  0.28125  1.0000
  Fe  Fe19      1.0  0.20714  0.68211  0.29446  1.0000
  C   C146      1.0  0.11175  0.69880  0.13691  1.0000
  S   S36       1.0  0.16046  0.61372  0.24194  1.0000
  S   S37       1.0  0.23934  0.64683  0.26294  1.0000
  S   S38       1.0  0.20403  0.56262  0.05706  1.0000
  H   H261      1.0  0.10509  0.51809  0.11960  1.0000
  C   C147      1.0  0.05745  0.76244  0.16030  1.0000
  C   C148      1.0  0.14684  0.47599  0.07362  1.0000
  C   C149      1.0  0.20103  0.63739  0.14041  1.0000
  C   C150      1.0  0.20335  0.60341  0.14596  1.0000
  C   C151      1.0  0.20443  0.58112  0.12016  1.0000
  C   C152      1.0  0.20245  0.59230  0.08844  1.0000
  C   C153      1.0  0.19927  0.62625  0.08286  1.0000
  C   C154      1.0  0.19900  0.64863  0.10869  1.0000
  H   H262      1.0  0.20526  0.59435  0.17015  1.0000
  H   H263      1.0  0.20720  0.55497  0.12485  1.0000
  H   H264      1.0  0.19784  0.63531  0.05866  1.0000
  H   H265      1.0  0.19739  0.67486  0.10406  1.0000
  C   C155      1.0  0.04571  0.64906  0.24644  1.0000
  H   H266      1.0  0.10955  0.73688  0.22324  1.0000
  S   S39       1.0  0.21162  0.55269  0.28997  1.0000
  C   C156      1.0  0.03874  0.63707  0.19011  1.0000
  C   C157      1.0  0.06084  0.63921  0.21735  1.0000
  Fe  Fe20      1.0  0.19652  0.56454  0.00270  1.0000
  H   H267      1.0  0.08946  0.63291  0.21587  1.0000
  H   H268      1.0  0.09323  0.57813  0.01603  1.0000
  C   C158      1.0  0.09982  0.56789  0.13689  1.0000
  H   H269      1.0  0.16124  0.76583  0.20601  1.0000
  H   H270      1.0  0.12618  0.58895  0.06866  1.0000
  H   H271      1.0  0.07820  0.64626  0.04544  1.0000
  C   C159      1.0  0.04998  0.54118  0.08335  1.0000
  H   H272      1.0  0.01501  0.58565  0.24114  1.0000
  H   H273      1.0  0.10392  0.71345  0.11582  1.0000
  C   C160      1.0  0.10805  0.52530  0.05479  1.0000
  C   C161      1.0  0.28225  0.88983  0.30339  1.0000
  H   H274      1.0  0.03176  0.75041  0.16832  1.0000
  H   H275      1.0  0.05578  0.78864  0.16835  1.0000
  H   H276      1.0  0.03555  0.56407  0.09114  1.0000
  C   C162      1.0  0.10511  0.66257  0.12918  1.0000
  H   H277      1.0  0.05037  0.62868  0.16791  1.0000
  C   C163      1.0  0.05510  0.76189  0.12352  1.0000
  C   C164      1.0  0.12448  0.76341  0.16481  1.0000
  H   H278      1.0  0.08357  0.57606  0.27131  1.0000
  S   S40       1.0  0.16412  0.52177  0.98393  1.0000
  N   N9        1.0  0.09027  0.54801  0.07869  1.0000
  H   H279      1.0  0.37792  0.94963  0.02770  1.0000
  H   H280      1.0  0.12139  0.79056  0.16815  1.0000
  H   H281      1.0  0.16007  0.72602  0.18762  1.0000
  H   H282      1.0  0.10888  0.57578  0.18738  1.0000
  H   H283      1.0  0.14546  0.55423  0.16760  1.0000
  C   C165      1.0  0.05110  0.73779  0.22643  1.0000
  H   H284      1.0  0.06978  0.57067  0.13926  1.0000
  H   H285      1.0  0.07596  0.53204  0.27628  1.0000
  C   C166      1.0  0.11403  0.55322  0.31021  1.0000
  C   C167      1.0  0.09656  0.55202  0.27725  1.0000
  H   H286      1.0  0.14002  0.54516  0.10637  1.0000
  C   C168      1.0  0.19419  0.76137  0.16387  1.0000
  H   H287      1.0  0.34402  0.95059  0.05890  1.0000
  H   H288      1.0  0.02843  0.72758  0.27319  1.0000
  H   H289      1.0  0.13635  0.53361  0.04978  1.0000
  H   H290      1.0  0.19535  0.78824  0.15880  1.0000
  H   H291      1.0  0.11192  0.59230  0.13158  1.0000
  H   H292      1.0  0.08342  0.60071  0.08553  1.0000
  H   H293      1.0  0.03409  0.54038  0.03215  1.0000
  H   H294      1.0  0.19495  0.74731  0.14116  1.0000
  H   H295      1.0  0.12117  0.65540  0.10783  1.0000
  H   H296      1.0  0.04465  0.71247  0.21835  1.0000
  C   C169      1.0  0.08148  0.59347  0.03536  1.0000
  H   H297      1.0  0.11401  0.64696  0.14952  1.0000
  H   H298      1.0  0.23718  0.83969  0.28087  1.0000
  H   H299      1.0  0.04980  0.73635  0.11522  1.0000
  C   C170      1.0  0.09091  0.70936  0.16759  1.0000
  C   C171      1.0  0.02890  0.52664  0.05446  1.0000
  H   H300      1.0  0.14156  0.70190  0.14015  1.0000
  H   H301      1.0  0.05131  0.59172  0.03496  1.0000
  H   H302      1.0  0.07578  0.65827  0.12404  1.0000
  H   H303      1.0  0.09007  0.77670  0.21753  1.0000
  H   H304      1.0  0.11795  0.54677  0.25914  1.0000
  H   H305      1.0  0.21865  0.75426  0.17797  1.0000
  H   H306      1.0  0.10374  0.69503  0.18735  1.0000
  H   H307      1.0  0.06253  0.69968  0.16599  1.0000
  H   H308      1.0  0.25893  0.80592  0.30137  1.0000
  H   H309      1.0  0.28396  0.82833  0.27156  1.0000
  H   H310      1.0  0.29238  0.94408  0.26451  1.0000
  H   H311      1.0  0.10320  0.53304  0.17649  1.0000
  H   H312      1.0  0.09466  0.52720  0.03128  1.0000
  H   H313      1.0  0.08861  0.48158  0.08225  1.0000
  H   H314      1.0  0.29593  0.88787  0.27976  1.0000
  H   H315      1.0  0.35469  0.86110  0.30824  1.0000
  H   H316      1.0  0.12937  0.76033  0.13894  1.0000
  H   H317      1.0  0.08024  0.77142  0.11215  1.0000
  C   C172      1.0  0.15977  0.75289  0.18271  1.0000
  H   H318      1.0  0.07709  0.72198  0.27070  1.0000
  H   H319      1.0  0.16682  0.48019  0.05409  1.0000
  H   H320      1.0  0.40432  0.96086  0.08179  1.0000
  C   C173      1.0  0.11530  0.55691  0.16900  1.0000
  Fe  Fe21      1.0  0.20111  0.60732  0.28158  1.0000
  H   H321      1.0  0.03721  0.50063  0.05039  1.0000
  H   H322      1.0  0.46245  0.94772  0.05887  1.0000
  N   N10       1.0  0.09020  0.74585  0.17525  1.0000
  C   C174      1.0  0.08698  0.75019  0.21093  1.0000
  H   H323      1.0  0.32787  0.96897  0.28221  1.0000
  C   C175      1.0  0.10994  0.54327  0.11000  1.0000
  H   H324      1.0  0.04009  0.55704  0.19559  1.0000
  H   H325      1.0  0.04563  0.52337  0.10322  1.0000
  H   H326      1.0  0.12123  0.63290  0.02845  1.0000
  C   C176      1.0  0.26345  0.83077  0.29093  1.0000
  H   H327      1.0  0.08115  0.63583  0.00374  1.0000
  H   H328      1.0  0.25419  0.89889  0.29795  1.0000
  H   H329      1.0  0.02165  0.78176  0.08537  1.0000
  H   H330      1.0  0.13610  0.57186  0.30929  1.0000
  H   H331      1.0  0.02721  0.80935  0.11865  1.0000
  C   C177      1.0  0.10885  0.48797  0.06361  1.0000
  H   H332      1.0  0.34824  0.91798  0.29168  1.0000
  H   H333      1.0  0.41114  0.89168  0.29550  1.0000
  H   H334      1.0  0.48667  0.93508  0.00199  1.0000
  C   C178      1.0  0.05394  0.73769  0.26275  1.0000
  H   H335      1.0  0.02788  0.75425  0.22022  1.0000
  C   C179      1.0  0.29844  0.96242  0.28337  1.0000
  C   C180      1.0  0.02327  0.78314  0.11175  1.0000
  C   C181      1.0  0.00368  0.56098  0.23609  1.0000
  H   H336      1.0  0.15651  0.48896  0.09524  1.0000
  C   C182      1.0  0.00843  0.65702  0.24796  1.0000
  C   C183      1.0  0.36388  0.96574  0.04531  1.0000
  C   C184      1.0  0.48462  0.96153  0.07083  1.0000
  C   C185      1.0  0.01058  0.55416  0.20080  1.0000
  H   H337      1.0  0.01916  0.54241  0.24999  1.0000
  H   H338      1.0  0.09652  0.49267  0.98330  1.0000
  H   H339      1.0  0.48454  0.92733  0.11097  1.0000
  H   H340      1.0  0.20051  0.48516  0.30713  1.0000
  C   C186      1.0  0.50025  0.95228  0.98629  1.0000
  H   H341      1.0  0.00232  0.52863  0.19453  1.0000
  Fe  Fe22      1.0  0.36533  0.85350  0.42143  1.0000
  S   S41       1.0  0.32402  0.87700  0.45378  1.0000
  S   S42       1.0  0.35432  0.81331  0.38355  1.0000
  Fe  Fe23      1.0  0.42808  0.89565  0.45180  1.0000
  S   S43       1.0  0.39017  0.92089  0.48596  1.0000
  H   H342      1.0  0.29595  0.65797  0.41978  1.0000
  Fe  Fe24      1.0  0.36523  0.87044  0.49357  1.0000
  S   S44       1.0  0.35741  0.83782  0.53793  1.0000
  Fe  Fe25      1.0  0.35322  0.92494  0.44288  1.0000
  C   C187      1.0  0.08560  0.56267  0.33613  1.0000
  S   S45       1.0  0.40554  0.84500  0.46118  1.0000
  S   S46       1.0  0.39243  0.90178  0.40859  1.0000
  C   C188      1.0  0.35407  0.84419  0.57997  1.0000
  C   C189      1.0  0.34310  0.87431  0.59328  1.0000
  C   C190      1.0  0.33804  0.87718  0.62658  1.0000
  H   H343      1.0  0.26705  0.91407  0.42192  1.0000
  H   H344      1.0  0.28800  0.79737  0.51732  1.0000
  C   C191      1.0  0.36074  0.81736  0.60055  1.0000
  H   H345      1.0  0.33746  0.89510  0.57788  1.0000
  C   C192      1.0  0.01703  0.60440  0.41351  1.0000
  H   H346      1.0  0.06083  0.54725  0.33290  1.0000
  H   H347      1.0  0.36935  0.79396  0.59067  1.0000
  H   H348      1.0  0.25584  0.87408  0.40501  1.0000
  C   C193      1.0  0.28104  0.79336  0.37943  1.0000
  C   C194      1.0  0.31711  0.78875  0.36922  1.0000
  C   C195      1.0  0.32419  0.76387  0.34658  1.0000
  H   H349      1.0  0.45505  0.90566  0.54476  1.0000
  H   H350      1.0  0.27492  0.81238  0.39668  1.0000
  H   H351      1.0  0.03930  0.60745  0.36650  1.0000
  H   H352      1.0  0.15650  0.56808  0.41702  1.0000
  C   C196      1.0  0.21256  0.53274  0.32743  1.0000
  C   C197      1.0  0.22068  0.54974  0.35549  1.0000
  C   C198      1.0  0.22363  0.53245  0.38450  1.0000
  C   C199      1.0  0.21795  0.49816  0.38577  1.0000
  H   H353      1.0  0.07671  0.58824  0.33015  1.0000
  H   H354      1.0  0.41519  0.90436  0.33672  1.0000
  C   C200      1.0  0.48274  0.97109  0.38248  1.0000
  N   N11       1.0  0.09886  0.56095  0.37012  1.0000
  C   C201      1.0  0.25650  0.91497  0.37109  1.0000
  H   H355      1.0  0.06170  0.52476  0.47344  1.0000
  C   C202      1.0  0.04573  0.50520  0.46288  1.0000
  H   H356      1.0  0.39176  0.75053  0.40273  1.0000
  N   N12       1.0  0.31205  0.74459  0.47444  1.0000
  H   H357      1.0  0.34754  0.72127  0.50898  1.0000
  C   C203      1.0  0.25414  0.82528  0.48570  1.0000
  C   C204      1.0  0.25267  0.77347  0.36702  1.0000
  H   H358      1.0  0.25676  0.85417  0.33624  1.0000
  C   C205      1.0  0.00778  0.50919  0.45968  1.0000
  H   H359      1.0  0.37745  0.96320  0.37770  1.0000
  H   H360      1.0  0.25495  0.75748  0.48158  1.0000
  C   C206      1.0  0.40456  0.88500  0.32050  1.0000
  H   H361      1.0  0.12160  0.52573  0.40355  1.0000
  H   H362      1.0  0.32850  0.90028  0.63644  1.0000
  H   H363      1.0  0.33327  0.76500  0.43057  1.0000
  C   C207      1.0  0.28073  0.76887  0.47290  1.0000
  C   C208      1.0  0.32541  0.74009  0.50812  1.0000
  H   H364      1.0  0.35377  0.78114  0.46505  1.0000
  H   H365      1.0  0.30266  0.84380  0.32645  1.0000
  C   C209      1.0  0.25975  0.74854  0.34432  1.0000
  H   H366      1.0  0.27405  0.70387  0.47505  1.0000
  N   N13       1.0  0.30239  0.91417  0.32426  1.0000
  H   H367      1.0  0.12060  0.59720  0.42582  1.0000
  H   H368      1.0  0.25879  0.84846  0.49923  1.0000
  C   C210      1.0  0.29586  0.74389  0.33427  1.0000
  H   H369      1.0  0.27507  0.77572  0.44772  1.0000
  H   H370      1.0  0.31736  0.75657  0.57282  1.0000
  H   H371      1.0  0.36867  0.71004  0.44147  1.0000
  C   C211      1.0  0.27716  0.85428  0.31669  1.0000
  H   H372      1.0  0.31296  0.71671  0.41077  1.0000
  H   H373      1.0  0.11830  0.61125  0.36574  1.0000
  C   C212      1.0  0.11505  0.52756  0.37773  1.0000
  C   C213      1.0  0.29611  0.90831  0.35938  1.0000
  H   H374      1.0  0.23612  0.90422  0.35460  1.0000
  C   C214      1.0  0.29893  0.71181  0.46189  1.0000
  C   C215      1.0  0.28610  0.80166  0.49128  1.0000
  H   H375      1.0  0.31933  0.69199  0.46659  1.0000
  H   H376      1.0  0.35189  0.75994  0.33843  1.0000
  H   H377      1.0  0.19427  0.61341  0.39423  1.0000
  H   H378      1.0  0.08206  0.49701  0.34482  1.0000
  H   H379      1.0  0.15209  0.58085  0.35942  1.0000
  H   H380      1.0  0.23099  0.54558  0.40596  1.0000
  H   H381      1.0  0.04461  0.54907  0.38684  1.0000
  H   H382      1.0  0.27117  0.74369  0.53163  1.0000
  H   H383      1.0  0.22492  0.77745  0.37501  1.0000
  C   C216      1.0  0.34310  0.75787  0.45461  1.0000
  H   H384      1.0  0.02604  0.60035  0.43848  1.0000
  H   H385      1.0  0.26718  0.72934  0.42053  1.0000
  C   C217      1.0  0.24980  0.90096  0.40430  1.0000
  H   H386      1.0  0.24977  0.67074  0.42957  1.0000
  H   H387      1.0  0.07448  0.56153  0.41729  1.0000
  C   C218      1.0  0.12797  0.58678  0.37448  1.0000
  H   H388      1.0  0.33832  0.76324  0.51698  1.0000
  H   H389      1.0  0.18139  0.62115  0.43494  1.0000
  H   H390      1.0  0.22079  0.90477  0.41108  1.0000
  C   C219      1.0  0.09058  0.49739  0.37011  1.0000
  C   C220      1.0  0.45983  0.87857  0.54468  1.0000
  C   C221      1.0  0.29635  0.72851  0.53258  1.0000
  H   H391      1.0  0.46669  0.95999  0.49174  1.0000
  H   H392      1.0  0.15828  0.64268  0.40316  1.0000
  C   C222      1.0  0.17086  0.61880  0.41026  1.0000
  H   H393      1.0  0.25145  0.94201  0.37249  1.0000
  H   H394      1.0  0.30378  0.88283  0.36646  1.0000
  C   C223      1.0  0.40403  0.74898  0.42688  1.0000
  H   H395      1.0  0.46030  0.86968  0.51965  1.0000
  H   H396      1.0  0.49838  0.84276  0.56143  1.0000
  H   H397      1.0  0.22821  0.81411  0.49409  1.0000
  H   H398      1.0  0.31443  0.92439  0.37375  1.0000
  H   H399      1.0  0.14180  0.52422  0.36556  1.0000
  H   H400      1.0  0.39096  0.73143  0.47358  1.0000
  C   C224      1.0  0.04947  0.60176  0.39073  1.0000
  H   H401      1.0  0.06940  0.62102  0.39765  1.0000
  C   C225      1.0  0.27475  0.67723  0.41594  1.0000
  H   H402      1.0  0.31138  0.81414  0.48352  1.0000
  S   S47       1.0  0.48925  0.90560  0.44970  1.0000
  H   H403      1.0  0.29038  0.72119  0.58356  1.0000
  C   C226      1.0  0.37660  0.73466  0.45054  1.0000
  H   H404      1.0  0.35874  0.87297  0.34963  1.0000
  S   S48       1.0  0.22241  0.72452  0.32929  1.0000
  H   H405      1.0  0.26768  0.67771  0.39020  1.0000
  C   C227      1.0  0.35634  0.82040  0.63388  1.0000
  C   C228      1.0  0.28893  0.71111  0.42593  1.0000
  C   C229      1.0  0.20650  0.49853  0.32878  1.0000
  H   H406      1.0  0.33633  0.71540  0.56906  1.0000
  C   C230      1.0  0.14276  0.59101  0.40882  1.0000
  H   H407      1.0  0.25176  0.83154  0.46002  1.0000
  H   H408      1.0  0.28877  0.70244  0.52790  1.0000
  H   H409      1.0  0.22598  0.57597  0.35459  1.0000
  H   H410      1.0  0.41282  0.77400  0.43440  1.0000
  C   C231      1.0  0.06687  0.56681  0.39211  1.0000
  C   C232      1.0  0.31115  0.73053  0.56653  1.0000
  H   H411      1.0  0.41851  0.86136  0.32633  1.0000
  H   H412      1.0  0.35667  0.93350  0.33053  1.0000
  H   H413      1.0  0.42850  0.73280  0.42555  1.0000
  S   S49       1.0  0.17180  0.64147  0.31505  1.0000
  C   C233      1.0  0.36337  0.88086  0.32482  1.0000
  H   H414      1.0  0.43667  0.86647  0.55715  1.0000
  H   H415      1.0  0.12656  0.52871  0.31463  1.0000
  C   C234      1.0  0.49360  0.96530  0.48247  1.0000
  H   H416      1.0  0.47182  0.95357  0.40041  1.0000
  H   H417      1.0  0.46462  0.97081  0.36129  1.0000
  H   H418      1.0  0.29967  0.96664  0.33458  1.0000
  C   C235      1.0  0.49567  0.87003  0.56149  1.0000
  H   H419      1.0  0.49321  0.87841  0.58655  1.0000
  H   H420      1.0  0.06577  0.49753  0.38529  1.0000
  S   S50       1.0  0.22465  0.47699  0.42217  1.0000
  H   H421      1.0  0.30198  0.72496  0.31689  1.0000
  H   H422      1.0  0.00467  0.62941  0.41185  1.0000
  C   C236      1.0  0.20891  0.48133  0.35785  1.0000
  C   C237      1.0  0.34287  0.91332  0.31735  1.0000
  H   H423      1.0  0.25864  0.94999  0.31907  1.0000
  C   C238      1.0  0.28889  0.94868  0.31683  1.0000
  C   C239      1.0  0.06310  0.47556  0.45368  1.0000
  H   H424      1.0  0.00262  0.50068  0.54710  1.0000
  S   S51       1.0  0.32408  0.97273  0.42861  1.0000
  C   C240      1.0  0.22991  0.80420  0.82590  1.0000
  H   H425      1.0  0.32353  0.75826  0.87828  1.0000
  Fe  Fe26      1.0  0.20442  0.51687  0.94417  1.0000
  S   S52       1.0  0.17547  0.55203  0.91152  1.0000
  H   H426      1.0  0.25999  0.52356  0.79842  1.0000
  Fe  Fe27      1.0  0.20900  0.59227  0.93485  1.0000
  S   S53       1.0  0.24836  0.62960  0.91065  1.0000
  Fe  Fe28      1.0  0.13600  0.55806  0.95263  1.0000
  S   S54       1.0  0.07413  0.55155  0.94773  1.0000
  C   C241      1.0  0.35974  0.78464  0.91046  1.0000
  H   H427      1.0  0.28268  0.88759  0.74177  1.0000
  Fe  Fe29      1.0  0.36766  0.82776  0.80171  1.0000
  S   S55       1.0  0.37808  0.77344  0.80781  1.0000
  S   S56       1.0  0.38042  0.85887  0.84547  1.0000
  Fe  Fe30      1.0  0.35005  0.81988  0.73015  1.0000
  S   S57       1.0  0.35768  0.76453  0.73199  1.0000
  S   S58       1.0  0.33639  0.85511  0.68888  1.0000
  Fe  Fe31      1.0  0.32726  0.76573  0.77932  1.0000
  S   S59       1.0  0.28040  0.73145  0.79595  1.0000
  Fe  Fe32      1.0  0.40779  0.77673  0.76095  1.0000
  S   S60       1.0  0.46425  0.75382  0.75704  1.0000
  S   S61       1.0  0.31547  0.82048  0.77487  1.0000
  S   S62       1.0  0.40147  0.83147  0.75719  1.0000
  C   C242      1.0  0.35968  0.89608  0.85828  1.0000
  C   C243      1.0  0.32300  0.90323  0.85208  1.0000
  C   C244      1.0  0.30653  0.93137  0.86571  1.0000
  C   C245      1.0  0.32670  0.95281  0.88525  1.0000
  C   C246      1.0  0.31028  0.88088  0.94291  1.0000
  C   C247      1.0  0.37996  0.91780  0.87734  1.0000
  H   H428      1.0  0.30701  0.88647  0.83785  1.0000
  C   C248      1.0  0.06764  0.49125  0.97909  1.0000
  H   H429      1.0  0.34745  0.90176  0.74520  1.0000
  C   C249      1.0  0.26453  0.80753  0.84590  1.0000
  N   N14       1.0  0.37166  0.94804  0.75994  1.0000
  S   S63       1.0  0.24033  0.55595  0.96577  1.0000
  C   C250      1.0  0.25610  0.65927  0.87958  1.0000
  C   C251      1.0  0.22873  0.66914  0.85834  1.0000
  C   C252      1.0  0.23669  0.69137  0.83326  1.0000
  C   C253      1.0  0.27200  0.70443  0.82902  1.0000
  C   C254      1.0  0.29927  0.69502  0.85060  1.0000
  C   C255      1.0  0.29136  0.67259  0.87557  1.0000
  H   H430      1.0  0.20143  0.65947  0.86109  1.0000
  H   H431      1.0  0.21528  0.69839  0.81685  1.0000
  H   H432      1.0  0.32666  0.70442  0.84762  1.0000
  H   H433      1.0  0.31289  0.66519  0.89169  1.0000
  H   H434      1.0  0.42958  0.95140  0.75006  1.0000
  H   H435      1.0  0.30461  0.72804  0.91958  1.0000
  H   H436      1.0  0.21624  0.49197  0.86870  1.0000
  N   N15       1.0  0.27864  0.56446  0.82714  1.0000
  C   C256      1.0  0.24071  0.57618  0.83554  1.0000
  C   C257      1.0  0.29334  0.58228  0.79830  1.0000
  C   C258      1.0  0.30342  0.57147  0.85504  1.0000
  C   C259      1.0  0.29664  0.55064  0.88554  1.0000
  C   C260      1.0  0.29092  0.62052  0.79932  1.0000
  C   C261      1.0  0.21164  0.57335  0.80886  1.0000
  C   C262      1.0  0.17644  0.59122  0.81827  1.0000
  C   C263      1.0  0.32297  0.56054  0.91206  1.0000
  C   C264      1.0  0.30791  0.63591  0.76959  1.0000
  H   H437      1.0  0.22977  0.56196  0.85605  1.0000
  H   H438      1.0  0.24137  0.60211  0.84405  1.0000
  H   H439      1.0  0.27962  0.57369  0.77618  1.0000
  H   H440      1.0  0.32269  0.57605  0.79473  1.0000
  H   H441      1.0  0.33260  0.56849  0.84819  1.0000
  H   H442      1.0  0.30082  0.59778  0.86236  1.0000
  H   H443      1.0  0.30074  0.52392  0.88104  1.0000
  H   H444      1.0  0.26854  0.55437  0.89470  1.0000
  H   H445      1.0  0.30574  0.63036  0.82022  1.0000
  H   H446      1.0  0.26215  0.62905  0.80050  1.0000
  H   H447      1.0  0.22111  0.58430  0.78615  1.0000
  H   H448      1.0  0.20479  0.54703  0.80464  1.0000
  H   H449      1.0  0.15517  0.58692  0.79993  1.0000
  H   H450      1.0  0.16614  0.58210  0.84154  1.0000
  H   H451      1.0  0.18129  0.61821  0.81999  1.0000
  H   H452      1.0  0.31787  0.54511  0.93347  1.0000
  H   H453      1.0  0.35172  0.55681  0.90443  1.0000
  H   H454      1.0  0.31875  0.58683  0.91871  1.0000
  H   H455      1.0  0.33730  0.62931  0.76774  1.0000
  H   H456      1.0  0.29341  0.62759  0.74783  1.0000
  H   H457      1.0  0.30568  0.66324  0.77100  1.0000
  H   H458      1.0  0.46481  0.88525  0.76333  1.0000
  H   H459      1.0  0.30010  0.78142  0.95147  1.0000
  H   H460      1.0  0.29807  0.94449  0.78828  1.0000
  H   H461      1.0  0.36694  0.81062  0.91582  1.0000
  C   C265      1.0  0.27707  0.52808  0.81987  1.0000
  H   H462      1.0  0.26313  0.51468  0.83944  1.0000
  H   H463      1.0  0.36518  0.95680  0.81069  1.0000
  C   C266      1.0  0.30362  0.93157  0.76547  1.0000
  H   H464      1.0  0.27790  0.93636  0.86151  1.0000
  H   H465      1.0  0.13889  0.48666  0.89318  1.0000
  H   H466      1.0  0.28223  0.88567  0.78490  1.0000
  H   H467      1.0  0.32644  0.52039  0.79091  1.0000
  H   H468      1.0  0.33389  0.51500  0.83295  1.0000
  H   H469      1.0  0.25614  0.73082  0.91245  1.0000
  C   C267      1.0  0.30341  0.84367  0.94217  1.0000
  H   H470      1.0  0.26443  0.84365  0.90463  1.0000
  H   H471      1.0  0.34932  0.90710  0.78670  1.0000
  C   C268      1.0  0.31423  0.51093  0.81332  1.0000
  C   C269      1.0  0.49562  0.76907  0.72856  1.0000
  H   H472      1.0  0.38754  0.74307  0.88769  1.0000
  H   H473      1.0  0.26998  0.83422  0.84903  1.0000
  C   C270      1.0  0.26075  0.78902  0.87803  1.0000
  C   C271      1.0  0.49868  0.82211  0.82368  1.0000
  C   C272      1.0  0.36362  0.94682  0.69836  1.0000
  C   C273      1.0  0.01219  0.51353  0.95686  1.0000
  C   C274      1.0  0.27851  0.73832  0.92866  1.0000
  C   C275      1.0  0.36369  0.94623  0.89048  1.0000
  H   H474      1.0  0.25955  0.76247  0.87145  1.0000
  C   C276      1.0  0.46318  0.90342  0.78310  1.0000
  H   H475      1.0  0.23414  0.81604  0.80232  1.0000
  C   C277      1.0  0.28057  0.77649  0.93194  1.0000
  C   C278      1.0  0.29180  0.83217  0.90841  1.0000
  H   H476      1.0  0.47611  0.79323  0.86281  1.0000
  C   C279      1.0  0.27091  0.72189  0.96074  1.0000
  H   H477      1.0  0.31008  0.84457  0.89087  1.0000
  H   H478      1.0  0.20651  0.81650  0.83788  1.0000
  H   H479      1.0  0.40830  0.91238  0.88243  1.0000
  H   H480      1.0  0.33375  0.79903  0.86704  1.0000
  H   H481      1.0  0.24923  0.91059  0.76420  1.0000
  C   C280      1.0  0.04994  0.51648  0.96239  1.0000
  H   H482      1.0  0.09828  0.53296  0.87737  1.0000
  H   H483      1.0  0.42359  0.93180  0.80883  1.0000
  H   H484      1.0  0.35469  0.77107  0.93292  1.0000
  H   H485      1.0  0.23360  0.79527  0.88848  1.0000
  N   N16       1.0  0.29057  0.79530  0.90209  1.0000
  H   H486      1.0  0.40128  0.78345  0.87356  1.0000
  H   H487      1.0  0.48887  0.83054  0.80001  1.0000
  C   C281      1.0  0.32628  0.78365  0.88803  1.0000
  H   H488      1.0  0.22327  0.77778  0.82191  1.0000
  S   S64       1.0  0.16624  0.60205  0.97314  1.0000
  H   H489      1.0  0.45839  0.80357  0.70687  1.0000
  H   H490      1.0  0.37953  0.96257  0.90542  1.0000
  H   H491      1.0  0.34060  0.92910  0.69905  1.0000
  C   C282      1.0  0.27802  0.90193  0.76398  1.0000
  H   H492      1.0  0.28592  0.89478  0.93449  1.0000
  H   H493      1.0  0.26915  0.69470  0.95743  1.0000
  H   H494      1.0  0.28735  0.79648  0.83224  1.0000
  C   C283      1.0  0.42389  0.91529  0.78778  1.0000
  C   C284      1.0  0.48583  0.79365  0.70675  1.0000
  H   H495      1.0  0.44294  0.81478  0.83887  1.0000
  C   C285      1.0  0.40914  0.93248  0.75732  1.0000
  H   H496      1.0  0.38927  0.93294  0.69411  1.0000
  H   H497      1.0  0.31656  0.88883  0.96759  1.0000
  C   C286      1.0  0.11046  0.51638  0.85911  1.0000
  H   H498      1.0  0.48147  0.92456  0.77788  1.0000
  H   H499      1.0  0.40717  0.89343  0.79333  1.0000
  H   H500      1.0  0.40959  0.91316  0.73848  1.0000
  H   H501      1.0  0.09122  0.51390  0.83884  1.0000
  H   H502      1.0  0.29629  0.94791  0.74532  1.0000
  C   C287      1.0  0.34415  0.92074  0.76418  1.0000
  H   H503      1.0  0.47278  0.89130  0.80529  1.0000
  C   C288      1.0  0.39319  0.76897  0.89481  1.0000
  H   H504      1.0  0.33395  0.88721  0.92756  1.0000
  H   H505      1.0  0.46446  0.77811  0.82354  1.0000
  H   H506      1.0  0.25363  0.78529  0.94101  1.0000
  H   H507      1.0  0.41643  0.76900  0.91177  1.0000
  H   H508      1.0  0.13599  0.52776  0.85012  1.0000
  H   H509      1.0  0.36148  0.79946  0.64923  1.0000
  H   H510      1.0  0.28127  0.83820  0.95950  1.0000
  H   H511      1.0  0.32857  0.83124  0.95049  1.0000
  C   C289      1.0  0.46884  0.80059  0.83813  1.0000
  C   C290      1.0  0.37163  0.97089  0.78856  1.0000
  C   C291      1.0  0.34455  0.85028  0.64714  1.0000
  H   H512      1.0  0.35736  0.95417  0.64747  1.0000
  C   C292      1.0  0.11917  0.48264  0.87355  1.0000
  C   C293      1.0  0.35772  0.96927  0.66953  1.0000
  H   H513      1.0  0.24454  0.73071  0.97074  1.0000
  C   C294      1.0  0.36521  0.96729  0.72960  1.0000
  H   H514      1.0  0.07306  0.48139  0.90582  1.0000
  C   C295      1.0  0.30933  0.47365  0.80969  1.0000
  H   H515      1.0  0.29324  0.72710  0.97787  1.0000
  H   H516      1.0  0.50173  0.84389  0.83936  1.0000
  H   H517      1.0  0.54030  0.21823  0.17055  1.0000
  H   H518      1.0  0.71297  0.11431  0.01929  1.0000
  Fe  Fe33      1.0  0.86645  0.36170  0.01017  1.0000
  H   H519      1.0  0.76460  0.44273  0.07335  1.0000
  S   S65       1.0  0.85661  0.31883  0.04590  1.0000
  Fe  Fe34      1.0  0.84902  0.43421  0.99780  1.0000
  C   C296      1.0  0.67429  0.07944  0.03957  1.0000
  H   H520      1.0  0.73284  0.44294  0.15076  1.0000
  S   S66       1.0  0.88721  0.40914  0.03160  1.0000
  Fe  Fe35      1.0  0.71362  0.18726  0.14347  1.0000
  S   S67       1.0  0.74646  0.15090  0.17305  1.0000
  S   S68       1.0  0.72985  0.23000  0.10931  1.0000
  Fe  Fe36      1.0  0.64109  0.15395  0.16329  1.0000
  S   S69       1.0  0.66852  0.11577  0.19336  1.0000
  S   S70       1.0  0.57979  0.15195  0.15674  1.0000
  Fe  Fe37      1.0  0.70312  0.15722  0.21122  1.0000
  S   S71       1.0  0.71015  0.16668  0.26471  1.0000
  Fe  Fe38      1.0  0.70884  0.11168  0.15303  1.0000
  S   S72       1.0  0.72441  0.05858  0.14044  1.0000
  S   S73       1.0  0.67292  0.19632  0.18315  1.0000
  S   S74       1.0  0.67879  0.14714  0.12146  1.0000
  C   C297      1.0  0.61224  0.03450  0.03437  1.0000
  C   C298      1.0  0.70449  0.13714  0.29566  1.0000
  H   H521      1.0  0.53926  0.26066  0.15940  1.0000
  H   H522      1.0  0.63625  0.02720  0.04894  1.0000
  C   C299      1.0  0.72257  0.03924  0.10261  1.0000
  C   C300      1.0  0.75121  0.04357  0.08093  1.0000
  C   C301      1.0  0.75423  0.02316  0.05395  1.0000
  C   C302      1.0  0.72879  0.99801  0.04827  1.0000
  H   H523      1.0  0.88295  0.25022  0.03470  1.0000
  C   C303      1.0  0.69692  0.01415  0.09684  1.0000
  H   H524      1.0  0.77211  0.06162  0.08577  1.0000
  C   C304      1.0  0.58573  0.98338  0.06062  1.0000
  H   H525      1.0  0.81674  0.14472  0.12831  1.0000
  H   H526      1.0  0.67539  0.00980  0.11398  1.0000
  H   H527      1.0  0.55342  0.17409  0.26950  1.0000
  H   H528      1.0  0.60185  0.24094  0.17037  1.0000
  C   C305      1.0  0.55206  0.15307  0.19108  1.0000
  C   C306      1.0  0.56608  0.16242  0.22068  1.0000
  C   C307      1.0  0.54259  0.16575  0.24702  1.0000
  H   H529      1.0  0.50849  0.07741  0.22906  1.0000
  H   H530      1.0  0.59484  0.16795  0.22304  1.0000
  H   H531      1.0  0.71244  0.09446  0.26605  1.0000
  C   C308      1.0  0.82042  0.29573  0.06417  1.0000
  C   C309      1.0  0.82893  0.27345  0.08894  1.0000
  C   C310      1.0  0.80170  0.25377  0.10351  1.0000
  C   C311      1.0  0.76529  0.25599  0.09359  1.0000
  C   C312      1.0  0.75674  0.27842  0.06895  1.0000
  C   C313      1.0  0.78397  0.29807  0.05434  1.0000
  H   H532      1.0  0.85693  0.27128  0.09685  1.0000
  H   H533      1.0  0.80896  0.23679  0.12238  1.0000
  H   H534      1.0  0.72881  0.28033  0.06079  1.0000
  H   H535      1.0  0.77680  0.31469  0.03519  1.0000
  C   C314      1.0  0.88655  0.23366  0.01386  1.0000
  C   C315      1.0  0.62095  0.06594  0.25862  1.0000
  N   N17       1.0  0.79371  0.42094  0.11311  1.0000
  C   C316      1.0  0.83295  0.42068  0.10211  1.0000
  C   C317      1.0  0.76842  0.41806  0.08479  1.0000
  H   H536      1.0  0.59555  0.03272  0.29284  1.0000
  C   C318      1.0  0.78622  0.39425  0.13735  1.0000
  C   C319      1.0  0.79376  0.35817  0.12706  1.0000
  C   C320      1.0  0.86220  0.42629  0.12824  1.0000
  C   C321      1.0  0.78074  0.39536  0.05696  1.0000
  C   C322      1.0  0.74927  0.38900  0.03394  1.0000
  C   C323      1.0  0.79079  0.33466  0.15543  1.0000
  C   C324      1.0  0.90074  0.42407  0.11443  1.0000
  H   H537      1.0  0.83688  0.44004  0.08358  1.0000
  H   H538      1.0  0.84007  0.39717  0.09007  1.0000
  H   H539      1.0  0.74079  0.41012  0.09276  1.0000
  H   H540      1.0  0.72638  0.37648  0.04634  1.0000
  H   H541      1.0  0.87883  0.19024  0.04175  1.0000
  H   H542      1.0  0.80163  0.39911  0.15967  1.0000
  H   H543      1.0  0.75708  0.39472  0.14462  1.0000
  H   H544      1.0  0.82138  0.35491  0.11675  1.0000
  H   H545      1.0  0.77292  0.35020  0.10954  1.0000
  H   H546      1.0  0.87383  0.18451  0.99922  1.0000
  H   H547      1.0  0.85998  0.40743  0.14728  1.0000
  H   H548      1.0  0.80294  0.40759  0.04342  1.0000
  H   H549      1.0  0.79145  0.37129  0.06497  1.0000
  H   H550      1.0  0.67133  0.03728  0.26243  1.0000
  H   H551      1.0  0.60391  0.98559  0.01218  1.0000
  H   H552      1.0  0.51069  0.09280  0.02724  1.0000
  H   H553      1.0  0.76321  0.33619  0.16639  1.0000
  H   H554      1.0  0.79526  0.30889  0.14729  1.0000
  H   H555      1.0  0.81178  0.34053  0.17361  1.0000
  H   H556      1.0  0.90569  0.39930  0.10389  1.0000
  H   H557      1.0  0.66445  0.01230  0.00177  1.0000
  H   H558      1.0  0.59557  0.05129  0.04965  1.0000
  S   S75       1.0  0.98796  0.42474  0.99898  1.0000
  C   C325      1.0  0.59011  0.00230  0.02934  1.0000
  Fe  Fe39      1.0  0.92792  0.41163  0.99147  1.0000
  C   C326      1.0  0.69975  0.99389  0.06956  1.0000
  H   H559      1.0  0.63583  0.08974  0.25817  1.0000
  H   H560      1.0  0.61278  0.97683  0.07075  1.0000
  H   H561      1.0  0.77575  0.00042  0.13668  1.0000
  H   H562      1.0  0.71770  0.10723  0.06154  1.0000
  H   H563      1.0  0.86393  0.13438  0.01801  1.0000
  H   H564      1.0  0.91625  0.22934  0.01045  1.0000
  H   H565      1.0  0.66249  0.07497  0.06359  1.0000
  H   H566      1.0  0.63314  0.01487  0.24580  1.0000
  H   H567      1.0  0.52598  0.27203  0.22110  1.0000
  C   C327      1.0  0.78657  0.45393  0.12888  1.0000
  C   C328      1.0  0.76359  0.18749  0.03373  1.0000
  C   C329      1.0  0.64335  0.08367  0.01481  1.0000
  C   C330      1.0  0.64708  0.03916  0.24670  1.0000
  C   C331      1.0  0.59096  0.06134  0.98588  1.0000
  H   H568      1.0  0.84251  0.15713  0.06620  1.0000
  C   C332      1.0  0.58330  0.24737  0.19040  1.0000
  H   H569      1.0  0.60658  0.12636  0.28831  1.0000
  H   H570      1.0  0.65664  0.04541  0.22232  1.0000
  H   H571      1.0  0.68064  0.13232  0.04716  1.0000
  H   H572      1.0  0.54532  0.03921  0.26217  1.0000
  H   H573      1.0  0.73950  0.41263  0.02346  1.0000
  C   C333      1.0  0.60723  0.05805  0.29278  1.0000
  H   H574      1.0  0.60810  0.18267  0.30947  1.0000
  H   H575      1.0  0.87566  0.24617  0.99230  1.0000
  C   C334      1.0  0.54367  0.24375  0.17966  1.0000
  H   H576      1.0  0.90478  0.44330  0.09587  1.0000
  H   H577      1.0  0.69206  0.05829  0.03332  1.0000
  C   C335      1.0  0.81421  0.16682  0.06564  1.0000
  H   H578      1.0  0.69535  0.21917  0.98394  1.0000
  H   H579      1.0  0.83117  0.10762  0.03596  1.0000
  H   H580      1.0  0.81993  0.22710  0.03801  1.0000
  H   H581      1.0  0.52833  0.10500  0.29640  1.0000
  C   C336      1.0  0.78921  0.14128  0.08243  1.0000
  N   N18       1.0  0.62468  0.05223  0.00458  1.0000
  N   N19       1.0  0.58060  0.08247  0.30693  1.0000
  C   C337      1.0  0.51469  0.14626  0.18825  1.0000
  C   C338      1.0  0.70723  0.10324  0.28996  1.0000
  C   C339      1.0  0.80818  0.12548  0.11104  1.0000
  H   H582      1.0  0.51437  0.04487  0.29507  1.0000
  H   H583      1.0  0.81483  0.18904  0.08126  1.0000
  H   H584      1.0  0.62310  0.10106  0.02553  1.0000
  C   C340      1.0  0.86720  0.20081  0.01966  1.0000
  H   H585      1.0  0.55750  0.10171  0.26323  1.0000
  H   H586      1.0  0.75996  0.20617  0.05271  1.0000
  C   C341      1.0  0.52727  0.05723  0.27437  1.0000
  H   H587      1.0  0.57011  0.99831  0.07816  1.0000
  C   C342      1.0  0.83705  0.12264  0.01446  1.0000
  H   H588      1.0  0.77694  0.02638  0.03776  1.0000
  H   H589      1.0  0.78094  0.12137  0.06588  1.0000
  H   H590      1.0  0.76406  0.15371  0.09130  1.0000
  H   H591      1.0  0.83244  0.11107  0.10328  1.0000
  H   H592      1.0  0.80146  0.45567  0.15190  1.0000
  H   H593      1.0  0.58891  0.27317  0.19780  1.0000
  H   H594      1.0  0.75868  0.37275  0.01430  1.0000
  H   H595      1.0  0.59811  0.06741  0.24138  1.0000
  H   H596      1.0  0.56224  0.00792  0.02044  1.0000
  H   H597      1.0  0.73012  0.46552  0.11396  1.0000
  H   H598      1.0  0.58934  0.23047  0.21056  1.0000
  C   C343      1.0  0.69781  0.11034  0.04187  1.0000
  N   N20       1.0  0.80300  0.17643  0.03230  1.0000
  C   C344      1.0  0.54862  0.08832  0.28501  1.0000
  H   H599      1.0  0.78903  0.10841  0.12324  1.0000
  H   H600      1.0  0.52125  0.22853  0.22387  1.0000
  C   C345      1.0  0.51668  0.24992  0.20764  1.0000
  H   H601      1.0  0.85943  0.45122  0.13892  1.0000
  H   H602      1.0  0.74560  0.16662  0.04052  1.0000
  H   H603      1.0  0.50811  0.06294  0.99515  1.0000
  H   H604      1.0  0.51257  0.30820  0.16560  1.0000
  H   H605      1.0  0.70735  0.05450  0.31077  1.0000
  H   H606      1.0  0.57241  0.07653  0.00101  1.0000
  C   C346      1.0  0.82537  0.20579  0.02186  1.0000
  H   H607      1.0  0.75304  0.18663  0.98191  1.0000
  H   H608      1.0  0.92109  0.42812  0.13360  1.0000
  C   C347      1.0  0.50522  0.15872  0.24422  1.0000
  H   H609      1.0  0.63206  0.05623  0.30793  1.0000
  H   H610      1.0  0.65482  0.09716  0.99418  1.0000
  C   C348      1.0  0.74599  0.46240  0.13627  1.0000
  H   H611      1.0  0.82358  0.99202  0.14201  1.0000
  H   H612      1.0  0.79142  0.97959  0.17223  1.0000
  C   C349      1.0  0.70611  0.20712  0.00577  1.0000
  C   C350      1.0  0.79568  0.98225  0.14616  1.0000
  C   C351      1.0  0.64920  0.02934  0.98566  1.0000
  H   H613      1.0  0.69944  0.22304  0.02656  1.0000
  H   H614      1.0  0.67989  0.97478  0.06521  1.0000
  C   C352      1.0  0.80617  0.14834  0.00873  1.0000
  H   H615      1.0  0.75910  0.22745  0.99843  1.0000
  H   H616      1.0  0.83795  0.15030  0.30989  1.0000
  H   H617      1.0  0.81713  0.21415  0.99770  1.0000
  H   H618      1.0  0.78041  0.13378  0.00802  1.0000
  H   H619      1.0  0.69238  0.18290  0.00868  1.0000
  C   C353      1.0  0.74743  0.20258  0.00283  1.0000
  H   H620      1.0  0.50373  0.13943  0.16532  1.0000
  C   C354      1.0  0.60000  0.11489  0.31173  1.0000
  H   H621      1.0  0.86205  0.08026  0.99142  1.0000
  C   C355      1.0  0.84034  0.09876  0.98643  1.0000
  H   H622      1.0  0.80941  0.15830  0.98415  1.0000
  H   H623      1.0  0.81424  0.08540  0.98269  1.0000
  C   C356      1.0  0.78790  0.06339  0.58577  1.0000
  Fe  Fe40      1.0  0.62963  0.04805  0.48341  1.0000
  S   S76       1.0  0.65932  0.01435  0.45025  1.0000
  S   S77       1.0  0.56866  0.03914  0.49132  1.0000
  Fe  Fe41      1.0  0.69986  0.08745  0.49990  1.0000
  S   S78       1.0  0.73252  0.05474  0.46684  1.0000
  S   S79       1.0  0.74101  0.12401  0.52256  1.0000
  Fe  Fe42      1.0  0.68667  0.06014  0.43168  1.0000
  S   S80       1.0  0.69390  0.06135  0.37735  1.0000
  Fe  Fe43      1.0  0.70188  0.01243  0.48844  1.0000
  H   H624      1.0  0.99078  0.25070  0.57881  1.0000
  S   S81       1.0  0.65482  0.09472  0.46316  1.0000
  S   S82       1.0  0.67120  0.04411  0.52300  1.0000
  C   C357      1.0  0.69777  0.09146  0.34670  1.0000
  H   H625      1.0  0.62635  0.16913  0.34735  1.0000
  H   H626      1.0  0.91562  0.44375  0.52485  1.0000
  H   H627      1.0  0.90955  0.39718  0.55347  1.0000
  C   C358      1.0  0.66409  0.07753  0.60125  1.0000
  C   C359      1.0  0.69413  0.12535  0.35233  1.0000
  C   C360      1.0  0.56358  0.97931  0.45908  1.0000
  H   H628      1.0  0.97724  0.38155  0.53624  1.0000
  H   H629      1.0  0.68828  0.13409  0.37607  1.0000
  C   C361      1.0  0.54710  0.00155  0.48015  1.0000
  H   H630      1.0  0.57372  0.13290  0.35596  1.0000
  C   C362      1.0  0.90839  0.41893  0.46512  1.0000
  C   C363      1.0  0.93836  0.41091  0.48923  1.0000
  C   C364      1.0  0.76651  0.20455  0.59844  1.0000
  C   C365      1.0  0.79376  0.19204  0.57829  1.0000
  C   C366      1.0  0.78536  0.16752  0.55541  1.0000
  C   C367      1.0  0.74963  0.15511  0.55204  1.0000
  C   C368      1.0  0.72242  0.16747  0.57226  1.0000
  C   C369      1.0  0.73083  0.19192  0.59520  1.0000
  C   C370      1.0  0.69822  0.14806  0.32704  1.0000
  H   H631      1.0  0.80683  0.15793  0.54032  1.0000
  H   H632      1.0  0.69481  0.15833  0.57020  1.0000
  H   H633      1.0  0.70944  0.20124  0.61057  1.0000
  C   C371      1.0  0.83993  0.45069  0.54942  1.0000
  C   C372      1.0  0.76745  0.03029  0.63153  1.0000
  C   C373      1.0  0.86520  0.44677  0.60285  1.0000
  C   C374      1.0  0.85361  0.41379  0.60560  1.0000
  C   C375      1.0  0.83504  0.39935  0.58013  1.0000
  C   C376      1.0  0.82808  0.41781  0.55229  1.0000
  H   H634      1.0  0.82611  0.37398  0.58182  1.0000
  C   C377      1.0  0.94277  0.43937  0.51361  1.0000
  H   H635      1.0  0.84017  0.04903  0.40475  1.0000
  H   H636      1.0  0.66811  0.09292  0.57961  1.0000
  H   H637      1.0  0.82136  0.20118  0.58045  1.0000
  H   H638      1.0  0.81352  0.40649  0.53275  1.0000
  H   H639      1.0  0.77725  0.38148  0.62944  1.0000
  H   H640      1.0  0.81954  0.12077  0.60729  1.0000
  H   H641      1.0  0.70259  0.98810  0.56167  1.0000
  H   H642      1.0  0.82822  0.14552  0.47393  1.0000
  H   H643      1.0  0.64093  0.06049  0.59688  1.0000
  H   H644      1.0  0.79474  0.01818  0.62950  1.0000
  S   S83       1.0  0.87091  0.29101  0.62937  1.0000
  H   H645      1.0  0.67970  0.19731  0.44614  1.0000
  C   C378      1.0  0.69857  0.05758  0.60857  1.0000
  H   H646      1.0  0.81877  0.07340  0.64409  1.0000
  H   H647      1.0  0.74569  0.19492  0.44246  1.0000
  H   H648      1.0  0.88176  0.42251  0.47740  1.0000
  C   C379      1.0  0.96659  0.46062  0.56396  1.0000
  H   H649      1.0  0.82590  0.22145  0.47102  1.0000
  H   H650      1.0  0.72562  0.18480  0.40465  1.0000
  H   H651      1.0  0.74477  0.05085  0.55195  1.0000
  H   H652      1.0  0.79935  0.06288  0.51975  1.0000
  H   H653      1.0  0.86655  0.19604  0.46754  1.0000
  H   H654      1.0  0.76717  0.01504  0.56890  1.0000
  C   C380      1.0  0.75387  0.39695  0.63742  1.0000
  H   H655      1.0  0.73183  0.09949  0.59534  1.0000
  C   C381      1.0  0.60092  0.17332  0.33356  1.0000
  H   H656      1.0  0.79821  0.02696  0.39786  1.0000
  C   C382      1.0  0.79202  0.08570  0.63944  1.0000
  H   H657      1.0  0.56543  0.02794  0.39260  1.0000
  H   H658      1.0  0.80781  0.04307  0.43688  1.0000
  C   C383      1.0  0.79604  0.03822  0.53098  1.0000
  H   H659      1.0  0.84061  0.19642  0.50401  1.0000
  H   H660      1.0  0.93806  0.45974  0.57305  1.0000
  H   H661      1.0  0.99461  0.30255  0.63219  1.0000
  N   N21       1.0  0.76881  0.06470  0.61767  1.0000
  C   C384      1.0  0.77117  0.04055  0.56015  1.0000
  H   H662      1.0  0.82328  0.16734  0.64427  1.0000
  H   H663      1.0  0.65696  0.09384  0.62160  1.0000
  H   H664      1.0  0.58449  0.19249  0.34596  1.0000
  C   C385      1.0  0.57900  0.14139  0.33129  1.0000
  S   S84       1.0  0.77517  0.23537  0.62825  1.0000
  C   C386      1.0  0.97967  0.27163  0.59291  1.0000
  H   H665      1.0  0.67536  0.15590  0.43129  1.0000
  H   H666      1.0  0.90493  0.35099  0.59092  1.0000
  H   H667      1.0  0.59898  0.05069  0.41462  1.0000
  H   H668      1.0  0.81694  0.05580  0.58914  1.0000
  H   H669      1.0  0.78818  0.17097  0.47739  1.0000
  H   H670      1.0  0.98384  0.45535  0.58516  1.0000
  C   C387      1.0  0.56663  0.06879  0.33807  1.0000
  S   S85       1.0  0.83042  0.47268  0.51378  1.0000
  H   H671      1.0  0.91509  0.44167  0.45160  1.0000
  H   H672      1.0  0.98903  0.43436  0.42630  1.0000
  C   C388      1.0  0.85866  0.46507  0.57484  1.0000
  H   H673      1.0  0.54399  0.08438  0.34744  1.0000
  C   C389      1.0  0.73154  0.08065  0.61467  1.0000
  H   H674      1.0  0.83639  0.12538  0.36344  1.0000
  H   H675      1.0  0.75861  0.42288  0.62988  1.0000
  H   H676      1.0  0.69277  0.04226  0.62987  1.0000
  H   H677      1.0  0.69610  0.17425  0.33169  1.0000
  H   H678      1.0  0.78862  0.08831  0.57458  1.0000
  H   H679      1.0  0.95497  0.26294  0.60578  1.0000
  H   H680      1.0  0.87966  0.45816  0.62239  1.0000
  H   H681      1.0  0.50616  0.00584  0.41525  1.0000
  H   H682      1.0  0.70362  0.04064  0.58848  1.0000
  H   H683      1.0  0.92920  0.40753  0.59141  1.0000
  C   C390      1.0  0.59557  0.06430  0.36475  1.0000
  H   H684      1.0  0.61022  0.08758  0.36994  1.0000
  H   H685      1.0  0.90562  0.39825  0.44796  1.0000
  H   H686      1.0  0.52352  0.09838  0.47735  1.0000
  H   H687      1.0  0.69604  0.16334  0.46992  1.0000
  H   H688      1.0  0.77467  0.13382  0.61985  1.0000
  N   N22       1.0  0.78880  0.14268  0.41438  1.0000
  C   C391      1.0  0.78486  0.14925  0.37920  1.0000
  C   C392      1.0  0.75116  0.14223  0.42909  1.0000
  C   C393      1.0  0.81206  0.16941  0.42882  1.0000
  C   C394      1.0  0.80694  0.10976  0.42052  1.0000
  C   C395      1.0  0.79147  0.08000  0.40166  1.0000
  C   C396      1.0  0.82057  0.14834  0.35937  1.0000
  C   C397      1.0  0.81525  0.16880  0.46572  1.0000
  C   C398      1.0  0.73040  0.17578  0.42922  1.0000
  C   C399      1.0  0.69312  0.17271  0.44516  1.0000
  C   C400      1.0  0.81072  0.04790  0.41096  1.0000
  H   H689      1.0  0.78377  0.02119  0.51328  1.0000
  C   C401      1.0  0.83856  0.19746  0.47764  1.0000
  H   H690      1.0  0.77277  0.17405  0.37497  1.0000
  H   H691      1.0  0.76519  0.13165  0.36846  1.0000
  H   H692      1.0  0.73346  0.12420  0.41654  1.0000
  H   H693      1.0  0.75229  0.13296  0.45402  1.0000
  H   H694      1.0  0.80218  0.19426  0.42138  1.0000
  H   H695      1.0  0.84044  0.16779  0.41945  1.0000
  H   H696      1.0  0.83678  0.11103  0.41565  1.0000
  H   H697      1.0  0.80477  0.10322  0.44623  1.0000
  H   H698      1.0  0.79504  0.08315  0.37562  1.0000
  H   H699      1.0  0.76202  0.07699  0.40647  1.0000
  H   H700      1.0  0.83815  0.16967  0.36556  1.0000
  H   H701      1.0  0.72880  0.38782  0.62554  1.0000
  C   C402      1.0  0.93292  0.39251  0.56957  1.0000
  H   H702      1.0  0.99046  0.39875  0.57311  1.0000
  H   H703      1.0  0.61607  0.04539  0.35783  1.0000
  H   H704      1.0  0.82324  0.02821  0.53767  1.0000
  H   H705      1.0  0.55681  0.07052  0.40396  1.0000
  S   S86       1.0  0.86437  0.39161  0.64087  1.0000
  H   H706      1.0  0.96408  0.40656  0.47593  1.0000
  C   C403      1.0  0.57787  0.05268  0.39576  1.0000
  H   H707      1.0  0.74892  0.01410  0.61772  1.0000
  H   H708      1.0  0.93048  0.38757  0.50115  1.0000
  C   C404      1.0  0.51208  0.99421  0.49196  1.0000
  H   H709      1.0  0.97151  0.29182  0.57654  1.0000
  C   C405      1.0  0.93159  0.35624  0.57939  1.0000
  H   H710      1.0  0.55240  0.14747  0.32018  1.0000
  C   C406      1.0  0.81212  0.15042  0.32376  1.0000
  C   C407      1.0  0.96992  0.40110  0.55378  1.0000
  H   H711      1.0  0.93422  0.34006  0.55818  1.0000
  H   H712      1.0  0.72448  0.09475  0.63663  1.0000
  H   H713      1.0  0.59026  0.98448  0.44952  1.0000
  N   N23       1.0  0.97205  0.43476  0.53856  1.0000
  C   C408      1.0  0.80008  0.12127  0.62758  1.0000
  H   H714      1.0  0.94798  0.46214  0.49954  1.0000
  H   H715      1.0  0.95361  0.35050  0.59671  1.0000
  H   H716      1.0  0.55445  0.04398  0.33437  1.0000
  C   C409      1.0  0.70434  0.08064  0.31539  1.0000
  H   H717      1.0  0.62693  0.11091  0.32325  1.0000
  H   H718      1.0  0.79543  0.12894  0.31612  1.0000
  H   H719      1.0  0.79691  0.17349  0.31815  1.0000
  Fe  Fe44      1.0  0.83482  0.30102  0.71708  1.0000
  S   S87       1.0  0.84933  0.25165  0.69575  1.0000
  S   S88       1.0  0.81393  0.30436  0.76851  1.0000
  H   H720      1.0  0.70120  0.36066  0.77902  1.0000
  C   C410      1.0  0.98333  0.41006  0.90313  1.0000
  H   H721      1.0  0.00069  0.24178  0.82068  1.0000
  H   H722      1.0  0.78152  0.37887  0.78988  1.0000
  Fe  Fe45      1.0  0.89840  0.27786  0.67583  1.0000
  S   S89       1.0  0.95446  0.25398  0.67927  1.0000
  S   S90       1.0  0.80199  0.31602  0.67402  1.0000
  S   S91       1.0  0.88542  0.32576  0.69976  1.0000
  H   H723      1.0  0.96135  0.31960  0.70682  1.0000
  Fe  Fe46      1.0  0.87230  0.38989  0.94131  1.0000
  S   S92       1.0  0.87663  0.38639  0.88668  1.0000
  H   H724      1.0  0.85159  0.42863  0.69962  1.0000
  H   H725      1.0  0.83046  0.37866  0.73383  1.0000
  C   C411      1.0  0.75948  0.38307  0.74102  1.0000
  C   C412      1.0  0.83244  0.32648  0.80137  1.0000
  C   C413      1.0  0.81891  0.32048  0.83224  1.0000
  C   C414      1.0  0.83188  0.33844  0.85877  1.0000
  C   C415      1.0  0.85786  0.36332  0.85453  1.0000
  C   C416      1.0  0.87057  0.36984  0.82354  1.0000
  C   C417      1.0  0.85888  0.35093  0.79730  1.0000
  H   H726      1.0  0.79830  0.30174  0.83569  1.0000
  H   H727      1.0  0.82162  0.33320  0.88239  1.0000
  H   H728      1.0  0.89011  0.38945  0.81993  1.0000
  H   H729      1.0  0.86993  0.35557  0.77389  1.0000
  H   H730      1.0  0.72745  0.45696  0.70340  1.0000
  H   H731      1.0  0.54191  0.07226  0.93601  1.0000
  H   H732      1.0  0.78782  0.46296  0.72452  1.0000
  C   C418      1.0  0.74940  0.39473  0.67357  1.0000
  C   C419      1.0  0.99207  0.32612  0.81696  1.0000
  H   H733      1.0  0.70777  0.99952  0.95419  1.0000
  C   C420      1.0  0.67870  0.04551  0.96416  1.0000
  C   C421      1.0  0.75513  0.38346  0.77781  1.0000
  H   H734      1.0  0.77613  0.44773  0.76256  1.0000
  H   H735      1.0  0.93994  0.35305  0.81795  1.0000
  C   C422      1.0  0.90338  0.24549  0.77056  1.0000
  C   C423      1.0  0.73092  0.45329  0.72939  1.0000
  H   H736      1.0  0.89263  0.31211  0.90413  1.0000
  C   C424      1.0  0.96370  0.28595  0.85437  1.0000
  H   H737      1.0  0.77041  0.35833  0.73414  1.0000
  C   C425      1.0  0.74516  0.99296  0.67632  1.0000
  H   H738      1.0  0.54793  0.11061  0.95727  1.0000
  C   C426      1.0  0.85111  0.42827  0.72599  1.0000
  H   H739      1.0  0.61509  0.10155  0.95683  1.0000
  H   H740      1.0  0.95368  0.22997  0.79126  1.0000
  H   H741      1.0  0.73895  0.33179  0.78131  1.0000
  H   H742      1.0  0.73143  0.38388  0.73118  1.0000
  H   H743      1.0  0.56603  0.10573  0.91762  1.0000
  H   H744      1.0  0.79831  0.14508  0.67418  1.0000
  C   C427      1.0  0.88919  0.41820  0.73733  1.0000
  H   H745      1.0  0.74399  0.40741  0.78618  1.0000
  H   H746      1.0  0.71677  0.03239  0.92649  1.0000
  S   S93       1.0  0.82626  0.38686  0.97728  1.0000
  C   C428      1.0  0.82149  0.40444  0.73911  1.0000
  C   C429      1.0  0.78438  0.40675  0.69087  1.0000
  H   H747      1.0  0.97961  0.41086  0.92937  1.0000
  C   C430      1.0  0.98569  0.30570  0.71222  1.0000
  H   H748      1.0  0.80576  0.38864  0.68373  1.0000
  N   N24       1.0  0.97769  0.29131  0.82099  1.0000
  C   C431      1.0  0.93004  0.30665  0.86440  1.0000
  C   C432      1.0  0.94887  0.28410  0.79624  1.0000
  H   H749      1.0  0.93798  0.29976  0.91551  1.0000
  H   H750      1.0  0.67396  0.01066  0.92473  1.0000
  H   H751      1.0  0.82255  0.40711  0.76541  1.0000
  H   H752      1.0  0.96035  0.28837  0.77205  1.0000
  N   N25       1.0  0.78313  0.40982  0.72682  1.0000
  H   H753      1.0  0.79284  0.43054  0.67979  1.0000
  C   C433      1.0  0.98201  0.38705  0.80514  1.0000
  H   H754      1.0  0.71147  0.43435  0.73788  1.0000
  H   H755      1.0  0.76736  0.97520  0.67047  1.0000
  S   S94       1.0  0.89087  0.43979  0.95903  1.0000
  C   C434      1.0  0.77101  0.44391  0.73669  1.0000
  H   H756      1.0  0.84615  0.45379  0.73455  1.0000
  C   C435      1.0  0.72895  0.35648  0.78890  1.0000
  Fe  Fe47      1.0  0.85423  0.33777  0.65490  1.0000
  H   H757      1.0  0.91944  0.24329  0.81959  1.0000
  C   C436      1.0  0.96531  0.35259  0.80401  1.0000
  H   H758      1.0  0.90704  0.30363  0.84755  1.0000
  Fe  Fe48      1.0  0.82024  0.26794  0.65101  1.0000
  C   C437      1.0  0.56098  0.09288  0.94057  1.0000
  H   H759      1.0  0.91527  0.25037  0.74666  1.0000
  H   H760      1.0  0.89055  0.41826  0.76376  1.0000
  S   S95       1.0  0.91140  0.36167  0.97278  1.0000
  H   H761      1.0  0.77929  0.03534  0.68245  1.0000
  H   H762      1.0  0.74411  0.36843  0.67943  1.0000
  H   H763      1.0  0.71993  0.98547  0.66365  1.0000
  H   H764      1.0  0.89217  0.22006  0.77068  1.0000
  C   C438      1.0  0.53446  0.99604  0.94482  1.0000
  C   C439      1.0  0.98945  0.27330  0.70131  1.0000
  H   H765      1.0  0.84772  0.11224  0.96431  1.0000
  H   H766      1.0  0.72493  0.40908  0.68035  1.0000
  H   H767      1.0  0.90966  0.43593  0.72802  1.0000
  H   H768      1.0  0.92536  0.30132  0.79822  1.0000
  H   H769      1.0  0.88057  0.26304  0.77487  1.0000
  C   C440      1.0  0.69521  0.02043  0.94104  1.0000
  H   H770      1.0  0.73976  0.99169  0.70232  1.0000
  H   H771      1.0  0.72719  0.35666  0.81531  1.0000
  H   H772      1.0  0.89637  0.39326  0.72833  1.0000
  H   H773      1.0  0.63232  0.01277  0.97047  1.0000
  C   C441      1.0  0.59700  0.07993  0.95407  1.0000
  H   H774      1.0  0.95739  0.25942  0.85836  1.0000
  C   C442      1.0  0.91630  0.29640  0.89733  1.0000
  H   H775      1.0  0.60883  0.06280  0.93614  1.0000
  H   H776      1.0  0.93748  0.33311  0.86604  1.0000
  H   H777      1.0  0.66780  0.06618  0.94985  1.0000
  H   H778      1.0  0.95820  0.34736  0.77880  1.0000
  H   H779      1.0  0.90730  0.27026  0.89718  1.0000
  H   H780      1.0  0.96275  0.40512  0.79442  1.0000
  H   H781      1.0  0.98531  0.29186  0.87201  1.0000
  C   C443      1.0  0.93251  0.24886  0.79637  1.0000
  C   C444      1.0  0.81733  0.14229  0.65373  1.0000
  H   H782      1.0  0.54784  0.01265  0.92841  1.0000
  C   C445      1.0  0.75598  0.02811  0.66706  1.0000
  H   H783      1.0  0.98620  0.38397  0.89542  1.0000
  H   H784      1.0  0.73274  0.04486  0.67238  1.0000
  H   H785      1.0  0.77858  0.08851  0.66308  1.0000
  H   H786      1.0  0.98702  0.39438  0.83018  1.0000
  H   H787      1.0  0.95837  0.42052  0.89193  1.0000
  H   H788      1.0  0.84331  0.13104  0.66206  1.0000
  H   H789      1.0  0.70126  0.05530  0.97901  1.0000
  H   H790      1.0  0.57529  0.03899  0.97939  1.0000
  Fe  Fe49      1.0  0.84272  0.61165  0.15382  1.0000
  S   S96       1.0  0.87453  0.64539  0.12187  1.0000
  S   S97       1.0  0.81787  0.56241  0.13918  1.0000
  Fe  Fe50      1.0  0.85415  0.65491  0.21288  1.0000
  S   S98       1.0  0.88589  0.69236  0.18421  1.0000
  S   S99       1.0  0.85457  0.66456  0.26675  1.0000
  Fe  Fe51      1.0  0.84324  0.68705  0.14553  1.0000
  S   S100      1.0  0.82825  0.73299  0.11479  1.0000
  Fe  Fe52      1.0  0.91388  0.64846  0.16289  1.0000
  S   S101      1.0  0.97507  0.64330  0.15657  1.0000
  S   S102      1.0  0.80901  0.65279  0.17596  1.0000
  S   S103      1.0  0.88457  0.61146  0.19301  1.0000
  C   C446      1.0  0.78270  0.60165  0.00974  1.0000
  H   H791      1.0  0.89189  0.53261  0.23863  1.0000
  Fe  Fe53      1.0  0.68662  0.85499  0.00763  1.0000
  H   H792      1.0  0.90236  0.72339  0.02048  1.0000
  S   S104      1.0  0.69909  0.80978  0.04014  1.0000
  Fe  Fe54      1.0  0.70017  0.92882  0.99850  1.0000
  H   H793      1.0  0.51531  0.91650  0.07905  1.0000
  S   S105      1.0  0.66314  0.90064  0.03098  1.0000
  H   H794      1.0  0.83651  0.54228  0.26962  1.0000
  H   H795      1.0  0.86816  0.67226  0.01090  1.0000
  C   C447      1.0  0.79167  0.75374  0.09425  1.0000
  C   C448      1.0  0.75498  0.74465  0.09750  1.0000
  C   C449      1.0  0.72730  0.76200  0.08079  1.0000
  C   C450      1.0  0.73563  0.78853  0.06024  1.0000
  C   C451      1.0  0.77239  0.79717  0.05654  1.0000
  C   C452      1.0  0.80002  0.78014  0.07357  1.0000
  H   H796      1.0  0.74784  0.72451  0.11321  1.0000
  H   H797      1.0  0.69908  0.75485  0.08390  1.0000
  H   H798      1.0  0.77959  0.81695  0.04050  1.0000
  H   H799      1.0  0.82819  0.78743  0.07057  1.0000
  C   C453      1.0  0.81989  0.54389  0.10095  1.0000
  C   C454      1.0  0.78732  0.54063  0.08387  1.0000
  C   C455      1.0  0.78540  0.51996  0.05716  1.0000
  C   C456      1.0  0.81588  0.50176  0.04713  1.0000
  C   C457      1.0  0.79144  0.94902  0.12939  1.0000
  C   C458      1.0  0.85085  0.52618  0.09067  1.0000
  H   H800      1.0  0.76295  0.55313  0.09210  1.0000
  H   H801      1.0  0.84135  0.70806  0.00057  1.0000
  H   H802      1.0  0.82923  0.61913  0.03658  1.0000
  H   H803      1.0  0.68395  0.92397  0.09222  1.0000
  H   H804      1.0  0.73469  0.95296  0.12053  1.0000
  H   H805      1.0  0.95770  0.66154  0.22199  1.0000
  H   H806      1.0  0.76846  0.59229  0.03126  1.0000
  H   H807      1.0  0.75684  0.61364  0.12864  1.0000
  C   C459      1.0  0.84891  0.50525  0.06371  1.0000
  S   S106      1.0  0.73499  0.97243  0.01446  1.0000
  H   H808      1.0  0.81577  0.60193  0.27422  1.0000
  C   C460      1.0  0.80270  0.57249  0.99446  1.0000
  H   H809      1.0  0.90108  0.56128  0.30564  1.0000
  H   H810      1.0  0.89816  0.58183  0.26891  1.0000
  C   C461      1.0  0.77839  0.63637  0.08581  1.0000
  H   H811      1.0  0.77626  0.87501  0.02801  1.0000
  C   C462      1.0  0.82298  0.68228  0.04418  1.0000
  H   H812      1.0  0.73146  0.64924  0.11538  1.0000
  C   C463      1.0  0.85028  0.63617  0.29890  1.0000
  H   H813      1.0  0.63122  0.89484  0.14197  1.0000
  C   C464      1.0  0.96387  0.59542  0.29036  1.0000
  H   H814      1.0  0.86707  0.73851  0.04669  1.0000
  H   H815      1.0  0.94850  0.57951  0.23007  1.0000
  H   H816      1.0  0.99516  0.57194  0.18574  1.0000
  H   H817      1.0  0.67676  0.93938  0.13186  1.0000
  C   C465      1.0  0.85513  0.52196  0.27678  1.0000
  H   H818      1.0  0.74466  0.93781  0.15935  1.0000
  C   C466      1.0  0.97078  0.53456  0.29709  1.0000
  H   H819      1.0  0.72738  0.61019  0.09456  1.0000
  N   N26       1.0  0.74574  0.90031  0.12279  1.0000
  C   C467      1.0  0.76917  0.87712  0.14224  1.0000
  C   C468      1.0  0.75237  0.93531  0.13376  1.0000
  C   C469      1.0  0.70629  0.89210  0.12991  1.0000
  C   C470      1.0  0.75212  0.89702  0.08729  1.0000
  C   C471      1.0  0.79146  0.88796  0.07638  1.0000
  C   C472      1.0  0.76025  0.83987  0.13856  1.0000
  H   H820      1.0  0.91053  0.50645  0.26909  1.0000
  H   H821      1.0  0.82443  0.56303  0.01052  1.0000
  Fe  Fe55      1.0  0.62251  0.90307  0.99069  1.0000
  C   C473      1.0  0.79567  0.89154  0.04039  1.0000
  C   C474      1.0  0.79083  0.81816  0.15186  1.0000
  C   C475      1.0  0.67743  0.91674  0.11694  1.0000
  H   H822      1.0  0.76651  0.88302  0.16807  1.0000
  H   H823      1.0  0.79857  0.88044  0.13696  1.0000
  C   C476      1.0  0.91077  0.55987  0.28065  1.0000
  C   C477      1.0  0.96231  0.55954  0.24395  1.0000
  H   H824      1.0  0.70178  0.89018  0.15612  1.0000
  H   H825      1.0  0.69930  0.86740  0.11995  1.0000
  H   H826      1.0  0.73418  0.87760  0.07687  1.0000
  H   H827      1.0  0.74393  0.92023  0.07487  1.0000
  H   H828      1.0  0.79780  0.86193  0.08253  1.0000
  H   H829      1.0  0.81248  0.90350  0.08768  1.0000
  H   H830      1.0  0.73495  0.83383  0.15194  1.0000
  H   H831      1.0  0.75574  0.83322  0.11328  1.0000
  C   C478      1.0  0.98772  0.52671  0.06029  1.0000
  H   H832      1.0  0.75055  0.66414  0.99477  1.0000
  H   H833      1.0  0.81251  0.93227  0.13926  1.0000
  H   H834      1.0  0.99358  0.59895  0.28658  1.0000
  H   H835      1.0  0.75977  0.51741  0.04464  1.0000
  H   H836      1.0  0.71365  0.50017  0.15994  1.0000
  C   C479      1.0  0.76486  0.65513  0.05583  1.0000
  H   H837      1.0  0.79053  0.91744  0.03287  1.0000
  H   H838      1.0  0.57085  0.96004  0.05612  1.0000
  H   H839      1.0  0.99662  0.66507  0.27026  1.0000
  H   H840      1.0  0.81594  0.82066  0.13720  1.0000
  H   H841      1.0  0.79698  0.82485  0.17692  1.0000
  H   H842      1.0  0.78229  0.79189  0.15134  1.0000
  H   H843      1.0  0.61914  0.92038  0.10832  1.0000
  N   N27       1.0  0.79311  0.66129  0.03036  1.0000
  H   H844      1.0  0.95280  0.53585  0.23362  1.0000
  H   H845      1.0  0.97437  0.51230  0.28180  1.0000
  C   C480      1.0  0.77474  0.67846  0.00270  1.0000
  H   H846      1.0  0.74022  0.71470  0.02827  1.0000
  H   H847      1.0  0.79316  0.67917  0.98161  1.0000
  C   C481      1.0  0.63910  0.90194  0.11736  1.0000
  H   H848      1.0  0.63784  0.87983  0.10173  1.0000
  N   N28       1.0  0.95190  0.56186  0.27878  1.0000
  H   H849      1.0  0.97369  0.51526  0.03961  1.0000
  C   C482      1.0  0.88067  0.71590  0.03747  1.0000
  H   H850      1.0  0.87586  0.52761  0.10425  1.0000
  H   H851      1.0  0.81118  0.70436  0.05581  1.0000
  H   H852      1.0  0.94990  0.61514  0.27628  1.0000
  H   H853      1.0  0.79346  0.61351  0.07968  1.0000
  C   C483      1.0  0.76098  0.71423  0.00906  1.0000
  C   C484      1.0  0.74642  0.62685  0.10731  1.0000
  H   H854      1.0  0.75373  0.67889  0.06491  1.0000
  H   H855      1.0  0.83734  0.66880  0.06354  1.0000
  H   H856      1.0  0.74091  0.64190  0.04576  1.0000
  H   H857      1.0  0.78317  0.55212  0.98985  1.0000
  C   C485      1.0  0.85302  0.69376  0.02065  1.0000
  C   C486      1.0  0.98637  0.65511  0.22062  1.0000
  H   H858      1.0  0.79668  0.65243  0.09999  1.0000
  H   H859      1.0  0.79682  0.95335  0.10369  1.0000
  H   H860      1.0  0.89361  0.70260  0.05771  1.0000
  H   H861      1.0  0.82382  0.88454  0.03316  1.0000
  C   C487      1.0  0.89371  0.52881  0.26481  1.0000
  H   H862      1.0  0.84487  0.49876  0.26600  1.0000
  C   C488      1.0  0.82940  0.60748  0.29641  1.0000
  H   H863      1.0  0.78363  0.73086  0.01592  1.0000
  C   C489      1.0  0.80985  0.62944  0.01866  1.0000
  H   H864      1.0  0.97741  0.55236  0.06305  1.0000
  H   H865      1.0  0.87267  0.49138  0.05614  1.0000
  H   H866      1.0  0.85479  0.51914  0.30311  1.0000
  S   S107      1.0  0.56244  0.91621  0.99958  1.0000
  H   H867      1.0  0.75422  0.51548  0.14095  1.0000
  C   C490      1.0  0.74281  0.49468  0.15492  1.0000
  H   H868      1.0  0.76189  0.61050  0.99259  1.0000
  H   H869      1.0  0.82686  0.63414  0.99716  1.0000
  H   H870      1.0  0.50465  0.96927  0.05255  1.0000
  H   H871      1.0  0.99702  0.77412  0.12178  1.0000
  C   C491      1.0  0.00157  0.64530  0.19155  1.0000
  H   H872      1.0  0.52692  0.94968  0.10568  1.0000
  H   H873      1.0  0.75762  0.49291  0.17793  1.0000
  H   H874      1.0  0.73348  0.75450  0.98485  1.0000
  H   H875      1.0  0.98091  0.51221  0.08195  1.0000
  H   H876      1.0  0.99901  0.54233  0.30339  1.0000
  H   H877      1.0  0.79736  0.47433  0.11376  1.0000
  C   C492      1.0  0.50400  0.93739  0.09315  1.0000
  S   S108      1.0  0.81021  0.47478  0.01424  1.0000
  Fe  Fe56      1.0  0.85363  0.52213  0.49729  1.0000
  S   S109      1.0  0.89270  0.55509  0.52366  1.0000
  H   H878      1.0  0.61789  0.83105  0.52614  1.0000
  Fe  Fe57      1.0  0.85750  0.56468  0.43583  1.0000
  S   S110      1.0  0.89704  0.59963  0.45851  1.0000
  S   S111      1.0  0.83637  0.56536  0.38439  1.0000
  Fe  Fe58      1.0  0.92493  0.55396  0.47762  1.0000
  H   H879      1.0  0.69459  0.72296  0.36071  1.0000
  Fe  Fe59      1.0  0.86037  0.59763  0.50226  1.0000
  S   S112      1.0  0.84369  0.64850  0.52353  1.0000
  S   S113      1.0  0.88739  0.51932  0.45263  1.0000
  S   S114      1.0  0.81946  0.56435  0.47819  1.0000
  H   H880      1.0  0.60233  0.78389  0.58210  1.0000
  S   S115      1.0  0.67768  0.80505  0.62011  1.0000
  C   C493      1.0  0.95811  0.60293  0.32610  1.0000
  H   H881      1.0  0.80832  0.56469  0.32092  1.0000
  H   H882      1.0  0.94193  0.54223  0.34346  1.0000
  C   C494      1.0  0.56871  0.89049  0.59119  1.0000
  C   C495      1.0  0.71582  0.91372  0.59855  1.0000
  C   C496      1.0  0.70692  0.94724  0.59454  1.0000
  H   H883      1.0  0.64986  0.93838  0.52242  1.0000
  C   C497      1.0  0.72186  0.94431  0.53821  1.0000
  C   C498      1.0  0.73004  0.91062  0.54204  1.0000
  C   C499      1.0  0.72662  0.89525  0.57202  1.0000
  H   H884      1.0  0.73946  0.89644  0.52180  1.0000
  H   H885      1.0  0.73376  0.86948  0.57484  1.0000
  C   C500      1.0  0.81363  0.66716  0.55236  1.0000
  C   C501      1.0  0.79600  0.64907  0.57628  1.0000
  C   C502      1.0  0.77303  0.66515  0.59865  1.0000
  C   C503      1.0  0.76700  0.69955  0.59755  1.0000
  C   C504      1.0  0.78439  0.71762  0.57348  1.0000
  C   C505      1.0  0.80762  0.70157  0.55128  1.0000
  H   H886      1.0  0.80023  0.62268  0.57770  1.0000
  H   H887      1.0  0.78034  0.74404  0.57219  1.0000
  H   H888      1.0  0.82111  0.71603  0.53311  1.0000
  C   C506      1.0  0.98767  0.48376  0.44564  1.0000
  H   H889      1.0  0.86871  0.68806  0.39121  1.0000
  C   C507      1.0  0.60980  0.78944  0.55699  1.0000
  C   C508      1.0  0.84243  0.59331  0.35210  1.0000
  C   C509      1.0  0.86349  0.62191  0.35459  1.0000
  C   C510      1.0  0.86685  0.64348  0.32830  1.0000
  H   H890      1.0  0.69817  0.96159  0.61484  1.0000
  H   H891      1.0  0.75983  0.65075  0.61702  1.0000
  H   H892      1.0  0.87752  0.62723  0.37658  1.0000
  C   C511      1.0  0.82518  0.58646  0.32296  1.0000
  C   C512      1.0  0.96409  0.52097  0.58016  1.0000
  S   S116      1.0  0.71655  0.89704  0.63750  1.0000
  H   H893      1.0  0.96929  0.54661  0.57192  1.0000
  H   H894      1.0  0.62198  0.88796  0.54259  1.0000
  S   S117      1.0  0.73849  0.71842  0.62740  1.0000
  H   H895      1.0  0.52325  0.91401  0.54696  1.0000
  H   H896      1.0  0.98685  0.47876  0.33367  1.0000
  H   H897      1.0  0.95005  0.65592  0.31958  1.0000
  C   C513      1.0  0.59232  0.93280  0.53412  1.0000
  H   H898      1.0  0.76737  0.61252  0.52022  1.0000
  H   H899      1.0  0.55372  0.83058  0.53618  1.0000
  H   H900      1.0  0.96255  0.64369  0.35937  1.0000
  H   H901      1.0  0.86774  0.49039  0.57302  1.0000
  H   H902      1.0  0.55997  0.91677  0.59271  1.0000
  H   H903      1.0  0.54927  0.87687  0.60675  1.0000
  C   C514      1.0  0.69476  0.70985  0.38395  1.0000
  H   H904      1.0  0.62852  0.89856  0.59332  1.0000
  H   H905      1.0  0.55853  0.82966  0.57823  1.0000
  H   H906      1.0  0.68486  0.72713  0.40263  1.0000
  H   H907      1.0  0.59037  0.88508  0.51095  1.0000
  C   C515      1.0  0.84488  0.74156  0.63485  1.0000
  H   H908      1.0  0.93477  0.51897  0.58668  1.0000
  C   C516      1.0  0.60902  0.82668  0.55111  1.0000
  H   H909      1.0  0.63775  0.77975  0.55259  1.0000
  H   H910      1.0  0.59053  0.77662  0.54080  1.0000
  H   H911      1.0  0.73910  0.64887  0.52580  1.0000
  C   C517      1.0  0.96745  0.63882  0.33369  1.0000
  H   H912      1.0  0.59575  0.94382  0.55810  1.0000
  H   H913      1.0  0.95863  0.48672  0.44232  1.0000
  C   C518      1.0  0.95167  0.52201  0.32796  1.0000
  H   H914      1.0  0.88272  0.66581  0.33063  1.0000
  C   C519      1.0  0.60643  0.88701  0.60748  1.0000
  H   H915      1.0  0.61288  0.86059  0.61149  1.0000
  H   H916      1.0  0.89732  0.67514  0.42383  1.0000
  H   H917      1.0  0.71847  0.60875  0.52208  1.0000
  C   C520      1.0  0.52852  0.88706  0.54480  1.0000
  S   S118      1.0  0.98667  0.54563  0.47467  1.0000
  H   H918      1.0  0.55894  0.93290  0.43425  1.0000
  H   H919      1.0  0.87023  0.71216  0.42752  1.0000
  H   H920      1.0  0.67588  0.68851  0.38234  1.0000
  N   N29       1.0  0.56602  0.87825  0.55734  1.0000
  H   H921      1.0  0.92954  0.59872  0.33343  1.0000
  C   C521      1.0  0.57005  0.84100  0.55619  1.0000
  H   H922      1.0  0.99577  0.58591  0.40749  1.0000
  H   H923      1.0  0.62947  0.83809  0.56695  1.0000
  C   C522      1.0  0.59365  0.89453  0.53572  1.0000
  H   H924      1.0  0.87155  0.75009  0.62539  1.0000
  H   H925      1.0  0.75350  0.56304  0.39966  1.0000
  H   H926      1.0  0.56626  0.94166  0.52375  1.0000
  C   C523      1.0  0.54560  0.95004  0.45027  1.0000
  C   C524      1.0  0.97353  0.49681  0.55346  1.0000
  N   N30       1.0  0.76906  0.66007  0.43014  1.0000
  C   C525      1.0  0.73546  0.68093  0.42452  1.0000
  C   C526      1.0  0.77049  0.65042  0.46488  1.0000
  C   C527      1.0  0.80191  0.68152  0.42342  1.0000
  C   C528      1.0  0.77080  0.62986  0.40898  1.0000
  C   C529      1.0  0.73388  0.61395  0.39923  1.0000
  C   C530      1.0  0.73348  0.69811  0.39149  1.0000
  C   C531      1.0  0.83963  0.66626  0.43149  1.0000
  C   C532      1.0  0.73873  0.62894  0.47754  1.0000
  C   C533      1.0  0.74117  0.62459  0.51361  1.0000
  C   C534      1.0  0.73977  0.58055  0.38314  1.0000
  C   C535      1.0  0.87078  0.68676  0.41757  1.0000
  H   H927      1.0  0.73359  0.70078  0.44287  1.0000
  H   H928      1.0  0.71018  0.66636  0.42774  1.0000
  H   H929      1.0  0.79547  0.63572  0.46990  1.0000
  H   H930      1.0  0.77254  0.67292  0.48010  1.0000
  H   H931      1.0  0.79978  0.70529  0.43672  1.0000
  H   H932      1.0  0.80299  0.68813  0.39769  1.0000
  H   H933      1.0  0.78521  0.63543  0.38621  1.0000
  H   H934      1.0  0.78783  0.61036  0.42044  1.0000
  H   H935      1.0  0.71926  0.62998  0.38202  1.0000
  H   H936      1.0  0.71553  0.61004  0.41978  1.0000
  H   H937      1.0  0.75148  0.72016  0.39133  1.0000
  H   H938      1.0  0.74272  0.68143  0.37212  1.0000
  H   H939      1.0  0.84189  0.64074  0.42222  1.0000
  H   H940      1.0  0.84372  0.66569  0.45761  1.0000
  H   H941      1.0  0.71170  0.64000  0.47242  1.0000
  H   H942      1.0  0.74037  0.60388  0.46697  1.0000
  C   C536      1.0  0.70947  0.96236  0.56446  1.0000
  H   H943      1.0  0.97649  0.58726  0.34073  1.0000
  H   H944      1.0  0.99663  0.64389  0.32830  1.0000
  H   H945      1.0  0.71306  0.56992  0.37613  1.0000
  H   H946      1.0  0.75676  0.58341  0.36140  1.0000
  H   H947      1.0  0.98118  0.51609  0.60148  1.0000
  S   S119      1.0  0.72808  0.96319  0.50054  1.0000
  H   H948      1.0  0.95656  0.50348  0.53257  1.0000
  H   H949      1.0  0.52682  0.88139  0.51881  1.0000
  H   H950      1.0  0.83797  0.71790  0.62299  1.0000
  C   C537      1.0  0.62292  0.94610  0.51303  1.0000
  H   H951      1.0  0.96266  0.49110  0.36915  1.0000
  H   H952      1.0  0.62010  0.93684  0.48828  1.0000
  C   C538      1.0  0.60637  0.90349  0.64021  1.0000
  C   C539      1.0  0.97731  0.50034  0.34774  1.0000
  H   H953      1.0  0.60024  0.93025  0.63803  1.0000
  C   C540      1.0  0.51043  0.94295  0.46166  1.0000
  H   H954      1.0  0.82377  0.76034  0.62889  1.0000
  H   H955      1.0  0.92744  0.50691  0.32187  1.0000
  H   H956      1.0  0.51038  0.96252  0.37528  1.0000
  Fe  Fe60      1.0  0.71326  0.76766  0.64579  1.0000
  H   H957      1.0  0.62189  0.97350  0.51257  1.0000
  H   H958      1.0  0.00124  0.51475  0.35590  1.0000
  H   H959      1.0  0.63373  0.90071  0.65127  1.0000
  S   S120      1.0  0.74385  0.80674  0.67358  1.0000
  H   H960      1.0  0.73744  0.71855  0.69583  1.0000
  Fe  Fe61      1.0  0.63898  0.80065  0.66169  1.0000
  S   S121      1.0  0.66480  0.84077  0.69038  1.0000
  H   H961      1.0  0.84927  0.78069  0.73960  1.0000
  C   C541      1.0  0.89477  0.67170  0.73634  1.0000
  Fe  Fe62      1.0  0.70035  0.80163  0.71150  1.0000
  S   S122      1.0  0.71239  0.79379  0.76470  1.0000
  H   H962      1.0  0.65856  0.75809  0.79996  1.0000
  S   S123      1.0  0.67162  0.76067  0.68530  1.0000
  S   S124      1.0  0.64194  0.85471  0.96990  1.0000
  Fe  Fe63      1.0  0.67992  0.88579  0.94004  1.0000
  S   S125      1.0  0.68155  0.88740  0.88517  1.0000
  H   H963      1.0  0.60162  0.88747  0.88366  1.0000
  S   S126      1.0  0.65837  0.93403  0.95979  1.0000
  C   C542      1.0  0.70297  0.82009  0.79785  1.0000
  C   C543      1.0  0.69077  0.85262  0.79411  1.0000
  C   C544      1.0  0.68409  0.87258  0.82110  1.0000
  C   C545      1.0  0.68932  0.86038  0.85222  1.0000
  C   C546      1.0  0.70095  0.82767  0.85596  1.0000
  C   C547      1.0  0.70792  0.80778  0.82896  1.0000
  H   H964      1.0  0.68693  0.86256  0.77044  1.0000
  H   H965      1.0  0.67519  0.89784  0.81784  1.0000
  H   H966      1.0  0.70512  0.81787  0.87964  1.0000
  H   H967      1.0  0.71729  0.78267  0.83222  1.0000
  C   C548      1.0  0.54702  0.79197  0.68341  1.0000
  C   C549      1.0  0.55704  0.76789  0.70566  1.0000
  C   C550      1.0  0.84743  0.73652  0.67082  1.0000
  N   N31       1.0  0.80711  0.72410  0.72103  1.0000
  H   H968      1.0  0.72248  0.48360  0.77174  1.0000
  H   H969      1.0  0.58431  0.75759  0.70517  1.0000
  H   H970      1.0  0.91225  0.68767  0.72118  1.0000
  C   C551      1.0  0.53123  0.75615  0.72779  1.0000
  H   H971      1.0  0.59833  0.82599  0.87517  1.0000
  C   C552      1.0  0.77832  0.69880  0.72935  1.0000
  H   H972      1.0  0.85824  0.75944  0.68140  1.0000
  H   H973      1.0  0.82208  0.79370  0.70579  1.0000
  C   C553      1.0  0.80773  0.81630  0.74987  1.0000
  H   H974      1.0  0.82727  0.83700  0.74707  1.0000
  H   H975      1.0  0.78457  0.67483  0.71755  1.0000
  H   H976      1.0  0.76895  0.76478  0.72522  1.0000
  H   H977      1.0  0.57909  0.86601  0.91561  1.0000
  H   H978      1.0  0.54925  0.82876  0.87702  1.0000
  C   C554      1.0  0.79530  0.75654  0.73556  1.0000
  H   H979      1.0  0.52890  0.78342  0.80154  1.0000
  H   H980      1.0  0.62311  0.73226  0.81623  1.0000
  H   H981      1.0  0.55240  0.88868  0.88694  1.0000
  C   C555      1.0  0.82129  0.78626  0.73119  1.0000
  H   H982      1.0  0.76306  0.73042  0.95951  1.0000
  C   C556      1.0  0.80982  0.72670  0.68512  1.0000
  H   H983      1.0  0.60808  0.88415  0.72149  1.0000
  H   H984      1.0  0.53983  0.78805  0.84212  1.0000
  H   H985      1.0  0.72233  0.65941  0.70265  1.0000
  H   H986      1.0  0.58298  0.96643  0.95243  1.0000
  H   H987      1.0  0.79004  0.75333  0.76155  1.0000
  H   H988      1.0  0.60136  0.87738  0.77873  1.0000
  C   C557      1.0  0.71357  0.67775  0.72080  1.0000
  H   H989      1.0  0.90024  0.67714  0.76182  1.0000
  Fe  Fe64      1.0  0.70544  0.84336  0.65030  1.0000
  H   H990      1.0  0.63524  0.72919  0.77467  1.0000
  C   C558      1.0  0.73856  0.70786  0.72005  1.0000
  S   S127      1.0  0.57791  0.80583  0.65388  1.0000
  H   H991      1.0  0.55541  0.81576  0.76091  1.0000
  H   H992      1.0  0.86507  0.72999  0.73004  1.0000
  H   H993      1.0  0.61058  0.78341  0.76313  1.0000
  H   H994      1.0  0.56028  0.88440  0.73143  1.0000
  H   H995      1.0  0.84012  0.71502  0.76280  1.0000
  H   H996      1.0  0.57703  0.75952  0.78392  1.0000
  H   H997      1.0  0.53870  0.73662  0.74410  1.0000
  C   C559      1.0  0.99255  0.48574  0.96787  1.0000
  C   C560      1.0  0.53480  0.80240  0.81994  1.0000
  C   C561      1.0  0.84235  0.71320  0.73637  1.0000
  N   N32       1.0  0.56806  0.82229  0.81095  1.0000
  C   C562      1.0  0.60108  0.80000  0.81238  1.0000
  C   C563      1.0  0.57396  0.85070  0.83363  1.0000
  H   H998      1.0  0.53842  0.85276  0.77757  1.0000
  C   C564      1.0  0.56241  0.83588  0.77788  1.0000
  C   C565      1.0  0.59475  0.85571  0.76373  1.0000
  C   C566      1.0  0.60322  0.77261  0.78658  1.0000
  H   H999      1.0  0.96357  0.48379  0.96336  1.0000
  C   C567      1.0  0.57438  0.84185  0.86960  1.0000
  C   C568      1.0  0.57704  0.87295  0.89008  1.0000
  H   H1000     1.0  0.58594  0.89160  0.65606  1.0000
  C   C569      1.0  0.63183  0.74651  0.79496  1.0000
  H   H1001     1.0  0.60252  0.78766  0.83603  1.0000
  H   H1002     1.0  0.62668  0.81457  0.81073  1.0000
  H   H1003     1.0  0.60077  0.86266  0.82892  1.0000
  H   H1004     1.0  0.55339  0.87054  0.82958  1.0000
  H   H1005     1.0  0.61959  0.84016  0.76155  1.0000
  H   H1006     1.0  0.71377  0.66616  0.74477  1.0000
  C   C570      1.0  0.58527  0.86883  0.73062  1.0000
  H   H1007     1.0  0.58086  0.84807  0.71386  1.0000
  H   H1008     1.0  0.68519  0.68553  0.71516  1.0000
  H   H1009     1.0  0.80514  0.81044  0.77562  1.0000
  H   H1010     1.0  0.78917  0.74456  0.67601  1.0000
  H   H1011     1.0  0.77831  0.69376  0.75547  1.0000
  H   H1012     1.0  0.78076  0.82461  0.74076  1.0000
  H   H1013     1.0  0.72724  0.72619  0.73710  1.0000
  H   H1014     1.0  0.84996  0.67123  0.70316  1.0000
  H   H1015     1.0  0.90215  0.64555  0.73160  1.0000
  H   H1016     1.0  0.83832  0.65963  0.74312  1.0000
  C   C571      1.0  0.85447  0.67731  0.72861  1.0000
  H   H1017     1.0  0.73873  0.50608  0.73721  1.0000
  H   H1018     1.0  0.99803  0.53279  0.94393  1.0000
  H   H1019     1.0  0.81521  0.57990  0.97145  1.0000
  C   C572      1.0  0.55448  0.96974  0.95835  1.0000
  H   H1020     1.0  0.69198  0.49250  0.73919  1.0000
  C   C573      1.0  0.51134  0.80478  0.68405  1.0000
  H   H1021     1.0  0.80244  0.70287  0.67353  1.0000
  H   H1022     1.0  0.50330  0.82326  0.66681  1.0000
  C   C574      1.0  0.72055  0.48587  0.74542  1.0000
  S   S128      1.0  0.72569  0.88343  0.97625  1.0000
  H   H1023     1.0  0.71924  0.71414  0.97201  1.0000
  H   H1024     1.0  0.86796  0.71680  0.67487  1.0000
  C   C575      1.0  0.74315  0.72906  0.97944  1.0000
  C   C576      1.0  0.53764  0.94799  0.97965  1.0000
