data_image0
_chemical_formula_structural       FeS2FeS2FeSFeS3HFeS2H4CHFeS2H2CHCSHSH4FeS2H7CH3C2HCHCH2C6H2C4HCHCH3C7H4C6H2NC9H4CH2CH6FeHCH6CHC4NSHC3HCH2FeC2FeCSH6CH11CH2CH3CHSH8C2H4CH9CH3C3H3CH3NCH2CH3CHCHCH2CH2C2SH3CH4C2H7CH2NH5NH3FeH2CH2CHFeCHCHCHCHC3HNHSC2H2SHCHC2HCH6FeS2FeS2FeS2FeSFeS3HSCFeS2CH6C2HCH4C2HC6H4CH7C7H4CH4CH3SCH5NHCH2CH10CHCHCH3NHC3HCH3CH5CH3C2H4CH3CH3CHCHCH2C3H9NC7H2C3H14SH2C2H7CHNC4FeC7H11CH6CH4SH4NC10HCH8CH4NHCSH2S2C4HCH2CH2CFe2S2FeS2FeSFeS3FeS2HCH8SCFeS2FeS2C2HSH2CH3CHCH3C4HCH3C2H4C6H4C6H4C3HCNC11H27C3H4CHC4H2CH4CHCHFeC2H8C2HCHNHC2H3C3HSC2H14NHCHNH7C2H3C4H2CHCH5C2HCH2FeH2CH6NC7H2C3H14CH4CH2CH6CH6C4NC2SH2C2H6SFeS2CFeS2FeS2FeSFeS3FeS2C2H2CHFeS2CHFeHCHNCH2C2FeH2C6H4C2H5C2H5C6H5CH4NC12H16CH12C2HC3HNCHC2HC2H2C2H8CH3SH10SHCHC3H4SH7CH2CHCH5CHCH2CFeC2SH4CH8SCH2CHFeCH2CH4CHNC4H2C3H2CH3CH6CSH2SC2H2CHCH4NH2C4HCFeS2FeS2FeSFeS3FeS2FeS2FeSFeS3FeS2NH2CHFeS2H5C2H3CHC4H3C6H4CH3C6H4C2H2C5HCH2C2H4CH2CHCH2C3H2CHCH3C2H5C3FeH5CHC3H5CH3CH2CH2C2HCHC2H10C2H3SC3H2C2NC2H3CH3C2H4SH2CH12C2NH3NC12H33C4HC2HCHCHC3HCH5CH3CH2SH2FeS2FeS2FeS2FeS2FeSFeS3FeS2FeS2FeSFeS3C2H3CH3C6H4C3HFeHC6H4C6HCH4C2HFeH4C2H5CSH5C2H13CH3CH4CNC12H23CH5SH3CH6CH2CH2C2HCHCHFeH2C2HCH2CSHCH3NHC2H2SH2CH5C2H7CHC2HCH4C2H4C2HC3H3C5HNC2H6CH5CH2NH2CH7C6FeS2FeSHFeSFeS3FeS2FeS2FeSFeS3FeS2FeS2HC4HC6H4C2H3CH3C6H4C6H6CH8C4HC3H3C3HCH4CH2NH3C2H2C3HCH5CH3CH5CH3C2HCH5CH3C2HCH3CHC2H2C2H7NH2CHCH9CH2CH4CH3CH5NC7H3C2HCH6CH7NHC2H4C2H2NC8HC2H13SH3CHSH5CHCH3NH2CHCFeHSCH3C3H6CHFeS2HCHCHSFeS2HC2H2FeS2FeS2FeSFeHS2FeS2FeS2FeSFeS3HCH7C6H6C3HC6H4C6H11C2H3CHSHNH2C2H3CHCH6CH2CHC2H3CH2FeCFeC2NH2CH5CH3CSCH2CSH2C3HC2HCHCHCH2CH2CHCH3NC12H24CHCHCH3CH5CH2SCHFeH3CNHCH2C3H5C2H3CHC2SC2HCH3C2HCHCHCH2C2SCHCH8C2H2CH2C2NH2CH4FeS2FeS2FeSFeS3FeS2FeS2NHSNHNFeSHC2H3CH2C4H5C3H2C2HCHC6H4C6H4C2SHC2HSC2H2SH3C2H3CH4C2H2C4H2CHFeH3CHCHNC12H34CH3C3HCHC2H2CH2CSCHCH5CH6C2H4NH2C2H2C2H8CH2C2H2C2H3SH4C3H5CH4CFeCH5FeH3CFeS2H6FeS2FeS2FeSFeS3FeS2FeSC3H2C3H5CH4CH3C6H4C2H4CH2C8H6NCH3SC2H5C2H9CH2C2HNCH4CH6CH9CHC4H4CH2CH6SH2CHC2H3C2H3CHC3HCH2FeCH3CHCHCHCH6NCHCH4CHC3HNC7H2C3H14CHCH15CHC2SCHSCNHSH3C2FeSHCHC5HCH7CH2FeH4C2H2CH3C3HC2SCH2CH2SHFeS2FeS2FeSFeS3FeS2FeS2FeS2CH3C2NH4C2HC2H3C6H4C6H4C3HC4HC2NC9FeCH18FeSHCH4CH7CSH4C3H3SH2SH13CH8SC4H2CSCFeC2HC2H2CHCH2NHC2H4CH3C2H2C2HFeH4NC8HC3H28CHC3HC2H3CH3CH9CHCHNHCH3CH2C3H2CHCH2C2HC2H2CHCNH4CHCH7CH2CH3SHFeS2H4CHFeS2FeS2FeSFeS3FeS2H5CFeSH5CH3CHCHCHC2HC7H4C4HCHCH2SHC2H2C6H4CH3CH5CHNC9HCH8CH4CH5C2H8NC10H21CHCH2CH2NHNCHCH6NH2C3H3CH5SH3CH2CHC3H2CH3CH4CH3SH3CH3CHCHCHCH2CHCSH2CH3CHC2H2C2HCHC2SH5CHCH2CH6CH3CH2CHFe2HCNSH2CH
_chemical_formula_sum              "Fe128 S256 H2048 C1152 N64"
_cell_length_a       62.3656
_cell_length_b       62.3198
_cell_length_c       46.4854
_cell_angle_alpha    89.094
_cell_angle_beta     89.1939
_cell_angle_gamma    89.258

_space_group_name_H-M_alt    "P 1"
_space_group_IT_number       1

loop_
  _space_group_symop_operation_xyz
  'x, y, z'

loop_
  _atom_site_type_symbol
  _atom_site_label
  _atom_site_symmetry_multiplicity
  _atom_site_fract_x
  _atom_site_fract_y
  _atom_site_fract_z
  _atom_site_occupancy
  Fe  Fe1       1.0  0.08936  0.37550  0.20501  1.0000
  S   S1        1.0  0.08887  0.35243  0.24288  1.0000
  S   S2        1.0  0.08876  0.36861  0.15632  1.0000
  Fe  Fe2       1.0  0.08093  0.41477  0.24466  1.0000
  S   S3        1.0  0.07895  0.39398  0.28449  1.0000
  S   S4        1.0  0.07068  0.44942  0.25192  1.0000
  Fe  Fe3       1.0  0.10814  0.37715  0.26667  1.0000
  S   S5        1.0  0.13877  0.37258  0.29347  1.0000
  Fe  Fe4       1.0  0.05992  0.37160  0.25779  1.0000
  S   S6        1.0  0.02824  0.35652  0.27080  1.0000
  S   S7        1.0  0.11089  0.39903  0.22728  1.0000
  S   S8        1.0  0.05976  0.39356  0.21951  1.0000
  H   H1        1.0  0.08642  0.36306  0.09512  1.0000
  Fe  Fe5       1.0  0.18145  0.37736  0.46021  1.0000
  S   S9        1.0  0.21283  0.39192  0.44675  1.0000
  S   S10       1.0  0.15430  0.36858  0.42968  1.0000
  H   H2        1.0  0.22031  0.29657  0.31898  1.0000
  H   H3        1.0  0.08313  0.39719  0.34939  1.0000
  H   H4        1.0  0.28883  0.10396  0.14491  1.0000
  H   H5        1.0  0.08594  0.46858  0.31553  1.0000
  C   C1        1.0  0.17040  0.18459  0.09105  1.0000
  H   H6        1.0  0.21283  0.32970  0.36200  1.0000
  Fe  Fe6       1.0  0.27478  0.10160  0.03547  1.0000
  S   S11       1.0  0.23948  0.09562  0.03087  1.0000
  S   S12       1.0  0.28276  0.10452  0.08379  1.0000
  H   H7        1.0  0.25701  0.05441  0.11682  1.0000
  H   H8        1.0  0.24073  0.18671  0.07936  1.0000
  C   C2        1.0  0.03215  0.40348  0.15297  1.0000
  H   H9        1.0  0.99176  0.23806  0.07483  1.0000
  C   C3        1.0  0.29857  0.32743  0.47730  1.0000
  S   S13       1.0  0.28375  0.07493  0.00526  1.0000
  H   H10       1.0  0.21689  0.35688  0.39628  1.0000
  S   S14       1.0  0.27444  0.12674  0.99988  1.0000
  H   H11       1.0  0.08871  0.33125  0.06342  1.0000
  H   H12       1.0  0.16056  0.19111  0.07308  1.0000
  H   H13       1.0  0.17185  0.19722  0.10748  1.0000
  H   H14       1.0  0.26485  0.13374  0.16262  1.0000
  Fe  Fe7       1.0  0.09554  0.27758  0.02828  1.0000
  S   S15       1.0  0.09480  0.28500  0.07675  1.0000
  S   S16       1.0  0.08186  0.24522  0.01789  1.0000
  H   H15       1.0  0.26420  0.35695  0.37660  1.0000
  H   H16       1.0  0.03055  0.29757  0.14687  1.0000
  H   H17       1.0  0.01616  0.34212  0.08430  1.0000
  H   H18       1.0  0.21804  0.13742  0.05716  1.0000
  H   H19       1.0  0.16201  0.17053  0.10065  1.0000
  H   H20       1.0  0.03795  0.46771  0.29622  1.0000
  H   H21       1.0  0.27256  0.16291  0.07814  1.0000
  C   C4        1.0  0.24177  0.15311  0.11860  1.0000
  H   H22       1.0  0.02629  0.48323  0.32496  1.0000
  H   H23       1.0  0.25804  0.17319  0.01654  1.0000
  H   H24       1.0  0.31024  0.07025  0.18176  1.0000
  C   C5        1.0  0.02898  0.31322  0.03028  1.0000
  C   C6        1.0  0.24206  0.31479  0.34540  1.0000
  H   H25       1.0  0.18328  0.09430  0.09065  1.0000
  C   C7        1.0  0.10314  0.47259  0.22429  1.0000
  H   H26       1.0  0.19618  0.10248  0.05748  1.0000
  C   C8        1.0  0.20026  0.12439  0.09297  1.0000
  H   H27       1.0  0.18921  0.32650  0.40017  1.0000
  H   H28       1.0  0.25430  0.38989  0.40344  1.0000
  C   C9        1.0  0.08414  0.47293  0.24067  1.0000
  C   C10       1.0  0.03050  0.35603  0.12213  1.0000
  C   C11       1.0  0.99721  0.48516  0.20259  1.0000
  C   C12       1.0  0.22548  0.31844  0.37017  1.0000
  C   C13       1.0  0.30647  0.10641  0.10481  1.0000
  C   C14       1.0  0.23346  0.35053  0.39933  1.0000
  H   H29       1.0  0.19035  0.16572  0.06267  1.0000
  H   H30       1.0  0.10872  0.42058  0.37343  1.0000
  C   C15       1.0  0.23830  0.17016  0.07132  1.0000
  C   C16       1.0  0.19788  0.10181  0.08124  1.0000
  C   C17       1.0  0.28592  0.04949  0.14159  1.0000
  C   C18       1.0  0.26049  0.16161  0.06096  1.0000
  H   H31       1.0  0.12007  0.45282  0.28079  1.0000
  C   C19       1.0  0.29697  0.04983  0.21562  1.0000
  H   H32       1.0  0.11007  0.45742  0.21772  1.0000
  C   C20       1.0  0.00499  0.37174  0.26266  1.0000
  H   H33       1.0  0.04333  0.36764  0.12613  1.0000
  H   H34       1.0  0.03735  0.19512  0.06647  1.0000
  H   H35       1.0  0.04645  0.39463  0.16078  1.0000
  C   C21       1.0  0.00642  0.39360  0.25587  1.0000
  C   C22       1.0  0.14250  0.37317  0.33150  1.0000
  C   C23       1.0  0.16328  0.37596  0.34230  1.0000
  C   C24       1.0  0.16715  0.37539  0.37224  1.0000
  C   C25       1.0  0.15028  0.37162  0.39182  1.0000
  C   C26       1.0  0.12948  0.36918  0.38099  1.0000
  C   C27       1.0  0.12557  0.37011  0.35112  1.0000
  H   H36       1.0  0.17653  0.37831  0.32737  1.0000
  H   H37       1.0  0.18321  0.37736  0.38012  1.0000
  H   H38       1.0  0.11631  0.36614  0.39583  1.0000
  H   H39       1.0  0.10958  0.36761  0.34324  1.0000
  C   C28       1.0  0.09057  0.34508  0.13470  1.0000
  C   C29       1.0  0.09366  0.32447  0.14647  1.0000
  C   C30       1.0  0.09506  0.30645  0.12837  1.0000
  C   C31       1.0  0.09332  0.30861  0.09825  1.0000
  C   C32       1.0  0.09007  0.32920  0.08648  1.0000
  C   C33       1.0  0.08874  0.34724  0.10458  1.0000
  H   H40       1.0  0.09525  0.32244  0.16950  1.0000
  H   H41       1.0  0.09769  0.29067  0.13780  1.0000
  N   N1        1.0  0.12597  0.44732  0.32633  1.0000
  C   C34       1.0  0.14479  0.44011  0.34464  1.0000
  C   C35       1.0  0.13360  0.44871  0.29534  1.0000
  C   C36       1.0  0.10824  0.43109  0.32829  1.0000
  C   C37       1.0  0.09729  0.42818  0.35815  1.0000
  C   C38       1.0  0.14365  0.42791  0.28285  1.0000
  C   C39       1.0  0.14550  0.44835  0.37601  1.0000
  C   C40       1.0  0.16301  0.43679  0.39326  1.0000
  C   C41       1.0  0.07801  0.41338  0.35664  1.0000
  C   C42       1.0  0.15439  0.43222  0.25362  1.0000
  H   H42       1.0  0.14590  0.42222  0.34559  1.0000
  H   H43       1.0  0.16024  0.44535  0.33459  1.0000
  H   H44       1.0  0.23024  0.47156  0.38522  1.0000
  H   H45       1.0  0.04071  0.36202  0.17536  1.0000
  C   C43       1.0  0.04124  0.32441  0.20005  1.0000
  H   H46       1.0  0.11450  0.41487  0.32252  1.0000
  H   H47       1.0  0.28983  0.00707  0.02492  1.0000
  C   C44       1.0  0.00834  0.36330  0.13461  1.0000
  H   H48       1.0  0.13082  0.41612  0.27953  1.0000
  H   H49       1.0  0.15584  0.42049  0.29714  1.0000
  H   H50       1.0  0.13011  0.44608  0.38771  1.0000
  H   H51       1.0  0.16380  0.44362  0.41516  1.0000
  H   H52       1.0  0.15940  0.41943  0.39564  1.0000
  H   H53       1.0  0.05404  0.32548  0.18324  1.0000
  Fe  Fe8       1.0  0.22774  0.37057  0.48177  1.0000
  H   H54       1.0  0.16804  0.44331  0.25581  1.0000
  C   C45       1.0  0.01966  0.26879  0.10425  1.0000
  H   H55       1.0  0.14269  0.43925  0.23823  1.0000
  H   H56       1.0  0.01057  0.46303  0.30792  1.0000
  H   H57       1.0  0.26992  0.19201  0.04079  1.0000
  H   H58       1.0  0.01326  0.25665  0.11993  1.0000
  H   H59       1.0  0.19163  0.25212  0.00719  1.0000
  H   H60       1.0  0.05064  0.43270  0.15032  1.0000
  C   C46       1.0  0.28889  0.00879  0.04866  1.0000
  H   H61       1.0  0.02173  0.40148  0.25668  1.0000
  C   C47       1.0  0.24255  0.01039  0.99522  1.0000
  C   C48       1.0  0.19188  0.16668  0.99220  1.0000
  C   C49       1.0  0.04221  0.27540  0.11440  1.0000
  C   C50       1.0  0.30453  0.10575  0.13507  1.0000
  N   N2        1.0  0.01846  0.26018  0.07413  1.0000
  S   S17       1.0  0.26030  0.35136  0.47717  1.0000
  H   H62       1.0  0.24288  0.13032  0.18780  1.0000
  C   C51       1.0  0.03187  0.23978  0.07332  1.0000
  C   C52       1.0  0.02764  0.27564  0.05206  1.0000
  C   C53       1.0  0.01636  0.29782  0.04975  1.0000
  H   H63       1.0  0.28507  0.16893  0.02888  1.0000
  C   C54       1.0  0.02995  0.22600  0.04590  1.0000
  H   H64       1.0  0.19752  0.16033  0.11955  1.0000
  H   H65       1.0  0.03559  0.34046  0.13195  1.0000
  Fe  Fe9       1.0  0.20558  0.41651  0.48110  1.0000
  C   C55       1.0  0.04118  0.28323  0.14535  1.0000
  C   C56       1.0  0.04340  0.20538  0.04846  1.0000
  Fe  Fe10      1.0  0.24863  0.07009  0.99891  1.0000
  C   C57       1.0  0.23149  0.99220  0.00568  1.0000
  S   S18       1.0  0.23408  0.03653  0.00646  1.0000
  H   H66       1.0  0.26282  0.32673  0.42364  1.0000
  H   H67       1.0  0.02777  0.22921  0.09214  1.0000
  H   H68       1.0  0.04922  0.24344  0.07512  1.0000
  H   H69       1.0  0.04508  0.27800  0.05559  1.0000
  H   H70       1.0  0.02687  0.26877  0.03028  1.0000
  H   H71       1.0  0.00925  0.28316  0.10702  1.0000
  C   C58       1.0  0.24901  0.14036  0.16960  1.0000
  H   H72       1.0  0.05383  0.26180  0.11382  1.0000
  H   H73       1.0  0.04855  0.28874  0.10080  1.0000
  H   H74       1.0  0.03570  0.23494  0.02656  1.0000
  H   H75       1.0  0.01319  0.22112  0.04223  1.0000
  H   H76       1.0  0.23441  0.12386  0.08233  1.0000
  H   H77       1.0  0.01514  0.32748  0.17023  1.0000
  H   H78       1.0  0.05744  0.28773  0.15233  1.0000
  H   H79       1.0  0.22626  0.32245  0.44389  1.0000
  H   H80       1.0  0.09573  0.43474  0.31202  1.0000
  H   H81       1.0  0.25518  0.03312  0.14346  1.0000
  H   H82       1.0  0.02049  0.32897  0.02903  1.0000
  C   C59       1.0  0.22073  0.13548  0.08070  1.0000
  H   H83       1.0  0.04694  0.33194  0.21999  1.0000
  H   H84       1.0  0.25702  0.39498  0.36531  1.0000
  C   C60       1.0  0.11829  0.46951  0.33463  1.0000
  H   H85       1.0  0.30086  0.02081  0.05501  1.0000
  H   H86       1.0  0.06051  0.20909  0.05215  1.0000
  H   H87       1.0  0.04240  0.19625  0.02820  1.0000
  C   C61       1.0  0.19250  0.17795  0.07947  1.0000
  H   H88       1.0  0.23844  0.35586  0.42100  1.0000
  S   S19       1.0  0.07635  0.29459  0.99441  1.0000
  H   H89       1.0  0.28872  0.08341  0.22367  1.0000
  H   H90       1.0  0.25947  0.14457  0.05466  1.0000
  H   H91       1.0  0.99054  0.38802  0.38952  1.0000
  H   H92       1.0  0.01146  0.48082  0.18898  1.0000
  H   H93       1.0  0.16499  0.32020  0.44213  1.0000
  H   H94       1.0  0.19969  0.19232  0.06890  1.0000
  H   H95       1.0  0.28138  0.04666  0.20547  1.0000
  H   H96       1.0  0.17894  0.43865  0.38259  1.0000
  C   C62       1.0  0.02291  0.47551  0.30416  1.0000
  C   C63       1.0  0.23313  0.14015  0.14484  1.0000
  H   H97       1.0  0.04474  0.34584  0.08163  1.0000
  H   H98       1.0  0.24752  0.16887  0.12629  1.0000
  H   H99       1.0  0.20025  0.12309  0.11670  1.0000
  H   H100      1.0  0.30602  0.34262  0.47217  1.0000
  C   C64       1.0  0.02943  0.35298  0.08964  1.0000
  H   H101      1.0  0.25632  0.14395  0.11153  1.0000
  H   H102      1.0  0.02436  0.36735  0.20562  1.0000
  H   H103      1.0  0.21198  0.09159  0.08693  1.0000
  H   H104      1.0  0.03810  0.30722  0.20484  1.0000
  H   H105      1.0  0.03573  0.42948  0.18348  1.0000
  H   H106      1.0  0.09134  0.44363  0.36681  1.0000
  H   H107      1.0  0.21719  0.30281  0.37328  1.0000
  H   H108      1.0  0.21768  0.14671  0.15309  1.0000
  H   H109      1.0  0.22840  0.17203  0.05165  1.0000
  C   C65       1.0  0.18873  0.26395  0.98951  1.0000
  H   H110      1.0  0.21265  0.18384  0.11587  1.0000
  H   H111      1.0  0.28406  0.26969  0.41522  1.0000
  H   H112      1.0  0.24301  0.30770  0.29981  1.0000
  C   C66       1.0  0.02071  0.33556  0.18976  1.0000
  C   C67       1.0  0.21952  0.31825  0.42259  1.0000
  C   C68       1.0  0.26881  0.17480  0.03522  1.0000
  H   H113      1.0  0.03517  0.27042  0.16015  1.0000
  H   H114      1.0  0.24047  0.36043  0.35483  1.0000
  H   H115      1.0  0.25114  0.15697  0.17732  1.0000
  C   C69       1.0  0.02421  0.35985  0.18406  1.0000
  H   H116      1.0  0.23116  0.12311  0.13888  1.0000
  H   H117      1.0  0.18567  0.13362  0.08676  1.0000
  H   H118      1.0  0.16059  0.41685  0.24475  1.0000
  N   N3        1.0  0.22669  0.15665  0.09378  1.0000
  C   C70       1.0  0.20741  0.16954  0.10382  1.0000
  H   H119      1.0  0.03166  0.40217  0.12919  1.0000
  H   H120      1.0  0.02690  0.36870  0.07850  1.0000
  C   C71       1.0  0.25904  0.29402  0.41052  1.0000
  H   H121      1.0  0.20757  0.46976  0.40959  1.0000
  H   H122      1.0  0.19512  0.34329  0.43003  1.0000
  H   H123      1.0  0.99759  0.34933  0.13208  1.0000
  C   C72       1.0  0.00983  0.48206  0.25326  1.0000
  H   H124      1.0  0.00033  0.29603  0.04003  1.0000
  C   C73       1.0  0.18139  0.31298  0.44164  1.0000
  H   H125      1.0  0.18031  0.29642  0.43338  1.0000
  C   C74       1.0  0.24727  0.36255  0.37652  1.0000
  H   H126      1.0  0.14546  0.46185  0.29259  1.0000
  H   H127      1.0  0.06585  0.42010  0.34164  1.0000
  C   C75       1.0  0.29910  0.03104  0.15607  1.0000
  H   H128      1.0  0.17131  0.21654  0.00970  1.0000
  H   H129      1.0  0.07049  0.41163  0.37834  1.0000
  C   C76       1.0  0.01108  0.39489  0.16659  1.0000
  C   C77       1.0  0.26593  0.04090  0.12727  1.0000
  S   S20       1.0  0.12436  0.27324  0.99850  1.0000
  H   H130      1.0  0.28829  0.02213  0.17117  1.0000
  H   H131      1.0  0.11281  0.46989  0.35739  1.0000
  H   H132      1.0  0.02373  0.47170  0.24664  1.0000
  C   C78       1.0  0.23084  0.31078  0.31699  1.0000
  H   H133      1.0  0.04526  0.31576  0.03896  1.0000
  H   H134      1.0  0.18750  0.31236  0.46394  1.0000
  H   H135      1.0  0.02201  0.43710  0.15066  1.0000
  H   H136      1.0  0.30159  0.03566  0.22900  1.0000
  C   C79       1.0  0.19593  0.32659  0.42213  1.0000
  C   C80       1.0  0.03520  0.42715  0.15984  1.0000
  H   H137      1.0  0.17893  0.27745  0.99822  1.0000
  H   H138      1.0  0.25311  0.29007  0.43261  1.0000
  H   H139      1.0  0.01461  0.30537  0.07102  1.0000
  H   H140      1.0  0.21879  0.30042  0.42242  1.0000
  H   H141      1.0  0.03038  0.30679  0.00818  1.0000
  H   H142      1.0  0.29349  0.99019  0.08721  1.0000
  H   H143      1.0  0.27263  0.01496  0.05461  1.0000
  C   C81       1.0  0.29356  0.06870  0.23587  1.0000
  H   H144      1.0  0.24976  0.28452  0.39515  1.0000
  H   H145      1.0  0.27043  0.02917  0.11040  1.0000
  N   N4        1.0  0.00774  0.37095  0.16533  1.0000
  H   H146      1.0  0.25228  0.30050  0.35019  1.0000
  H   H147      1.0  0.28076  0.06482  0.25189  1.0000
  H   H148      1.0  0.30851  0.07189  0.24773  1.0000
  H   H149      1.0  0.00828  0.33337  0.20692  1.0000
  H   H150      1.0  0.28893  0.28888  0.38649  1.0000
  N   N5        1.0  0.23394  0.32631  0.39843  1.0000
  H   H151      1.0  0.30312  0.01949  0.13876  1.0000
  H   H152      1.0  0.31609  0.01078  0.20090  1.0000
  H   H153      1.0  0.23066  0.39336  0.38154  1.0000
  Fe  Fe11      1.0  0.23898  0.12005  0.99453  1.0000
  H   H154      1.0  0.26775  0.32295  0.38686  1.0000
  H   H155      1.0  0.21814  0.99438  0.02051  1.0000
  C   C82       1.0  0.24725  0.38666  0.38213  1.0000
  H   H156      1.0  0.23118  0.48422  0.41973  1.0000
  H   H157      1.0  0.29545  0.05777  0.12453  1.0000
  C   C83       1.0  0.31462  0.05491  0.19276  1.0000
  H   H158      1.0  0.28052  0.06158  0.15748  1.0000
  Fe  Fe12      1.0  0.11005  0.24151  0.98665  1.0000
  C   C84       1.0  0.25647  0.31849  0.40452  1.0000
  H   H159      1.0  0.29239  0.29638  0.42358  1.0000
  C   C85       1.0  0.28256  0.28688  0.40878  1.0000
  H   H160      1.0  0.25282  0.32859  0.34205  1.0000
  C   C86       1.0  0.17189  0.20078  0.00036  1.0000
  H   H161      1.0  0.22105  0.32503  0.31047  1.0000
  C   C87       1.0  0.19059  0.18762  0.00347  1.0000
  H   H162      1.0  0.99348  0.25444  0.04330  1.0000
  C   C88       1.0  0.99672  0.23941  0.98663  1.0000
  C   C89       1.0  0.99554  0.25463  0.06706  1.0000
  C   C90       1.0  0.09986  0.47943  0.31637  1.0000
  H   H163      1.0  0.24420  0.46658  0.48031  1.0000
  N   N6        1.0  0.31923  0.03764  0.17107  1.0000
  H   H164      1.0  0.00168  0.37600  0.12003  1.0000
  S   S21       1.0  0.19978  0.45261  0.47197  1.0000
  C   C91       1.0  0.27610  0.32682  0.48136  1.0000
  C   C92       1.0  0.22058  0.48039  0.40154  1.0000
  H   H165      1.0  0.01003  0.40019  0.18941  1.0000
  H   H166      1.0  0.32081  0.10736  0.17594  1.0000
  S   S22       1.0  0.21593  0.15034  0.99743  1.0000
  H   H167      1.0  0.20418  0.19373  0.01478  1.0000
  C   C93       1.0  0.31166  0.30864  0.47979  1.0000
  H   H168      1.0  0.14914  0.46577  0.37581  1.0000
  C   C94       1.0  0.21137  0.47754  0.48146  1.0000
  C   C95       1.0  0.23357  0.48028  0.48285  1.0000
  H   H169      1.0  0.99672  0.47074  0.25838  1.0000
  C   C96       1.0  0.15404  0.19352  0.98533  1.0000
  H   H170      1.0  0.99818  0.40379  0.15509  1.0000
  H   H171      1.0  0.13195  0.48087  0.33319  1.0000
  H   H172      1.0  0.00935  0.22747  0.98859  1.0000
  H   H173      1.0  0.99742  0.45123  0.21471  1.0000
  H   H174      1.0  0.98925  0.42225  0.24325  1.0000
  H   H175      1.0  0.10557  0.48298  0.29412  1.0000
  Fe  Fe13      1.0  0.19126  0.38134  0.52532  1.0000
  S   S23       1.0  0.22302  0.39681  0.51480  1.0000
  S   S24       1.0  0.18580  0.37628  0.57410  1.0000
  Fe  Fe14      1.0  0.09964  0.41069  0.75349  1.0000
  S   S25       1.0  0.07862  0.41005  0.71499  1.0000
  S   S26       1.0  0.11698  0.44141  0.76403  1.0000
  Fe  Fe15      1.0  0.09162  0.36340  0.76924  1.0000
  S   S27       1.0  0.07001  0.35975  0.73076  1.0000
  S   S28       1.0  0.09594  0.33315  0.79817  1.0000
  Fe  Fe16      1.0  0.09496  0.37853  0.70519  1.0000
  S   S29       1.0  0.10250  0.37288  0.65713  1.0000
  Fe  Fe17      1.0  0.05565  0.39159  0.74334  1.0000
  S   S30       1.0  0.02112  0.40400  0.74738  1.0000
  S   S31       1.0  0.11749  0.37999  0.74256  1.0000
  S   S32       1.0  0.07580  0.39434  0.78296  1.0000
  H   H176      1.0  0.02927  0.26024  0.89895  1.0000
  S   S33       1.0  0.24547  0.09383  0.96151  1.0000
  C   C97       1.0  0.17398  0.15941  0.97736  1.0000
  Fe  Fe18      1.0  0.10341  0.28771  0.96341  1.0000
  S   S34       1.0  0.11302  0.31505  0.93236  1.0000
  S   S35       1.0  0.09037  0.25614  0.95000  1.0000
  C   C98       1.0  0.14387  0.45167  0.62270  1.0000
  H   H177      1.0  0.10879  0.48259  0.63469  1.0000
  H   H178      1.0  0.14642  0.44839  0.56236  1.0000
  H   H179      1.0  0.24988  0.30564  0.49058  1.0000
  H   H180      1.0  0.07436  0.25601  0.87159  1.0000
  H   H181      1.0  0.27270  0.27267  0.49494  1.0000
  H   H182      1.0  0.16370  0.42274  0.61422  1.0000
  C   C99       1.0  0.09597  0.44139  0.63133  1.0000
  C   C100      1.0  0.10491  0.46614  0.75375  1.0000
  H   H183      1.0  0.05149  0.33080  0.96657  1.0000
  C   C101      1.0  0.08402  0.46698  0.74335  1.0000
  H   H184      1.0  0.25814  0.04023  0.91412  1.0000
  H   H185      1.0  0.07507  0.45237  0.74125  1.0000
  H   H186      1.0  0.30148  0.22442  0.61256  1.0000
  H   H187      1.0  0.27564  0.16353  0.58499  1.0000
  C   C102      1.0  0.11463  0.43248  0.64969  1.0000
  C   C103      1.0  0.30126  0.14108  0.62430  1.0000
  H   H188      1.0  0.24764  0.14012  0.56560  1.0000
  C   C104      1.0  0.10034  0.32871  0.83573  1.0000
  C   C105      1.0  0.10448  0.34540  0.85459  1.0000
  C   C106      1.0  0.10792  0.34096  0.88411  1.0000
  C   C107      1.0  0.10692  0.31986  0.89536  1.0000
  C   C108      1.0  0.10245  0.30319  0.87661  1.0000
  C   C109      1.0  0.09940  0.30759  0.84701  1.0000
  H   H189      1.0  0.10531  0.36171  0.84635  1.0000
  H   H190      1.0  0.11156  0.35398  0.89828  1.0000
  H   H191      1.0  0.10182  0.28687  0.88478  1.0000
  H   H192      1.0  0.09624  0.29454  0.83266  1.0000
  C   C110      1.0  0.00534  0.47291  0.72615  1.0000
  H   H193      1.0  0.00079  0.27568  0.86933  1.0000
  H   H194      1.0  0.15137  0.30660  0.84890  1.0000
  H   H195      1.0  0.08796  0.45493  0.64258  1.0000
  H   H196      1.0  0.18453  0.28711  0.86714  1.0000
  H   H197      1.0  0.13280  0.46161  0.60946  1.0000
  H   H198      1.0  0.05810  0.48731  0.72875  1.0000
  H   H199      1.0  0.07055  0.34239  0.94121  1.0000
  C   C111      1.0  0.12888  0.46665  0.66821  1.0000
  C   C112      1.0  0.16234  0.37566  0.59669  1.0000
  C   C113      1.0  0.16473  0.37539  0.62682  1.0000
  C   C114      1.0  0.14672  0.37457  0.64564  1.0000
  C   C115      1.0  0.12598  0.37383  0.63459  1.0000
  C   C116      1.0  0.12361  0.37413  0.60447  1.0000
  C   C117      1.0  0.14160  0.37515  0.58564  1.0000
  H   H200      1.0  0.18064  0.37586  0.63570  1.0000
  H   H201      1.0  0.14887  0.37428  0.66868  1.0000
  H   H202      1.0  0.10768  0.37357  0.59559  1.0000
  H   H203      1.0  0.13940  0.37532  0.56260  1.0000
  C   C118      1.0  0.25682  0.14054  0.54495  1.0000
  H   H204      1.0  0.01208  0.36136  0.72470  1.0000
  H   H205      1.0  0.28504  0.12602  0.56272  1.0000
  H   H206      1.0  0.13686  0.42158  0.60036  1.0000
  H   H207      1.0  0.28911  0.14065  0.52912  1.0000
  C   C119      1.0  0.30476  0.07302  0.79374  1.0000
  H   H208      1.0  0.18554  0.28008  0.93739  1.0000
  H   H209      1.0  0.28462  0.02903  0.91933  1.0000
  H   H210      1.0  0.15850  0.28002  0.94854  1.0000
  S   S36       1.0  0.30846  0.09710  0.93573  1.0000
  C   C120      1.0  0.11623  0.48537  0.75652  1.0000
  H   H211      1.0  0.08595  0.41045  0.61515  1.0000
  H   H212      1.0  0.23913  0.24904  0.88728  1.0000
  H   H213      1.0  0.28025  0.05780  0.92025  1.0000
  H   H214      1.0  0.29836  0.08133  0.83801  1.0000
  H   H215      1.0  0.31373  0.23828  0.58223  1.0000
  N   N7        1.0  0.13416  0.44635  0.65189  1.0000
  H   H216      1.0  0.25181  0.15491  0.53213  1.0000
  C   C121      1.0  0.30821  0.12135  0.64196  1.0000
  H   H217      1.0  0.31992  0.99765  0.92259  1.0000
  H   H218      1.0  0.16182  0.24660  0.97443  1.0000
  C   C122      1.0  0.28011  0.28794  0.49015  1.0000
  H   H219      1.0  0.17441  0.14348  0.96844  1.0000
  H   H220      1.0  0.30974  0.98894  0.79728  1.0000
  H   H221      1.0  0.28273  0.12117  0.89264  1.0000
  H   H222      1.0  0.11671  0.46330  0.68550  1.0000
  H   H223      1.0  0.13320  0.20184  0.91032  1.0000
  H   H224      1.0  0.28421  0.13899  0.61863  1.0000
  H   H225      1.0  0.00138  0.31397  0.91082  1.0000
  H   H226      1.0  0.31237  0.00509  0.85937  1.0000
  H   H227      1.0  0.11044  0.21912  0.91800  1.0000
  H   H228      1.0  0.25287  0.12600  0.53266  1.0000
  C   C123      1.0  0.15064  0.43223  0.60398  1.0000
  H   H229      1.0  0.01255  0.28877  0.91993  1.0000
  C   C124      1.0  0.29180  0.28834  0.57425  1.0000
  H   H230      1.0  0.29789  0.11980  0.66153  1.0000
  C   C125      1.0  0.27550  0.04272  0.90972  1.0000
  H   H231      1.0  0.05989  0.23566  0.89146  1.0000
  H   H232      1.0  0.11440  0.20862  0.88239  1.0000
  H   H233      1.0  0.30591  0.29795  0.58018  1.0000
  N   N8        1.0  0.31035  0.04858  0.83916  1.0000
  H   H234      1.0  0.16403  0.42525  0.56179  1.0000
  C   C126      1.0  0.99350  0.28930  0.88119  1.0000
  C   C127      1.0  0.29769  0.06656  0.82488  1.0000
  C   C128      1.0  0.30517  0.02809  0.82401  1.0000
  H   H235      1.0  0.98847  0.29156  0.96727  1.0000
  C   C129      1.0  0.27965  0.04422  0.87725  1.0000
  H   H236      1.0  0.26970  0.05778  0.86893  1.0000
  H   H237      1.0  0.02276  0.47549  0.72863  1.0000
  H   H238      1.0  0.18681  0.23942  0.95746  1.0000
  C   C130      1.0  0.31036  0.20410  0.57634  1.0000
  H   H239      1.0  0.06545  0.43111  0.61465  1.0000
  H   H240      1.0  0.17335  0.32386  0.85717  1.0000
  H   H241      1.0  0.29961  0.18371  0.61105  1.0000
  H   H242      1.0  0.99811  0.37513  0.83131  1.0000
  H   H243      1.0  0.30260  0.15512  0.63851  1.0000
  C   C131      1.0  0.28936  0.08979  0.78096  1.0000
  H   H244      1.0  0.21157  0.25245  0.92506  1.0000
  H   H245      1.0  0.28042  0.06241  0.82381  1.0000
  H   H246      1.0  0.28751  0.02588  0.82320  1.0000
  C   C132      1.0  0.29838  0.11770  0.88339  1.0000
  C   C133      1.0  0.31556  0.00723  0.83601  1.0000
  H   H247      1.0  0.31822  0.17211  0.53323  1.0000
  H   H248      1.0  0.18068  0.24619  0.87448  1.0000
  H   H249      1.0  0.27415  0.02908  0.86774  1.0000
  H   H250      1.0  0.20806  0.27254  0.89768  1.0000
  C   C134      1.0  0.00979  0.29986  0.90138  1.0000
  H   H251      1.0  0.21903  0.24613  0.86019  1.0000
  H   H252      1.0  0.07271  0.41832  0.64825  1.0000
  H   H253      1.0  0.04537  0.47603  0.79197  1.0000
  C   C135      1.0  0.30377  0.04790  0.87057  1.0000
  H   H254      1.0  0.31050  0.02904  0.80110  1.0000
  H   H255      1.0  0.30509  0.05915  0.77914  1.0000
  H   H256      1.0  0.29153  0.28683  0.55048  1.0000
  C   C136      1.0  0.28092  0.14086  0.55046  1.0000
  H   H257      1.0  0.14330  0.47233  0.67965  1.0000
  C   C137      1.0  0.07434  0.48684  0.73647  1.0000
  H   H258      1.0  0.28367  0.17491  0.55165  1.0000
  C   C138      1.0  0.12121  0.48654  0.65040  1.0000
  H   H259      1.0  0.05416  0.32047  0.83561  1.0000
  H   H260      1.0  0.27314  0.08295  0.77855  1.0000
  C   C139      1.0  0.15088  0.43376  0.66862  1.0000
  C   C140      1.0  0.14568  0.42944  0.70096  1.0000
  C   C141      1.0  0.16346  0.41614  0.71520  1.0000
  H   H261      1.0  0.16657  0.44213  0.66745  1.0000
  H   H262      1.0  0.15369  0.41773  0.65902  1.0000
  H   H263      1.0  0.15832  0.46178  0.62535  1.0000
  H   H264      1.0  0.13059  0.42042  0.70386  1.0000
  H   H265      1.0  0.14416  0.44468  0.71285  1.0000
  H   H266      1.0  0.15936  0.41353  0.73833  1.0000
  H   H267      1.0  0.16513  0.40022  0.70493  1.0000
  H   H268      1.0  0.17898  0.42465  0.71367  1.0000
  H   H269      1.0  0.32100  0.08008  0.79350  1.0000
  N   N9        1.0  0.24702  0.33335  0.57834  1.0000
  C   C142      1.0  0.23720  0.32644  0.60687  1.0000
  C   C143      1.0  0.26839  0.32204  0.57334  1.0000
  C   C144      1.0  0.25108  0.35718  0.57991  1.0000
  C   C145      1.0  0.23213  0.32973  0.55360  1.0000
  C   C146      1.0  0.22453  0.30641  0.54977  1.0000
  C   C147      1.0  0.21517  0.33683  0.61477  1.0000
  C   C148      1.0  0.26414  0.36722  0.55449  1.0000
  H   H270      1.0  0.05569  0.35769  0.81916  1.0000
  H   H271      1.0  0.10756  0.42923  0.67133  1.0000
  C   C149      1.0  0.31209  0.18268  0.59381  1.0000
  C   C150      1.0  0.20648  0.32786  0.64337  1.0000
  C   C151      1.0  0.26905  0.39076  0.56006  1.0000
  H   H272      1.0  0.24847  0.32989  0.62457  1.0000
  H   H273      1.0  0.23485  0.30886  0.60802  1.0000
  H   H274      1.0  0.27249  0.32194  0.54988  1.0000
  H   H275      1.0  0.28156  0.33102  0.58357  1.0000
  H   H276      1.0  0.25964  0.36085  0.60012  1.0000
  H   H277      1.0  0.23567  0.36641  0.58078  1.0000
  H   H278      1.0  0.21778  0.34050  0.55518  1.0000
  H   H279      1.0  0.23997  0.33447  0.53286  1.0000
  H   H280      1.0  0.21782  0.29949  0.56999  1.0000
  H   H281      1.0  0.14778  0.22932  0.87608  1.0000
  H   H282      1.0  0.21650  0.35444  0.61715  1.0000
  H   H283      1.0  0.20307  0.33357  0.59818  1.0000
  H   H284      1.0  0.25487  0.36657  0.53446  1.0000
  H   H285      1.0  0.27970  0.35886  0.55070  1.0000
  S   S37       1.0  0.12983  0.20960  0.97993  1.0000
  H   H286      1.0  0.28819  0.10409  0.79489  1.0000
  H   H287      1.0  0.20201  0.28832  0.52491  1.0000
  C   C152      1.0  0.30333  0.12426  0.85478  1.0000
  C   C153      1.0  0.15907  0.43953  0.57443  1.0000
  H   H288      1.0  0.18136  0.30137  0.90060  1.0000
  H   H289      1.0  0.29536  0.09506  0.75942  1.0000
  H   H290      1.0  0.11922  0.41641  0.64156  1.0000
  H   H291      1.0  0.21762  0.33130  0.66110  1.0000
  H   H292      1.0  0.19071  0.33553  0.64837  1.0000
  H   H293      1.0  0.20413  0.31026  0.64211  1.0000
  H   H294      1.0  0.25404  0.40006  0.56430  1.0000
  C   C154      1.0  0.31371  0.10668  0.89990  1.0000
  H   H295      1.0  0.27719  0.39790  0.54084  1.0000
  N   N10       1.0  0.03086  0.30642  0.88776  1.0000
  C   C155      1.0  0.04208  0.28765  0.87367  1.0000
  C   C156      1.0  0.02656  0.32347  0.86511  1.0000
  C   C157      1.0  0.04509  0.31461  0.91114  1.0000
  C   C158      1.0  0.99718  0.39105  0.73771  1.0000
  Fe  Fe19      1.0  0.28073  0.09957  0.96897  1.0000
  C   C159      1.0  0.04499  0.26726  0.89286  1.0000
  C   C160      1.0  0.03884  0.33679  0.92368  1.0000
  C   C161      1.0  0.04672  0.33275  0.84978  1.0000
  C   C162      1.0  0.04105  0.35218  0.83082  1.0000
  C   C163      1.0  0.20701  0.30523  0.52726  1.0000
  C   C164      1.0  0.05809  0.25003  0.87721  1.0000
  C   C165      1.0  0.05348  0.34246  0.94845  1.0000
  H   H296      1.0  0.05842  0.29234  0.86631  1.0000
  H   H297      1.0  0.03381  0.28306  0.85367  1.0000
  H   H298      1.0  0.01663  0.31693  0.84768  1.0000
  H   H299      1.0  0.01683  0.33688  0.87427  1.0000
  H   H300      1.0  0.06205  0.31552  0.90356  1.0000
  H   H301      1.0  0.04549  0.30306  0.92964  1.0000
  H   H302      1.0  0.15099  0.32182  0.88177  1.0000
  H   H303      1.0  0.08370  0.48752  0.89668  1.0000
  H   H304      1.0  0.19274  0.31490  0.53393  1.0000
  H   H305      1.0  0.12480  0.24646  0.88307  1.0000
  H   H306      1.0  0.05360  0.27102  0.91279  1.0000
  C   C166      1.0  0.27102  0.29876  0.58532  1.0000
  H   H307      1.0  0.27179  0.29899  0.60920  1.0000
  H   H308      1.0  0.04042  0.34969  0.90711  1.0000
  H   H309      1.0  0.05886  0.33789  0.86530  1.0000
  H   H310      1.0  0.17326  0.44995  0.57663  1.0000
  H   H311      1.0  0.29133  0.13274  0.84226  1.0000
  H   H312      1.0  0.03494  0.36561  0.84417  1.0000
  C   C167      1.0  0.28711  0.16129  0.56670  1.0000
  H   H313      1.0  0.22234  0.22572  0.88804  1.0000
  H   H314      1.0  0.04931  0.35873  0.95636  1.0000
  H   H315      1.0  0.25760  0.28835  0.57947  1.0000
  H   H316      1.0  0.02212  0.33691  0.93210  1.0000
  S   S38       1.0  0.02854  0.26835  0.96934  1.0000
  H   H317      1.0  0.04991  0.24522  0.85729  1.0000
  H   H318      1.0  0.29360  0.27203  0.58388  1.0000
  H   H319      1.0  0.21305  0.31116  0.50607  1.0000
  H   H320      1.0  0.02895  0.34798  0.81461  1.0000
  N   N11       1.0  0.16531  0.25940  0.91241  1.0000
  C   C168      1.0  0.17167  0.26932  0.94042  1.0000
  C   C169      1.0  0.15668  0.27692  0.89276  1.0000
  C   C170      1.0  0.14721  0.24411  0.91906  1.0000
  C   C171      1.0  0.18344  0.24701  0.89806  1.0000
  C   C172      1.0  0.20658  0.25520  0.90247  1.0000
  C   C173      1.0  0.07902  0.42425  0.62714  1.0000
  C   C174      1.0  0.13596  0.23441  0.89275  1.0000
  C   C175      1.0  0.17275  0.29425  0.88248  1.0000
  C   C176      1.0  0.16134  0.31267  0.86658  1.0000
  C   C177      1.0  0.22268  0.24324  0.88326  1.0000
  H   H321      1.0  0.10145  0.44672  0.60965  1.0000
  C   C178      1.0  0.12271  0.21482  0.90146  1.0000
  H   H322      1.0  0.23811  0.29625  0.54209  1.0000
  H   H323      1.0  0.27979  0.39212  0.57879  1.0000
  H   H324      1.0  0.15041  0.27014  0.87263  1.0000
  H   H325      1.0  0.14276  0.28514  0.90337  1.0000
  H   H326      1.0  0.13461  0.25213  0.93242  1.0000
  H   H327      1.0  0.15312  0.23030  0.93235  1.0000
  H   H328      1.0  0.18369  0.22995  0.90571  1.0000
  H   H329      1.0  0.31274  0.03527  0.88259  1.0000
  C   C179      1.0  0.99709  0.37009  0.72735  1.0000
  H   H330      1.0  0.11174  0.48090  0.89223  1.0000
  H   H331      1.0  0.29426  0.20618  0.56678  1.0000
  H   H332      1.0  0.30679  0.10651  0.62924  1.0000
  H   H333      1.0  0.99490  0.39206  0.79993  1.0000
  N   N12       1.0  0.30991  0.16227  0.57694  1.0000
  H   H334      1.0  0.13250  0.48483  0.76429  1.0000
  C   C180      1.0  0.26704  0.30677  0.48785  1.0000
  S   S39       1.0  0.17368  0.40224  0.49353  1.0000
  H   H335      1.0  0.30815  0.06327  0.88083  1.0000
  H   H336      1.0  0.26836  0.02101  0.96775  1.0000
  S   S40       1.0  0.31859  0.26402  0.48923  1.0000
  S   S41       1.0  0.19645  0.35477  0.49332  1.0000
  C   C181      1.0  0.00176  0.26036  0.97793  1.0000
  C   C182      1.0  0.30263  0.28856  0.48618  1.0000
  C   C183      1.0  0.15542  0.17267  0.97388  1.0000
  C   C184      1.0  0.31410  0.22334  0.59554  1.0000
  H   H337      1.0  0.00321  0.46054  0.70950  1.0000
  C   C185      1.0  0.17693  0.25316  0.96517  1.0000
  H   H338      1.0  0.14193  0.16662  0.96226  1.0000
  H   H339      1.0  0.99857  0.46660  0.74680  1.0000
  C   C186      1.0  0.25965  0.00726  0.97588  1.0000
  H   H340      1.0  0.20445  0.27007  0.98173  1.0000
  H   H341      1.0  0.31518  0.12819  0.58567  1.0000
  C   C187      1.0  0.31553  0.14373  0.59689  1.0000
  Fe  Fe20      1.0  0.06369  0.26238  0.98239  1.0000
  Fe  Fe21      1.0  0.10061  0.56690  0.23039  1.0000
  S   S42       1.0  0.08103  0.56745  0.27102  1.0000
  S   S43       1.0  0.11659  0.53629  0.21430  1.0000
  Fe  Fe22      1.0  0.09134  0.61438  0.21598  1.0000
  S   S44       1.0  0.07082  0.61808  0.25633  1.0000
  S   S45       1.0  0.09662  0.64329  0.18510  1.0000
  Fe  Fe23      1.0  0.09684  0.59898  0.27952  1.0000
  S   S46       1.0  0.10535  0.60414  0.32704  1.0000
  Fe  Fe24      1.0  0.05695  0.58617  0.24505  1.0000
  S   S47       1.0  0.02319  0.57329  0.24123  1.0000
  S   S48       1.0  0.11821  0.59735  0.24005  1.0000
  S   S49       1.0  0.07575  0.58377  0.20361  1.0000
  Fe  Fe25      1.0  0.19814  0.60859  0.45141  1.0000
  S   S50       1.0  0.23361  0.60359  0.45861  1.0000
  S   S51       1.0  0.19023  0.61022  0.40312  1.0000
  H   H342      1.0  0.19857  0.56562  0.38471  1.0000
  C   C188      1.0  0.20544  0.54941  0.38960  1.0000
  H   H343      1.0  0.07873  0.50732  0.31507  1.0000
  H   H344      1.0  0.20692  0.92766  0.06808  1.0000
  H   H345      1.0  0.22726  0.90694  0.06584  1.0000
  H   H346      1.0  0.23937  0.93856  0.09298  1.0000
  H   H347      1.0  0.23391  0.95569  0.06235  1.0000
  H   H348      1.0  0.13418  0.79794  0.03404  1.0000
  H   H349      1.0  0.27443  0.93027  0.10680  1.0000
  H   H350      1.0  0.22181  0.92422  0.03499  1.0000
  S   S52       1.0  0.12271  0.69871  0.98502  1.0000
  C   C189      1.0  0.30693  0.68362  0.46237  1.0000
  Fe  Fe26      1.0  0.28013  0.87152  0.01151  1.0000
  S   S53       1.0  0.30547  0.86925  0.04723  1.0000
  S   S54       1.0  0.24647  0.88547  0.01023  1.0000
  Fe  Fe27      1.0  0.09594  0.69183  0.01741  1.0000
  S   S55       1.0  0.09673  0.66249  0.04859  1.0000
  S   S56       1.0  0.09150  0.72683  0.02800  1.0000
  C   C190      1.0  0.22293  0.92355  0.05882  1.0000
  C   C191      1.0  0.26211  0.93437  0.05621  1.0000
  H   H351      1.0  0.26570  0.91700  0.06031  1.0000
  S   S57       1.0  0.18862  0.58217  0.48215  1.0000
  H   H352      1.0  0.30368  0.92654  0.27881  1.0000
  H   H353      1.0  0.02347  0.78675  0.04751  1.0000
  C   C192      1.0  0.24062  0.56839  0.39744  1.0000
  H   H354      1.0  0.12493  0.81336  0.06439  1.0000
  H   H355      1.0  0.08005  0.86436  0.02713  1.0000
  H   H356      1.0  0.15215  0.55974  0.38236  1.0000
  C   C193      1.0  0.31491  0.93978  0.38894  1.0000
  H   H357      1.0  0.26807  0.62806  0.42387  1.0000
  C   C194      1.0  0.03325  0.77720  0.06301  1.0000
  H   H358      1.0  0.26829  0.72222  0.36165  1.0000
  H   H359      1.0  0.19180  0.73925  0.00009  1.0000
  H   H360      1.0  0.19344  0.58956  0.21502  1.0000
  C   C195      1.0  0.14071  0.78364  0.07500  1.0000
  C   C196      1.0  0.19723  0.51329  0.41037  1.0000
  C   C197      1.0  0.30027  0.89080  0.13028  1.0000
  C   C198      1.0  0.29514  0.88544  0.10175  1.0000
  H   H361      1.0  0.31509  0.94713  0.06260  1.0000
  C   C199      1.0  0.09185  0.50072  0.32866  1.0000
  H   H362      1.0  0.10497  0.51258  0.32860  1.0000
  H   H363      1.0  0.28796  0.89752  0.14418  1.0000
  H   H364      1.0  0.27905  0.88799  0.09398  1.0000
  C   C200      1.0  0.23950  0.93944  0.06914  1.0000
  C   C201      1.0  0.09682  0.85890  0.03094  1.0000
  H   H365      1.0  0.11731  0.83162  0.02381  1.0000
  H   H366      1.0  0.14314  0.56299  0.45730  1.0000
  H   H367      1.0  0.05591  0.52113  0.18002  1.0000
  H   H368      1.0  0.01621  0.61125  0.27681  1.0000
  C   C202      1.0  0.12932  0.60514  0.34765  1.0000
  C   C203      1.0  0.14974  0.60669  0.33493  1.0000
  C   C204      1.0  0.16810  0.60817  0.35227  1.0000
  C   C205      1.0  0.16642  0.60779  0.38255  1.0000
  C   C206      1.0  0.14607  0.60589  0.39529  1.0000
  C   C207      1.0  0.12768  0.60471  0.37794  1.0000
  H   H369      1.0  0.15133  0.60711  0.31173  1.0000
  H   H370      1.0  0.18373  0.60968  0.34211  1.0000
  H   H371      1.0  0.14442  0.60564  0.41849  1.0000
  H   H372      1.0  0.11201  0.60357  0.38808  1.0000
  C   C208      1.0  0.09442  0.64862  0.14719  1.0000
  C   C209      1.0  0.09065  0.63243  0.12738  1.0000
  C   C210      1.0  0.09122  0.63705  0.09746  1.0000
  C   C211      1.0  0.09491  0.65802  0.08677  1.0000
  C   C212      1.0  0.09793  0.67435  0.10662  1.0000
  C   C213      1.0  0.09786  0.66962  0.13653  1.0000
  H   H373      1.0  0.08782  0.61626  0.13509  1.0000
  H   H374      1.0  0.08880  0.62427  0.08242  1.0000
  H   H375      1.0  0.10088  0.69052  0.09893  1.0000
  H   H376      1.0  0.10082  0.68231  0.15152  1.0000
  C   C214      1.0  0.08494  0.51205  0.24050  1.0000
  C   C215      1.0  0.10400  0.51190  0.22435  1.0000
  C   C216      1.0  0.30954  0.96266  0.39826  1.0000
  H   H377      1.0  0.07757  0.52706  0.24656  1.0000
  C   C217      1.0  0.09766  0.79164  0.00201  1.0000
  N   N13       1.0  0.14912  0.59366  0.14862  1.0000
  C   C218      1.0  0.14339  0.61524  0.13553  1.0000
  C   C219      1.0  0.12873  0.58118  0.15356  1.0000
  C   C220      1.0  0.15867  0.59768  0.17774  1.0000
  C   C221      1.0  0.16515  0.58112  0.13061  1.0000
  C   C222      1.0  0.16422  0.58442  0.09740  1.0000
  C   C223      1.0  0.16190  0.63163  0.13320  1.0000
  C   C224      1.0  0.16408  0.57748  0.19641  1.0000
  C   C225      1.0  0.11670  0.57421  0.12639  1.0000
  C   C226      1.0  0.09523  0.56397  0.13426  1.0000
  C   C227      1.0  0.17826  0.56783  0.08190  1.0000
  C   C228      1.0  0.15657  0.64990  0.11207  1.0000
  H   H378      1.0  0.13061  0.62306  0.14875  1.0000
  H   H379      1.0  0.13626  0.61364  0.11396  1.0000
  H   H380      1.0  0.13201  0.56593  0.16547  1.0000
  H   H381      1.0  0.11735  0.59054  0.16740  1.0000
  H   H382      1.0  0.14772  0.60816  0.19072  1.0000
  H   H383      1.0  0.17390  0.60668  0.17522  1.0000
  H   H384      1.0  0.18188  0.58504  0.13661  1.0000
  H   H385      1.0  0.16363  0.56362  0.13548  1.0000
  H   H386      1.0  0.17021  0.60051  0.09104  1.0000
  H   H387      1.0  0.14780  0.58325  0.08901  1.0000
  H   H388      1.0  0.16444  0.63892  0.15455  1.0000
  H   H389      1.0  0.17721  0.62394  0.12632  1.0000
  H   H390      1.0  0.17302  0.56523  0.18380  1.0000
  H   H391      1.0  0.14922  0.57014  0.20515  1.0000
  H   H392      1.0  0.11330  0.58792  0.11162  1.0000
  H   H393      1.0  0.12636  0.56188  0.11486  1.0000
  H   H394      1.0  0.08802  0.55720  0.11473  1.0000
  H   H395      1.0  0.09736  0.55079  0.15044  1.0000
  H   H396      1.0  0.02928  0.51976  0.23887  1.0000
  H   H397      1.0  0.04315  0.54596  0.16865  1.0000
  H   H398      1.0  0.30293  0.92168  0.06189  1.0000
  H   H399      1.0  0.17776  0.57090  0.05830  1.0000
  H   H400      1.0  0.14177  0.65852  0.11915  1.0000
  H   H401      1.0  0.16992  0.66153  0.11116  1.0000
  H   H402      1.0  0.15416  0.64366  0.09010  1.0000
  H   H403      1.0  0.06953  0.76769  0.02900  1.0000
  H   H404      1.0  0.25003  0.69754  0.45671  1.0000
  C   C229      1.0  0.11309  0.49207  0.21625  1.0000
  C   C230      1.0  0.17676  0.54501  0.42562  1.0000
  C   C231      1.0  0.30542  0.91821  0.32457  1.0000
  H   H405      1.0  0.15067  0.53605  0.32486  1.0000
  H   H406      1.0  0.99304  0.52406  0.25467  1.0000
  H   H407      1.0  0.21828  0.55996  0.43099  1.0000
  H   H408      1.0  0.01238  0.64059  0.16553  1.0000
  C   C232      1.0  0.17767  0.58322  0.22224  1.0000
  H   H409      1.0  0.17158  0.56201  0.35359  1.0000
  C   C233      1.0  0.99536  0.72783  0.00118  1.0000
  C   C234      1.0  0.21126  0.50098  0.38814  1.0000
  C   C235      1.0  0.02409  0.50959  0.22087  1.0000
  C   C236      1.0  0.07526  0.49271  0.24884  1.0000
  H   H410      1.0  0.13382  0.78257  0.09713  1.0000
  H   H411      1.0  0.26853  0.62327  0.38573  1.0000
  C   C237      1.0  0.17276  0.53079  0.37620  1.0000
  H   H412      1.0  0.18420  0.50222  0.41715  1.0000
  H   H413      1.0  0.06082  0.49308  0.26185  1.0000
  H   H414      1.0  0.23306  0.58432  0.39298  1.0000
  H   H415      1.0  0.18156  0.52427  0.35724  1.0000
  C   C238      1.0  0.06742  0.78493  0.03442  1.0000
  H   H416      1.0  0.17613  0.71524  0.00551  1.0000
  C   C239      1.0  0.12611  0.79700  0.05533  1.0000
  H   H417      1.0  0.31519  0.95023  0.15762  1.0000
  Fe  Fe28      1.0  0.06704  0.72723  0.99235  1.0000
  C   C240      1.0  0.28033  0.94630  0.09941  1.0000
  C   C241      1.0  0.31075  0.87633  0.08359  1.0000
  H   H418      1.0  0.22492  0.51077  0.38028  1.0000
  H   H419      1.0  0.20801  0.80435  0.01756  1.0000
  H   H420      1.0  0.14301  0.76720  0.06642  1.0000
  H   H421      1.0  0.03761  0.64923  0.20341  1.0000
  H   H422      1.0  0.17232  0.55137  0.08636  1.0000
  H   H423      1.0  0.30580  0.97302  0.37926  1.0000
  H   H424      1.0  0.01169  0.53878  0.19910  1.0000
  H   H425      1.0  0.10781  0.86987  0.01899  1.0000
  C   C242      1.0  0.00693  0.63812  0.18815  1.0000
  C   C243      1.0  0.22421  0.55295  0.41055  1.0000
  H   H426      1.0  0.16924  0.59540  0.23563  1.0000
  C   C244      1.0  0.02701  0.63515  0.20638  1.0000
  H   H427      1.0  0.18759  0.54512  0.44438  1.0000
  N   N14       1.0  0.08855  0.79649  0.03147  1.0000
  H   H428      1.0  0.27356  0.97125  0.03308  1.0000
  C   C245      1.0  0.10350  0.78713  0.05383  1.0000
  C   C246      1.0  0.19446  0.80184  0.00379  1.0000
  H   H429      1.0  0.03619  0.62057  0.19986  1.0000
  H   H430      1.0  0.31110  0.96285  0.10702  1.0000
  H   H431      1.0  0.01664  0.51684  0.17509  1.0000
  C   C247      1.0  0.05606  0.78582  0.06432  1.0000
  C   C248      1.0  0.14331  0.54467  0.34333  1.0000
  C   C249      1.0  0.02258  0.52502  0.19437  1.0000
  H   H432      1.0  0.26040  0.93616  0.03249  1.0000
  S   S58       1.0  0.14530  0.75777  0.00026  1.0000
  C   C250      1.0  0.08466  0.82020  0.03603  1.0000
  C   C251      1.0  0.23721  0.97127  0.99669  1.0000
  H   H433      1.0  0.30974  0.98184  0.05665  1.0000
  H   H434      1.0  0.09665  0.78903  0.07582  1.0000
  H   H435      1.0  0.10547  0.76951  0.05063  1.0000
  H   H436      1.0  0.27888  0.64804  0.39917  1.0000
  H   H437      1.0  0.08392  0.57621  0.14297  1.0000
  H   H438      1.0  0.21228  0.54381  0.36876  1.0000
  H   H439      1.0  0.08475  0.82368  0.05947  1.0000
  H   H440      1.0  0.14770  0.67350  0.39319  1.0000
  H   H441      1.0  0.22823  0.95761  0.00452  1.0000
  H   H442      1.0  0.16754  0.65750  0.37447  1.0000
  H   H443      1.0  0.25384  0.57057  0.41286  1.0000
  H   H444      1.0  0.05512  0.80249  0.07231  1.0000
  H   H445      1.0  0.06475  0.77560  0.08022  1.0000
  H   H446      1.0  0.00496  0.78096  0.99128  1.0000
  N   N15       1.0  0.18803  0.53461  0.40039  1.0000
  H   H447      1.0  0.18346  0.77388  0.02778  1.0000
  C   C252      1.0  0.16038  0.55089  0.36483  1.0000
  H   H448      1.0  0.17318  0.56228  0.42094  1.0000
  N   N16       1.0  0.28027  0.94790  0.06682  1.0000
  H   H449      1.0  0.13510  0.55936  0.33492  1.0000
  H   H450      1.0  0.29069  0.92947  0.01139  1.0000
  H   H451      1.0  0.13090  0.53826  0.46908  1.0000
  H   H452      1.0  0.08551  0.49841  0.35093  1.0000
  H   H453      1.0  0.26887  0.95824  0.10877  1.0000
  H   H454      1.0  0.03355  0.76014  0.05634  1.0000
  H   H455      1.0  0.12779  0.49177  0.20363  1.0000
  C   C253      1.0  0.00010  0.58520  0.25670  1.0000
  C   C254      1.0  0.18040  0.78440  0.00952  1.0000
  H   H456      1.0  0.29529  0.96254  0.41287  1.0000
  H   H457      1.0  0.09758  0.83616  0.99695  1.0000
  H   H458      1.0  0.02260  0.63366  0.22955  1.0000
  C   C255      1.0  0.15572  0.53426  0.43630  1.0000
  C   C256      1.0  0.29355  0.98725  0.06373  1.0000
  C   C257      1.0  0.30221  0.94856  0.11464  1.0000
  C   C258      1.0  0.10028  0.83597  0.02049  1.0000
  H   H459      1.0  0.28685  0.65592  0.45606  1.0000
  H   H460      1.0  0.29940  0.93430  0.33094  1.0000
  C   C259      1.0  0.27623  0.97070  0.05669  1.0000
  H   H461      1.0  0.00368  0.71256  0.00316  1.0000
  C   C260      1.0  0.14629  0.54576  0.46246  1.0000
  H   H462      1.0  0.24263  0.73280  0.37324  1.0000
  H   H463      1.0  0.31245  0.93416  0.11048  1.0000
  H   H464      1.0  0.18048  0.56863  0.23578  1.0000
  H   H465      1.0  0.23281  0.53771  0.41567  1.0000
  H   H466      1.0  0.30066  0.93337  0.37830  1.0000
  C   C261      1.0  0.29736  0.91427  0.29421  1.0000
  C   C262      1.0  0.19133  0.72172  0.99635  1.0000
  H   H467      1.0  0.24421  0.71329  0.34473  1.0000
  C   C263      1.0  0.00730  0.74668  0.99668  1.0000
  H   H468      1.0  0.15943  0.65037  0.41089  1.0000
  H   H469      1.0  0.14335  0.53479  0.41940  1.0000
  Fe  Fe29      1.0  0.11675  0.73410  0.99347  1.0000
  H   H470      1.0  0.30245  0.89805  0.28689  1.0000
  H   H471      1.0  0.24753  0.56189  0.37718  1.0000
  C   C264      1.0  0.30091  0.93871  0.05451  1.0000
  H   H472      1.0  0.03760  0.49810  0.21661  1.0000
  H   H473      1.0  0.15669  0.79125  0.07596  1.0000
  H   H474      1.0  0.13107  0.53440  0.35404  1.0000
  H   H475      1.0  0.06830  0.82506  0.02880  1.0000
  H   H476      1.0  0.05568  0.79148  0.01862  1.0000
  H   H477      1.0  0.16101  0.51820  0.38252  1.0000
  N   N17       1.0  0.22127  0.67822  0.41801  1.0000
  C   C265      1.0  0.23944  0.66253  0.42359  1.0000
  C   C266      1.0  0.21655  0.69034  0.44533  1.0000
  C   C267      1.0  0.20164  0.66529  0.41134  1.0000
  C   C268      1.0  0.22580  0.69342  0.39304  1.0000
  C   C269      1.0  0.24953  0.70002  0.38781  1.0000
  C   C270      1.0  0.24398  0.64603  0.39949  1.0000
  C   C271      1.0  0.18029  0.67810  0.40766  1.0000
  H   H478      1.0  0.02544  0.77809  0.08458  1.0000
  H   H479      1.0  0.19518  0.56888  0.08888  1.0000
  C   C272      1.0  0.25117  0.71819  0.36546  1.0000
  C   C273      1.0  0.26626  0.63577  0.40230  1.0000
  C   C274      1.0  0.16274  0.66397  0.39579  1.0000
  H   H480      1.0  0.23615  0.65303  0.44365  1.0000
  H   H481      1.0  0.25454  0.67095  0.42798  1.0000
  H   H482      1.0  0.20219  0.70085  0.44292  1.0000
  H   H483      1.0  0.21273  0.67878  0.46323  1.0000
  H   H484      1.0  0.19886  0.65284  0.42837  1.0000
  H   H485      1.0  0.20419  0.65628  0.39105  1.0000
  H   H486      1.0  0.22057  0.68637  0.37242  1.0000
  H   H487      1.0  0.21595  0.70835  0.39538  1.0000
  H   H488      1.0  0.25913  0.68627  0.37956  1.0000
  H   H489      1.0  0.25732  0.70541  0.40760  1.0000
  H   H490      1.0  0.23209  0.63293  0.40106  1.0000
  H   H491      1.0  0.24271  0.65350  0.37776  1.0000
  H   H492      1.0  0.18238  0.69201  0.39275  1.0000
  H   H493      1.0  0.17427  0.68395  0.42875  1.0000
  C   C275      1.0  0.30324  0.93916  0.02129  1.0000
  H   H494      1.0  0.23529  0.71972  0.44093  1.0000
  H   H495      1.0  0.15861  0.51728  0.44276  1.0000
  H   H496      1.0  0.20497  0.71398  0.00779  1.0000
  H   H497      1.0  0.20694  0.51530  0.42997  1.0000
  C   C276      1.0  0.04461  0.53413  0.18665  1.0000
  H   H498      1.0  0.05137  0.54240  0.20541  1.0000
  H   H499      1.0  0.20161  0.49628  0.36946  1.0000
  C   C277      1.0  0.16261  0.78040  0.99199  1.0000
  H   H500      1.0  0.29040  0.96510  0.15289  1.0000
  H   H501      1.0  0.29038  0.93608  0.15599  1.0000
  H   H502      1.0  0.00226  0.60437  0.18352  1.0000
  H   H503      1.0  0.30220  0.95579  0.01250  1.0000
  H   H504      1.0  0.29826  0.90575  0.33884  1.0000
  H   H505      1.0  0.10188  0.77426  0.00064  1.0000
  C   C278      1.0  0.00090  0.60399  0.27269  1.0000
  H   H506      1.0  0.27957  0.91516  0.29411  1.0000
  H   H507      1.0  0.10033  0.85989  0.05425  1.0000
  H   H508      1.0  0.15742  0.54448  0.48088  1.0000
  H   H509      1.0  0.99852  0.65290  0.19539  1.0000
  H   H510      1.0  0.26107  0.97711  0.06626  1.0000
  H   H511      1.0  0.31729  0.68007  0.44416  1.0000
  C   C279      1.0  0.32103  0.88719  0.14118  1.0000
  C   C280      1.0  0.29925  0.95014  0.14725  1.0000
  C   C281      1.0  0.28953  0.66983  0.46905  1.0000
  C   C282      1.0  0.99232  0.61821  0.19095  1.0000
  N   N18       1.0  0.00403  0.49735  0.22888  1.0000
  C   C283      1.0  0.01503  0.49245  0.28247  1.0000
  C   C284      1.0  0.99613  0.76628  0.99467  1.0000
  S   S59       1.0  0.03599  0.74764  0.99367  1.0000
  H   H512      1.0  0.11306  0.79993  0.99801  1.0000
  H   H513      1.0  0.02760  0.50476  0.28041  1.0000
  C   C285      1.0  0.23418  0.70557  0.45566  1.0000
  C   C286      1.0  0.31119  0.70181  0.47902  1.0000
  H   H514      1.0  0.00045  0.50020  0.29180  1.0000
  H   H515      1.0  0.31758  0.93000  0.40875  1.0000
  H   H516      1.0  0.31947  0.88441  0.42705  1.0000
  H   H517      1.0  0.31651  0.89942  0.37745  1.0000
  H   H518      1.0  0.98888  0.60930  0.13656  1.0000
  H   H519      1.0  0.98921  0.61492  0.21419  1.0000
  S   S60       1.0  0.07025  0.69206  0.98318  1.0000
  Fe  Fe30      1.0  0.18867  0.60705  0.51713  1.0000
  S   S61       1.0  0.22356  0.60178  0.52774  1.0000
  S   S62       1.0  0.15899  0.60549  0.54725  1.0000
  C   C287      1.0  0.10027  0.50576  0.86287  1.0000
  Fe  Fe31      1.0  0.08407  0.56432  0.73640  1.0000
  S   S63       1.0  0.08226  0.58424  0.69580  1.0000
  S   S64       1.0  0.07109  0.53048  0.73459  1.0000
  Fe  Fe32      1.0  0.09324  0.60381  0.77403  1.0000
  S   S65       1.0  0.09181  0.62639  0.73560  1.0000
  S   S66       1.0  0.09765  0.60998  0.82248  1.0000
  Fe  Fe33      1.0  0.06300  0.60740  0.72250  1.0000
  S   S67       1.0  0.03231  0.62009  0.70235  1.0000
  Fe  Fe34      1.0  0.11119  0.60114  0.71159  1.0000
  S   S68       1.0  0.14009  0.61057  0.68306  1.0000
  S   S69       1.0  0.06310  0.58663  0.76205  1.0000
  S   S70       1.0  0.11451  0.57954  0.75104  1.0000
  Fe  Fe35      1.0  0.28264  0.86697  0.94455  1.0000
  S   S71       1.0  0.30954  0.85804  0.91201  1.0000
  S   S72       1.0  0.24941  0.88099  0.93952  1.0000
  C   C288      1.0  0.28006  0.69210  0.50924  1.0000
  C   C289      1.0  0.26521  0.98639  0.96663  1.0000
  H   H520      1.0  0.20859  0.72392  0.95639  1.0000
  H   H521      1.0  0.07079  0.78368  0.97439  1.0000
  C   C290      1.0  0.02831  0.55955  0.67958  1.0000
  H   H522      1.0  0.11302  0.76916  0.89904  1.0000
  Fe  Fe36      1.0  0.09662  0.70111  0.95174  1.0000
  S   S73       1.0  0.09933  0.69294  0.90347  1.0000
  S   S74       1.0  0.09191  0.73671  0.95885  1.0000
  C   C291      1.0  0.02155  0.71076  0.92550  1.0000
  H   H523      1.0  0.27810  0.98442  0.95115  1.0000
  Fe  Fe37      1.0  0.23952  0.85928  0.97753  1.0000
  H   H524      1.0  0.14564  0.79202  0.95480  1.0000
  C   C292      1.0  0.30683  0.98762  0.82090  1.0000
  H   H525      1.0  0.13211  0.76475  0.87042  1.0000
  N   N19       1.0  0.31950  0.93507  0.89206  1.0000
  C   C293      1.0  0.19313  0.71723  0.96419  1.0000
  H   H526      1.0  0.31626  0.63736  0.49253  1.0000
  H   H527      1.0  0.26223  0.84807  0.75315  1.0000
  C   C294      1.0  0.00766  0.61388  0.71964  1.0000
  C   C295      1.0  0.00698  0.60760  0.74861  1.0000
  Fe  Fe38      1.0  0.25838  0.90574  0.97247  1.0000
  H   H528      1.0  0.02154  0.60687  0.76085  1.0000
  H   H529      1.0  0.10601  0.81240  0.94811  1.0000
  C   C296      1.0  0.09734  0.63336  0.84453  1.0000
  C   C297      1.0  0.09783  0.63075  0.87473  1.0000
  C   C298      1.0  0.09792  0.64865  0.89312  1.0000
  C   C299      1.0  0.09795  0.66955  0.88158  1.0000
  C   C300      1.0  0.09754  0.67215  0.85139  1.0000
  C   C301      1.0  0.09707  0.65426  0.83302  1.0000
  H   H530      1.0  0.09823  0.61474  0.88402  1.0000
  H   H531      1.0  0.09829  0.64625  0.91620  1.0000
  H   H532      1.0  0.09759  0.68817  0.84209  1.0000
  H   H533      1.0  0.09678  0.65665  0.80993  1.0000
  C   C302      1.0  0.10649  0.50530  0.74957  1.0000
  C   C303      1.0  0.08528  0.50608  0.74021  1.0000
  H   H534      1.0  0.00751  0.55854  0.77886  1.0000
  H   H535      1.0  0.11525  0.52001  0.75185  1.0000
  H   H536      1.0  0.20791  0.74584  0.91615  1.0000
  H   H537      1.0  0.02841  0.49570  0.80950  1.0000
  H   H538      1.0  0.99956  0.68466  0.92585  1.0000
  C   C304      1.0  0.30183  0.87064  0.85491  1.0000
  C   C305      1.0  0.29547  0.83670  0.75356  1.0000
  H   H539      1.0  0.15302  0.69913  0.89151  1.0000
  H   H540      1.0  0.23740  0.71889  0.90872  1.0000
  H   H541      1.0  0.29660  0.88004  0.81065  1.0000
  H   H542      1.0  0.28503  0.87165  0.86093  1.0000
  H   H543      1.0  0.21339  0.72289  0.48583  1.0000
  C   C306      1.0  0.15541  0.60483  0.58551  1.0000
  C   C307      1.0  0.17010  0.61388  0.60418  1.0000
  C   C308      1.0  0.16546  0.61488  0.63402  1.0000
  C   C309      1.0  0.14623  0.60665  0.64576  1.0000
  C   C310      1.0  0.13205  0.59668  0.62728  1.0000
  C   C311      1.0  0.13641  0.59617  0.59737  1.0000
  H   H544      1.0  0.18475  0.62067  0.59553  1.0000
  H   H545      1.0  0.17669  0.62246  0.64804  1.0000
  H   H546      1.0  0.11758  0.58967  0.63599  1.0000
  H   H547      1.0  0.12498  0.58899  0.58326  1.0000
  H   H548      1.0  0.04637  0.52710  0.83264  1.0000
  C   C312      1.0  0.22892  0.71395  0.48570  1.0000
  H   H549      1.0  0.30692  0.96182  0.93855  1.0000
  H   H550      1.0  0.03563  0.70032  0.92035  1.0000
  H   H551      1.0  0.00586  0.53051  0.78829  1.0000
  H   H552      1.0  0.04176  0.56106  0.69478  1.0000
  N   N20       1.0  0.08471  0.65188  0.64048  1.0000
  C   C313      1.0  0.08721  0.62835  0.63379  1.0000
  C   C314      1.0  0.10589  0.66001  0.65099  1.0000
  C   C315      1.0  0.06862  0.65368  0.66500  1.0000
  C   C316      1.0  0.07677  0.66517  0.61519  1.0000
  C   C317      1.0  0.08364  0.65766  0.58461  1.0000
  C   C318      1.0  0.06605  0.61642  0.62778  1.0000
  C   C319      1.0  0.06550  0.67626  0.67817  1.0000
  C   C320      1.0  0.12480  0.66011  0.62908  1.0000
  C   C321      1.0  0.14560  0.66672  0.64334  1.0000
  C   C322      1.0  0.07813  0.67466  0.56175  1.0000
  C   C323      1.0  0.07029  0.59505  0.61293  1.0000
  C   C324      1.0  0.04605  0.67691  0.69855  1.0000
  H   H553      1.0  0.09498  0.61971  0.65214  1.0000
  H   H554      1.0  0.09833  0.62585  0.61532  1.0000
  H   H555      1.0  0.10435  0.67694  0.65787  1.0000
  H   H556      1.0  0.11096  0.65054  0.67040  1.0000
  H   H557      1.0  0.07299  0.64242  0.68285  1.0000
  H   H558      1.0  0.05248  0.64864  0.65794  1.0000
  H   H559      1.0  0.05889  0.66584  0.61510  1.0000
  H   H560      1.0  0.08172  0.68216  0.61746  1.0000
  H   H561      1.0  0.07511  0.64281  0.57903  1.0000
  H   H562      1.0  0.10100  0.65405  0.58274  1.0000
  H   H563      1.0  0.05752  0.61283  0.64839  1.0000
  H   H564      1.0  0.05511  0.62628  0.61422  1.0000
  H   H565      1.0  0.06314  0.68871  0.66113  1.0000
  H   H566      1.0  0.07964  0.68045  0.69112  1.0000
  H   H567      1.0  0.12761  0.64413  0.61958  1.0000
  H   H568      1.0  0.12167  0.67203  0.61163  1.0000
  C   C325      1.0  0.17298  0.81217  0.96316  1.0000
  H   H569      1.0  0.14418  0.68334  0.65151  1.0000
  H   H570      1.0  0.14954  0.65563  0.66151  1.0000
  H   H571      1.0  0.08711  0.68962  0.56547  1.0000
  H   H572      1.0  0.08269  0.66862  0.54012  1.0000
  H   H573      1.0  0.06064  0.67829  0.56205  1.0000
  H   H574      1.0  0.05481  0.58708  0.60893  1.0000
  H   H575      1.0  0.07875  0.59761  0.59199  1.0000
  H   H576      1.0  0.08011  0.58423  0.62682  1.0000
  H   H577      1.0  0.04818  0.66515  0.71656  1.0000
  H   H578      1.0  0.04421  0.69318  0.70775  1.0000
  H   H579      1.0  0.03115  0.67308  0.68696  1.0000
  H   H580      1.0  0.28102  0.86702  0.76720  1.0000
  C   C326      1.0  0.09981  0.49430  0.89218  1.0000
  C   C327      1.0  0.27587  0.67385  0.49266  1.0000
  H   H581      1.0  0.26969  0.69563  0.52746  1.0000
  C   C328      1.0  0.29746  0.70590  0.50256  1.0000
  C   C329      1.0  0.30234  0.84586  0.72373  1.0000
  C   C330      1.0  0.30844  0.87516  0.82625  1.0000
  H   H582      1.0  0.17058  0.75445  0.90207  1.0000
  N   N21       1.0  0.07999  0.53555  0.83321  1.0000
  C   C331      1.0  0.09904  0.53446  0.81287  1.0000
  H   H583      1.0  0.27324  0.84395  0.78854  1.0000
  C   C332      1.0  0.07458  0.55904  0.83745  1.0000
  C   C333      1.0  0.08435  0.52520  0.86224  1.0000
  H   H584      1.0  0.28763  0.84855  0.71073  1.0000
  C   C334      1.0  0.11884  0.54751  0.82190  1.0000
  C   C335      1.0  0.05353  0.56408  0.85440  1.0000
  H   H585      1.0  0.02168  0.52702  0.69150  1.0000
  H   H586      1.0  0.98879  0.62041  0.68191  1.0000
  C   C336      1.0  0.13927  0.54003  0.80631  1.0000
  C   C337      1.0  0.05207  0.58775  0.86243  1.0000
  H   H587      1.0  0.09444  0.54059  0.79110  1.0000
  H   H588      1.0  0.10428  0.51765  0.80928  1.0000
  H   H589      1.0  0.16986  0.82286  0.94509  1.0000
  H   H590      1.0  0.10508  0.78354  0.94505  1.0000
  H   H591      1.0  0.07352  0.56757  0.81630  1.0000
  H   H592      1.0  0.08771  0.56705  0.84902  1.0000
  H   H593      1.0  0.09103  0.53707  0.87728  1.0000
  H   H594      1.0  0.06900  0.52005  0.87258  1.0000
  C   C338      1.0  0.00399  0.54814  0.72084  1.0000
  H   H595      1.0  0.07735  0.49693  0.80050  1.0000
  H   H596      1.0  0.11626  0.56476  0.81637  1.0000
  H   H597      1.0  0.12153  0.54632  0.84540  1.0000
  S   S75       1.0  0.27286  0.84454  0.98106  1.0000
  H   H598      1.0  0.22809  0.70044  0.50157  1.0000
  H   H599      1.0  0.12648  0.73295  0.90356  1.0000
  H   H600      1.0  0.31934  0.88362  0.64501  1.0000
  H   H601      1.0  0.20217  0.74552  0.87845  1.0000
  H   H602      1.0  0.09684  0.49376  0.84634  1.0000
  H   H603      1.0  0.02004  0.57537  0.67723  1.0000
  H   H604      1.0  0.14297  0.52298  0.81179  1.0000
  H   H605      1.0  0.13750  0.54180  0.78266  1.0000
  H   H606      1.0  0.15295  0.54999  0.81289  1.0000
  H   H607      1.0  0.08403  0.80014  0.92988  1.0000
  S   S76       1.0  0.25323  0.65709  0.50197  1.0000
  H   H608      1.0  0.24090  0.74238  0.88617  1.0000
  C   C339      1.0  0.29528  0.93716  0.89273  1.0000
  H   H609      1.0  0.05760  0.53389  0.79827  1.0000
  C   C340      1.0  0.28265  0.91765  0.88182  1.0000
  C   C341      1.0  0.06105  0.52539  0.81906  1.0000
  C   C342      1.0  0.25857  0.92251  0.88148  1.0000
  H   H610      1.0  0.29007  0.95153  0.87992  1.0000
  H   H611      1.0  0.28920  0.93969  0.91493  1.0000
  H   H612      1.0  0.13670  0.74821  0.93302  1.0000
  H   H613      1.0  0.99817  0.56511  0.72039  1.0000
  S   S77       1.0  0.20816  0.83882  0.97222  1.0000
  H   H614      1.0  0.28505  0.90346  0.89619  1.0000
  H   H615      1.0  0.28757  0.91336  0.85964  1.0000
  H   H616      1.0  0.05261  0.59814  0.84278  1.0000
  H   H617      1.0  0.25496  0.93613  0.86656  1.0000
  H   H618      1.0  0.24990  0.90816  0.87417  1.0000
  H   H619      1.0  0.25258  0.92648  0.90341  1.0000
  H   H620      1.0  0.01376  0.51251  0.74478  1.0000
  C   C343      1.0  0.31556  0.63163  0.51525  1.0000
  H   H621      1.0  0.05245  0.55428  0.87449  1.0000
  H   H622      1.0  0.31510  0.97292  0.82890  1.0000
  C   C344      1.0  0.25407  0.96820  0.97690  1.0000
  H   H623      1.0  0.30984  0.66215  0.53456  1.0000
  C   C345      1.0  0.99636  0.51140  0.74000  1.0000
  H   H624      1.0  0.01827  0.54822  0.73496  1.0000
  H   H625      1.0  0.30019  0.71979  0.51561  1.0000
  H   H626      1.0  0.10394  0.50556  0.90949  1.0000
  H   H627      1.0  0.14757  0.66043  0.89839  1.0000
  H   H628      1.0  0.29880  0.62684  0.52036  1.0000
  C   C346      1.0  0.23069  0.72814  0.89023  1.0000
  H   H629      1.0  0.06298  0.49185  0.83390  1.0000
  C   C347      1.0  0.09526  0.79832  0.94811  1.0000
  H   H630      1.0  0.16067  0.73600  0.87664  1.0000
  H   H631      1.0  0.13361  0.66574  0.93198  1.0000
  C   C348      1.0  0.31688  0.86438  0.87555  1.0000
  Fe  Fe39      1.0  0.22359  0.57819  0.49110  1.0000
  C   C349      1.0  0.30909  0.81201  0.69844  1.0000
  C   C350      1.0  0.27683  0.84977  0.76629  1.0000
  S   S78       1.0  0.26183  0.94230  0.96392  1.0000
  H   H632      1.0  0.15588  0.64712  0.93119  1.0000
  H   H633      1.0  0.19584  0.53008  0.49096  1.0000
  H   H634      1.0  0.99969  0.54155  0.67468  1.0000
  H   H635      1.0  0.03939  0.56087  0.84095  1.0000
  C   C351      1.0  0.08262  0.79677  0.97643  1.0000
  H   H636      1.0  0.29015  0.81986  0.75253  1.0000
  H   H637      1.0  0.28935  0.98602  0.82522  1.0000
  H   H638      1.0  0.19413  0.69966  0.96166  1.0000
  H   H639      1.0  0.31527  0.81189  0.63741  1.0000
  H   H640      1.0  0.31885  0.92072  0.93480  1.0000
  H   H641      1.0  0.18091  0.67577  0.91931  1.0000
  H   H642      1.0  0.17635  0.74532  0.94905  1.0000
  H   H643      1.0  0.15912  0.72447  0.95990  1.0000
  S   S79       1.0  0.29188  0.89243  0.97517  1.0000
  C   C352      1.0  0.04341  0.49338  0.79670  1.0000
  H   H644      1.0  0.30790  0.84811  0.66705  1.0000
  H   H645      1.0  0.02399  0.72668  0.91497  1.0000
  C   C353      1.0  0.15910  0.79455  0.96865  1.0000
  H   H646      1.0  0.24174  0.72494  0.49245  1.0000
  Fe  Fe40      1.0  0.23090  0.62776  0.49408  1.0000
  C   C354      1.0  0.99391  0.49376  0.71705  1.0000
  H   H647      1.0  0.00053  0.49890  0.69586  1.0000
  H   H648      1.0  0.13956  0.78022  0.90138  1.0000
  C   C355      1.0  0.00104  0.70045  0.91492  1.0000
  H   H649      1.0  0.16563  0.68197  0.95170  1.0000
  H   H650      1.0  0.31885  0.90211  0.90687  1.0000
  H   H651      1.0  0.15901  0.66604  0.62739  1.0000
  H   H652      1.0  0.09716  0.49829  0.68092  1.0000
  C   C356      1.0  0.20771  0.73549  0.89695  1.0000
  H   H653      1.0  0.02079  0.71279  0.94920  1.0000
  N   N22       1.0  0.17148  0.72118  0.91648  1.0000
  C   C357      1.0  0.19253  0.71612  0.90153  1.0000
  C   C358      1.0  0.15692  0.70207  0.91447  1.0000
  C   C359      1.0  0.16103  0.73958  0.90008  1.0000
  C   C360      1.0  0.17415  0.72765  0.94746  1.0000
  H   H654      1.0  0.30843  0.86204  0.72857  1.0000
  H   H655      1.0  0.23119  0.71802  0.87076  1.0000
  C   C361      1.0  0.13781  0.74569  0.90946  1.0000
  C   C362      1.0  0.16498  0.68063  0.92798  1.0000
  C   C363      1.0  0.14955  0.66242  0.92192  1.0000
  H   H656      1.0  0.03504  0.55492  0.65830  1.0000
  H   H657      1.0  0.29910  0.78913  0.64799  1.0000
  C   C364      1.0  0.13027  0.76626  0.89411  1.0000
  H   H658      1.0  0.18959  0.70936  0.87988  1.0000
  H   H659      1.0  0.20153  0.70330  0.91315  1.0000
  H   H660      1.0  0.14132  0.70537  0.92546  1.0000
  C   C365      1.0  0.11200  0.50400  0.66991  1.0000
  H   H661      1.0  0.03675  0.59099  0.87410  1.0000
  H   H662      1.0  0.06552  0.59203  0.87658  1.0000
  H   H663      1.0  0.12383  0.50852  0.68633  1.0000
  H   H664      1.0  0.11693  0.51122  0.85889  1.0000
  H   H665      1.0  0.31476  0.93578  0.84571  1.0000
  H   H666      1.0  0.10787  0.51852  0.65689  1.0000
  C   C366      1.0  0.01270  0.54249  0.69057  1.0000
  S   S80       1.0  0.24037  0.54519  0.49035  1.0000
  H   H667      1.0  0.29341  0.81493  0.68770  1.0000
  H   H668      1.0  0.31702  0.72854  0.56896  1.0000
  S   S81       1.0  0.19562  0.63417  0.48534  1.0000
  C   C367      1.0  0.20643  0.51636  0.48839  1.0000
  C   C368      1.0  0.31548  0.79590  0.64824  1.0000
  H   H669      1.0  0.30900  0.83777  0.76876  1.0000
  H   H670      1.0  0.00325  0.69750  0.89158  1.0000
  C   C369      1.0  0.22865  0.51924  0.48849  1.0000
  H   H671      1.0  0.04207  0.50233  0.77598  1.0000
  C   C370      1.0  0.06280  0.50104  0.81327  1.0000
  H   H672      1.0  0.99841  0.55421  0.82983  1.0000
  H   H673      1.0  0.13503  0.49348  0.63826  1.0000
  H   H674      1.0  0.30471  0.80228  0.71773  1.0000
  H   H675      1.0  0.25932  0.50296  0.48635  1.0000
  N   N23       1.0  0.31878  0.83309  0.70671  1.0000
  H   H676      1.0  0.18070  0.49387  0.48339  1.0000
  H   H677      1.0  0.07354  0.81200  0.97948  1.0000
  C   C371      1.0  0.99631  0.54545  0.78494  1.0000
  C   C372      1.0  0.24212  0.50100  0.48610  1.0000
  C   C373      1.0  0.19094  0.81607  0.98052  1.0000
  C   C374      1.0  0.19789  0.49573  0.48439  1.0000
  H   H678      1.0  0.98882  0.50444  0.75989  1.0000
  C   C375      1.0  0.98841  0.61546  0.70431  1.0000
  Fe  Fe41      1.0  0.37190  0.10474  0.20994  1.0000
  S   S82       1.0  0.34836  0.10213  0.24693  1.0000
  S   S83       1.0  0.36664  0.11231  0.16176  1.0000
  Fe  Fe42      1.0  0.40975  0.08940  0.24819  1.0000
  S   S84       1.0  0.38861  0.08483  0.28754  1.0000
  S   S85       1.0  0.44431  0.07703  0.24671  1.0000
  Fe  Fe43      1.0  0.36509  0.07057  0.25697  1.0000
  S   S86       1.0  0.34570  0.04005  0.26215  1.0000
  Fe  Fe44      1.0  0.37379  0.11680  0.27492  1.0000
  S   S87       1.0  0.36816  0.14614  0.30413  1.0000
  S   S88       1.0  0.38724  0.07261  0.21896  1.0000
  S   S89       1.0  0.39627  0.12189  0.23665  1.0000
  Fe  Fe45      1.0  0.56266  0.10873  0.22731  1.0000
  S   S90       1.0  0.56655  0.08692  0.26579  1.0000
  S   S91       1.0  0.53123  0.12651  0.21906  1.0000
  Fe  Fe46      1.0  0.60946  0.10197  0.20596  1.0000
  S   S92       1.0  0.61637  0.07979  0.24357  1.0000
  S   S93       1.0  0.63792  0.10938  0.17532  1.0000
  Fe  Fe47      1.0  0.58432  0.06526  0.23482  1.0000
  S   S94       1.0  0.57543  0.03089  0.22464  1.0000
  Fe  Fe48      1.0  0.59811  0.10374  0.27140  1.0000
  S   S95       1.0  0.61294  0.11562  0.31339  1.0000
  S   S96       1.0  0.57834  0.08632  0.19577  1.0000
  S   S97       1.0  0.59329  0.12673  0.23433  1.0000
  Fe  Fe49      1.0  0.36597  0.19706  0.46706  1.0000
  S   S98       1.0  0.37146  0.23112  0.45234  1.0000
  S   S99       1.0  0.36165  0.16694  0.43947  1.0000
  N   N24       1.0  0.43538  0.17801  0.40445  1.0000
  H   H679      1.0  0.64024  0.18038  0.14122  1.0000
  H   H680      1.0  0.59636  0.16726  0.19611  1.0000
  C   C376      1.0  0.40925  0.20918  0.39042  1.0000
  H   H681      1.0  0.42804  0.14085  0.33033  1.0000
  Fe  Fe50      1.0  0.58905  0.19785  0.45272  1.0000
  S   S100      1.0  0.58104  0.23341  0.45170  1.0000
  S   S101      1.0  0.57954  0.17993  0.41182  1.0000
  H   H682      1.0  0.40964  0.16648  0.37811  1.0000
  H   H683      1.0  0.54315  0.03218  0.27176  1.0000
  H   H684      1.0  0.63388  0.07693  0.01024  1.0000
  H   H685      1.0  0.33074  0.99649  0.26313  1.0000
  H   H686      1.0  0.44363  0.20802  0.38277  1.0000
  C   C377      1.0  0.34311  0.11000  0.14048  1.0000
  C   C378      1.0  0.42505  0.14763  0.44059  1.0000
  H   H687      1.0  0.61958  0.19758  0.20008  1.0000
  H   H688      1.0  0.52118  0.05020  0.27988  1.0000
  H   H689      1.0  0.40457  0.20196  0.36981  1.0000
  C   C379      1.0  0.64972  0.16998  0.08837  1.0000
  H   H690      1.0  0.37052  0.11869  0.35665  1.0000
  C   C380      1.0  0.39266  0.99435  0.25639  1.0000
  C   C381      1.0  0.41550  0.14384  0.47067  1.0000
  C   C382      1.0  0.58392  0.00675  0.24152  1.0000
  C   C383      1.0  0.59863  0.00604  0.26396  1.0000
  H   H691      1.0  0.63943  0.15759  0.22947  1.0000
  H   H692      1.0  0.63315  0.02247  0.20612  1.0000
  H   H693      1.0  0.64054  0.22912  0.27803  1.0000
  C   C384      1.0  0.58947  0.16226  0.38456  1.0000
  C   C385      1.0  0.60961  0.15215  0.38596  1.0000
  C   C386      1.0  0.61653  0.13814  0.36393  1.0000
  C   C387      1.0  0.60346  0.13393  0.34019  1.0000
  C   C388      1.0  0.58343  0.14427  0.33864  1.0000
  C   C389      1.0  0.57653  0.15829  0.36066  1.0000
  H   H694      1.0  0.61962  0.15467  0.40435  1.0000
  H   H695      1.0  0.63199  0.13018  0.36552  1.0000
  H   H696      1.0  0.57313  0.14123  0.32066  1.0000
  H   H697      1.0  0.56089  0.16592  0.35928  1.0000
  C   C390      1.0  0.61174  0.16589  0.18385  1.0000
  H   H698      1.0  0.36784  0.12751  0.40865  1.0000
  H   H699      1.0  0.42161  0.09785  0.05796  1.0000
  H   H700      1.0  0.61787  0.14927  0.18788  1.0000
  C   C391      1.0  0.46830  0.09146  0.24045  1.0000
  C   C392      1.0  0.46880  0.11391  0.23972  1.0000
  C   C393      1.0  0.48815  0.12456  0.23323  1.0000
  C   C394      1.0  0.50727  0.11287  0.22833  1.0000
  C   C395      1.0  0.50684  0.09045  0.22985  1.0000
  C   C396      1.0  0.48744  0.07983  0.23568  1.0000
  H   H701      1.0  0.45435  0.12304  0.24437  1.0000
  H   H702      1.0  0.48838  0.14191  0.23235  1.0000
  H   H703      1.0  0.52144  0.08129  0.22610  1.0000
  H   H704      1.0  0.48726  0.06248  0.23646  1.0000
  C   C397      1.0  0.35957  0.01517  0.26027  1.0000
  C   C398      1.0  0.38192  0.01429  0.25771  1.0000
  H   H705      1.0  0.51017  0.00556  0.22934  1.0000
  H   H706      1.0  0.39098  0.02899  0.25712  1.0000
  C   C399      1.0  0.36711  0.14030  0.39268  1.0000
  C   C400      1.0  0.36718  0.15144  0.34200  1.0000
  C   C401      1.0  0.36472  0.17283  0.35110  1.0000
  C   C402      1.0  0.36339  0.17793  0.38066  1.0000
  C   C403      1.0  0.36441  0.16167  0.40174  1.0000
  H   H707      1.0  0.37650  0.04325  0.12245  1.0000
  C   C404      1.0  0.63064  0.05943  0.00984  1.0000
  H   H708      1.0  0.36356  0.18558  0.33511  1.0000
  H   H709      1.0  0.36101  0.19441  0.38705  1.0000
  C   C405      1.0  0.36862  0.13521  0.36311  1.0000
  C   C406      1.0  0.34506  0.11079  0.11023  1.0000
  H   H710      1.0  0.61940  0.28476  0.41509  1.0000
  H   H711      1.0  0.56574  0.11706  0.14257  1.0000
  H   H712      1.0  0.39142  0.23837  0.38031  1.0000
  H   H713      1.0  0.57392  0.14332  0.18045  1.0000
  C   C407      1.0  0.42742  0.16526  0.37953  1.0000
  H   H714      1.0  0.64860  0.16709  0.06491  1.0000
  H   H715      1.0  0.64442  0.21597  0.42033  1.0000
  C   C408      1.0  0.55775  0.13309  0.14310  1.0000
  H   H716      1.0  0.58528  0.24317  0.34369  1.0000
  C   C409      1.0  0.52635  0.03653  0.26627  1.0000
  H   H717      1.0  0.32823  0.06135  0.13872  1.0000
  H   H718      1.0  0.47393  0.23983  0.43811  1.0000
  C   C410      1.0  0.62731  0.27010  0.37388  1.0000
  C   C411      1.0  0.35713  0.05228  0.15983  1.0000
  C   C412      1.0  0.45955  0.23594  0.48029  1.0000
  H   H719      1.0  0.44197  0.14205  0.44096  1.0000
  H   H720      1.0  0.55417  0.13853  0.12080  1.0000
  C   C413      1.0  0.37238  0.05782  0.13491  1.0000
  H   H721      1.0  0.39724  0.20473  0.40718  1.0000
  C   C414      1.0  0.61120  0.21031  0.14049  1.0000
  H   H722      1.0  0.62302  0.14947  0.09679  1.0000
  H   H723      1.0  0.54239  0.13154  0.15525  1.0000
  H   H724      1.0  0.41192  0.24166  0.40672  1.0000
  C   C415      1.0  0.59400  0.15124  0.14243  1.0000
  C   C416      1.0  0.51171  0.01740  0.27188  1.0000
  H   H725      1.0  0.49991  0.18506  0.45627  1.0000
  H   H726      1.0  0.35565  0.06659  0.17362  1.0000
  H   H727      1.0  0.60504  0.21107  0.31773  1.0000
  H   H728      1.0  0.33671  0.03501  0.13055  1.0000
  H   H729      1.0  0.43584  0.21077  0.41905  1.0000
  C   C417      1.0  0.45908  0.17361  0.40787  1.0000
  C   C418      1.0  0.46896  0.18148  0.43624  1.0000
  C   C419      1.0  0.42295  0.17158  0.43121  1.0000
  Fe  Fe51      1.0  0.61135  0.23796  0.47766  1.0000
  H   H730      1.0  0.36510  0.07009  0.12035  1.0000
  H   H731      1.0  0.38723  0.06454  0.14368  1.0000
  H   H732      1.0  0.43542  0.18830  0.34432  1.0000
  H   H733      1.0  0.58986  0.23355  0.16128  1.0000
  H   H734      1.0  0.49488  0.02322  0.26960  1.0000
  C   C420      1.0  0.49342  0.17952  0.43555  1.0000
  H   H735      1.0  0.36470  0.03911  0.17252  1.0000
  C   C421      1.0  0.43212  0.20182  0.39930  1.0000
  C   C422      1.0  0.49848  0.23607  0.47025  1.0000
  C   C423      1.0  0.33473  0.04633  0.14871  1.0000
  H   H736      1.0  0.61324  0.05730  0.00629  1.0000
  H   H737      1.0  0.53402  0.99756  0.24706  1.0000
  H   H738      1.0  0.62534  0.19540  0.41304  1.0000
  H   H739      1.0  0.60838  0.24490  0.13530  1.0000
  H   H740      1.0  0.58657  0.18933  0.12672  1.0000
  C   C424      1.0  0.51634  0.99908  0.25017  1.0000
  H   H741      1.0  0.63263  0.20210  0.31630  1.0000
  H   H742      1.0  0.65460  0.18685  0.09152  1.0000
  H   H743      1.0  0.49857  0.16257  0.43239  1.0000
  C   C425      1.0  0.57191  0.14924  0.15801  1.0000
  H   H744      1.0  0.64279  0.18251  0.18731  1.0000
  H   H745      1.0  0.61877  0.10262  0.07276  1.0000
  C   C426      1.0  0.64082  0.20246  0.40601  1.0000
  H   H746      1.0  0.52578  0.04183  0.24336  1.0000
  H   H747      1.0  0.59053  0.15294  0.11909  1.0000
  C   C427      1.0  0.62182  0.21631  0.31425  1.0000
  C   C428      1.0  0.63135  0.24703  0.38589  1.0000
  H   H748      1.0  0.61949  0.20911  0.11928  1.0000
  C   C429      1.0  0.64307  0.10796  0.13752  1.0000
  H   H749      1.0  0.62711  0.05612  0.05554  1.0000
  C   C430      1.0  0.33774  0.00018  0.16745  1.0000
  C   C431      1.0  0.62786  0.23402  0.33575  1.0000
  H   H750      1.0  0.61612  0.17745  0.09414  1.0000
  H   H751      1.0  0.61291  0.23856  0.27955  1.0000
  H   H752      1.0  0.63295  0.03147  0.03711  1.0000
  H   H753      1.0  0.42719  0.18193  0.44955  1.0000
  H   H754      1.0  0.62248  0.98908  0.17889  1.0000
  H   H755      1.0  0.47518  0.99165  0.26043  1.0000
  H   H756      1.0  0.62859  0.30325  0.38753  1.0000
  H   H757      1.0  0.36070  0.11294  0.10039  1.0000
  H   H758      1.0  0.51160  0.23741  0.45490  1.0000
  H   H759      1.0  0.41617  0.13743  0.42553  1.0000
  C   C432      1.0  0.59782  0.23103  0.14004  1.0000
  C   C433      1.0  0.34804  0.99591  0.26116  1.0000
  H   H760      1.0  0.63968  0.05222  0.99155  1.0000
  H   H761      1.0  0.32936  0.05849  0.20498  1.0000
  H   H762      1.0  0.60052  0.21863  0.39783  1.0000
  S   S102      1.0  0.43279  0.23863  0.46688  1.0000
  C   C434      1.0  0.58415  0.23773  0.36644  1.0000
  C   C435      1.0  0.62704  0.10366  0.11772  1.0000
  C   C436      1.0  0.43747  0.17102  0.34972  1.0000
  H   H763      1.0  0.58461  0.25178  0.38076  1.0000
  H   H764      1.0  0.64257  0.40281  0.45514  1.0000
  C   C437      1.0  0.56214  0.22752  0.37074  1.0000
  C   C438      1.0  0.59686  0.19043  0.14606  1.0000
  N   N25       1.0  0.62493  0.22844  0.36728  1.0000
  C   C439      1.0  0.65344  0.39713  0.47260  1.0000
  C   C440      1.0  0.62936  0.16709  0.13618  1.0000
  H   H765      1.0  0.32877  0.10953  0.06933  1.0000
  H   H766      1.0  0.64123  0.04253  0.09602  1.0000
  H   H767      1.0  0.32883  0.30970  0.47656  1.0000
  C   C441      1.0  0.40797  0.23354  0.38638  1.0000
  H   H768      1.0  0.51383  0.01219  0.29452  1.0000
  H   H769      1.0  0.65001  0.01158  0.07122  1.0000
  H   H770      1.0  0.50029  0.18971  0.41799  1.0000
  C   C442      1.0  0.32694  0.10884  0.09250  1.0000
  C   C443      1.0  0.62801  0.16579  0.10292  1.0000
  H   H771      1.0  0.46302  0.17188  0.45495  1.0000
  H   H772      1.0  0.46282  0.15616  0.40606  1.0000
  H   H773      1.0  0.46826  0.18130  0.38985  1.0000
  H   H774      1.0  0.61662  0.17303  0.24247  1.0000
  S   S103      1.0  0.64064  0.26015  0.46645  1.0000
  H   H775      1.0  0.58553  0.19424  0.16408  1.0000
  H   H776      1.0  0.61083  0.27240  0.36586  1.0000
  C   C444      1.0  0.63151  0.10510  0.08787  1.0000
  H   H777      1.0  0.56065  0.21319  0.35701  1.0000
  H   H778      1.0  0.55961  0.22259  0.39359  1.0000
  H   H779      1.0  0.54935  0.23928  0.36485  1.0000
  H   H780      1.0  0.62337  0.24580  0.40748  1.0000
  H   H781      1.0  0.40997  0.16328  0.32372  1.0000
  H   H782      1.0  0.61832  0.24846  0.32965  1.0000
  H   H783      1.0  0.59888  0.20597  0.36442  1.0000
  H   H784      1.0  0.41922  0.23893  0.36907  1.0000
  H   H785      1.0  0.45487  0.16702  0.34937  1.0000
  H   H786      1.0  0.60502  0.02082  0.27201  1.0000
  H   H787      1.0  0.56318  0.16485  0.15848  1.0000
  H   H788      1.0  0.63151  0.36543  0.44309  1.0000
  C   C445      1.0  0.42706  0.15840  0.32583  1.0000
  C   C446      1.0  0.47702  0.23746  0.46078  1.0000
  N   N26       1.0  0.60815  0.16925  0.15202  1.0000
  H   H789      1.0  0.40557  0.17455  0.42818  1.0000
  H   H790      1.0  0.62367  0.21189  0.15695  1.0000
  H   H791      1.0  0.43079  0.14785  0.38310  1.0000
  N   N27       1.0  0.43631  0.10796  0.14386  1.0000
  C   C447      1.0  0.43319  0.09038  0.16619  1.0000
  C   C448      1.0  0.42767  0.12891  0.15549  1.0000
  C   C449      1.0  0.42278  0.10245  0.11831  1.0000
  C   C450      1.0  0.45948  0.11013  0.13417  1.0000
  C   C451      1.0  0.47700  0.10423  0.15661  1.0000
  C   C452      1.0  0.43794  0.06724  0.15547  1.0000
  C   C453      1.0  0.42123  0.11982  0.09411  1.0000
  C   C454      1.0  0.43820  0.13735  0.18287  1.0000
  C   C455      1.0  0.42761  0.15839  0.19241  1.0000
  C   C456      1.0  0.49918  0.11147  0.14644  1.0000
  C   C457      1.0  0.44188  0.05141  0.18029  1.0000
  C   C458      1.0  0.41128  0.11080  0.06704  1.0000
  H   H792      1.0  0.41634  0.09070  0.17449  1.0000
  H   H793      1.0  0.44297  0.09308  0.18550  1.0000
  H   H794      1.0  0.42949  0.14206  0.13924  1.0000
  H   H795      1.0  0.41013  0.12761  0.16006  1.0000
  H   H796      1.0  0.40601  0.09889  0.12550  1.0000
  H   H797      1.0  0.42900  0.08759  0.10800  1.0000
  H   H798      1.0  0.46302  0.09981  0.11528  1.0000
  H   H799      1.0  0.46247  0.12680  0.12622  1.0000
  H   H800      1.0  0.47795  0.08662  0.16028  1.0000
  H   H801      1.0  0.47378  0.11147  0.17775  1.0000
  H   H802      1.0  0.42408  0.06140  0.14328  1.0000
  H   H803      1.0  0.45209  0.06670  0.14078  1.0000
  H   H804      1.0  0.43728  0.12616  0.08825  1.0000
  H   H805      1.0  0.41073  0.13333  0.10120  1.0000
  H   H806      1.0  0.43652  0.12562  0.20080  1.0000
  H   H807      1.0  0.45535  0.14088  0.17879  1.0000
  H   H808      1.0  0.41006  0.15643  0.19573  1.0000
  H   H809      1.0  0.43462  0.16342  0.21305  1.0000
  H   H810      1.0  0.43036  0.17127  0.17603  1.0000
  H   H811      1.0  0.49968  0.12925  0.14467  1.0000
  H   H812      1.0  0.51131  0.10610  0.16239  1.0000
  H   H813      1.0  0.50345  0.10436  0.12533  1.0000
  H   H814      1.0  0.42805  0.05141  0.19559  1.0000
  H   H815      1.0  0.44406  0.03495  0.17185  1.0000
  H   H816      1.0  0.45662  0.05571  0.19193  1.0000
  H   H817      1.0  0.39509  0.10433  0.07201  1.0000
  H   H818      1.0  0.40958  0.12376  0.05053  1.0000
  H   H819      1.0  0.43534  0.16178  0.30498  1.0000
  H   H820      1.0  0.60248  0.13552  0.14517  1.0000
  H   H821      1.0  0.40997  0.99387  0.25470  1.0000
  H   H822      1.0  0.58544  0.23047  0.12312  1.0000
  H   H823      1.0  0.46475  0.19849  0.44003  1.0000
  H   H824      1.0  0.61105  0.09989  0.12536  1.0000
  C   C459      1.0  0.32267  0.10752  0.15277  1.0000
  C   C460      1.0  0.60233  0.22167  0.37435  1.0000
  C   C461      1.0  0.62375  0.22451  0.28317  1.0000
  C   C462      1.0  0.63096  0.28690  0.39687  1.0000
  H   H825      1.0  0.34125  0.02315  0.20177  1.0000
  C   C463      1.0  0.65214  0.11028  0.07739  1.0000
  C   C464      1.0  0.63704  0.04868  0.03828  1.0000
  H   H826      1.0  0.39825  0.14848  0.47124  1.0000
  C   C465      1.0  0.63974  0.20965  0.37392  1.0000
  H   H827      1.0  0.63807  0.15238  0.14372  1.0000
  C   C466      1.0  0.64107  0.35943  0.46159  1.0000
  H   H828      1.0  0.35084  0.00610  0.15318  1.0000
  C   C467      1.0  0.62712  0.18141  0.19868  1.0000
  C   C468      1.0  0.65485  0.04801  0.15095  1.0000
  C   C469      1.0  0.65168  0.99257  0.20170  1.0000
  H   H829      1.0  0.64754  0.28558  0.40520  1.0000
  C   C470      1.0  0.63170  0.17378  0.22946  1.0000
  H   H830      1.0  0.63759  0.04389  0.15020  1.0000
  H   H831      1.0  0.64276  0.18506  0.23979  1.0000
  H   H832      1.0  0.63954  0.00894  0.23970  1.0000
  H   H833      1.0  0.41689  0.12656  0.47661  1.0000
  H   H834      1.0  0.64889  0.24631  0.39032  1.0000
  C   C471      1.0  0.32850  0.01830  0.18672  1.0000
  H   H835      1.0  0.63483  0.19512  0.36218  1.0000
  H   H836      1.0  0.64665  0.34282  0.45694  1.0000
  H   H837      1.0  0.61906  0.21165  0.26834  1.0000
  C   C472      1.0  0.64564  0.01303  0.21778  1.0000
  H   H838      1.0  0.63867  0.27348  0.35578  1.0000
  H   H839      1.0  0.64488  0.23842  0.33132  1.0000
  S   S104      1.0  0.61993  0.20253  0.47678  1.0000
  H   H840      1.0  0.32503  0.99344  0.15395  1.0000
  H   H841      1.0  0.63076  0.35887  0.48127  1.0000
  Fe  Fe52      1.0  0.37137  0.20866  0.53150  1.0000
  S   S105      1.0  0.37773  0.24346  0.51982  1.0000
  S   S106      1.0  0.37077  0.20067  0.58032  1.0000
  Fe  Fe53      1.0  0.59996  0.19902  0.51752  1.0000
  S   S107      1.0  0.59243  0.23441  0.51907  1.0000
  S   S108      1.0  0.61049  0.18809  0.56260  1.0000
  Fe  Fe54      1.0  0.36780  0.06909  0.75181  1.0000
  S   S109      1.0  0.37667  0.08724  0.79100  1.0000
  S   S110      1.0  0.35648  0.03522  0.76185  1.0000
  Fe  Fe55      1.0  0.37164  0.10933  0.71233  1.0000
  S   S111      1.0  0.37994  0.13039  0.74952  1.0000
  S   S112      1.0  0.37125  0.11752  0.66374  1.0000
  Fe  Fe56      1.0  0.40166  0.10293  0.76277  1.0000
  S   S113      1.0  0.43392  0.10715  0.78363  1.0000
  Fe  Fe57      1.0  0.35425  0.11285  0.77529  1.0000
  S   S114      1.0  0.32872  0.12740  0.80552  1.0000
  S   S115      1.0  0.39486  0.08250  0.72477  1.0000
  S   S116      1.0  0.34400  0.09408  0.73678  1.0000
  Fe  Fe58      1.0  0.57902  0.06593  0.73472  1.0000
  S   S117      1.0  0.56960  0.09091  0.76727  1.0000
  S   S118      1.0  0.57069  0.03194  0.74894  1.0000
  Fe  Fe59      1.0  0.59353  0.10005  0.68973  1.0000
  S   S119      1.0  0.58580  0.12695  0.71977  1.0000
  S   S120      1.0  0.60311  0.10357  0.64208  1.0000
  Fe  Fe60      1.0  0.60103  0.10623  0.75489  1.0000
  S   S121      1.0  0.62574  0.12024  0.78585  1.0000
  Fe  Fe61      1.0  0.55538  0.10893  0.72959  1.0000
  S   S122      1.0  0.52271  0.12412  0.72126  1.0000
  S   S123      1.0  0.61105  0.08031  0.72372  1.0000
  S   S124      1.0  0.56257  0.08286  0.69825  1.0000
  C   C473      1.0  0.58552  0.00893  0.73891  1.0000
  C   C474      1.0  0.59987  0.00899  0.71552  1.0000
  H   H842      1.0  0.45079  0.23231  0.52497  1.0000
  H   H843      1.0  0.60282  0.02375  0.70362  1.0000
  H   H844      1.0  0.61019  0.04322  0.77635  1.0000
  C   C475      1.0  0.60998  0.98969  0.70703  1.0000
  H   H845      1.0  0.51618  0.99115  0.66326  1.0000
  H   H846      1.0  0.64332  0.01706  0.83909  1.0000
  H   H847      1.0  0.57109  0.98963  0.77256  1.0000
  C   C476      1.0  0.45902  0.10876  0.76580  1.0000
  C   C477      1.0  0.47743  0.11169  0.78225  1.0000
  C   C478      1.0  0.49755  0.11466  0.76884  1.0000
  C   C479      1.0  0.49936  0.11473  0.73885  1.0000
  C   C480      1.0  0.48117  0.11063  0.72248  1.0000
  C   C481      1.0  0.46101  0.10770  0.73587  1.0000
  H   H848      1.0  0.47602  0.11245  0.80544  1.0000
  H   H849      1.0  0.51143  0.11810  0.78163  1.0000
  H   H850      1.0  0.48270  0.11028  0.69930  1.0000
  H   H851      1.0  0.44696  0.10516  0.72306  1.0000
  C   C482      1.0  0.37112  0.01225  0.75108  1.0000
  C   C483      1.0  0.38842  0.01383  0.73183  1.0000
  C   C484      1.0  0.50287  0.23396  0.49963  1.0000
  H   H852      1.0  0.39263  0.02933  0.72276  1.0000
  Fe  Fe62      1.0  0.34962  0.24180  0.48936  1.0000
  H   H853      1.0  0.44992  0.18444  0.63606  1.0000
  C   C485      1.0  0.60641  0.16435  0.58377  1.0000
  C   C486      1.0  0.60267  0.16620  0.61358  1.0000
  C   C487      1.0  0.60091  0.14781  0.63159  1.0000
  C   C488      1.0  0.60339  0.12729  0.62010  1.0000
  C   C489      1.0  0.60698  0.12546  0.59024  1.0000
  C   C490      1.0  0.60843  0.14384  0.57216  1.0000
  H   H854      1.0  0.60146  0.18194  0.62295  1.0000
  H   H855      1.0  0.59832  0.14952  0.65451  1.0000
  H   H856      1.0  0.60905  0.10969  0.58111  1.0000
  H   H857      1.0  0.61169  0.14210  0.54940  1.0000
  C   C491      1.0  0.37241  0.17740  0.60322  1.0000
  C   C492      1.0  0.37657  0.15683  0.59270  1.0000
  C   C493      1.0  0.37640  0.13881  0.61160  1.0000
  C   C494      1.0  0.37223  0.14106  0.64130  1.0000
  C   C495      1.0  0.36863  0.16169  0.65194  1.0000
  C   C496      1.0  0.36867  0.17968  0.63301  1.0000
  H   H858      1.0  0.37970  0.15476  0.56996  1.0000
  C   C497      1.0  0.34917  0.04490  0.85993  1.0000
  H   H859      1.0  0.36540  0.16376  0.67466  1.0000
  H   H860      1.0  0.36539  0.19548  0.64146  1.0000
  H   H861      1.0  0.34698  0.02762  0.86451  1.0000
  H   H862      1.0  0.35463  0.12963  0.50503  1.0000
  C   C498      1.0  0.42305  0.20578  0.63058  1.0000
  C   C499      1.0  0.62661  0.09622  0.83740  1.0000
  H   H863      1.0  0.42455  0.17154  0.63403  1.0000
  Fe  Fe63      1.0  0.56294  0.22673  0.49347  1.0000
  H   H864      1.0  0.61826  0.05800  0.80637  1.0000
  H   H865      1.0  0.54669  0.12035  0.54000  1.0000
  H   H866      1.0  0.45266  0.03848  0.83015  1.0000
  H   H867      1.0  0.44459  0.06644  0.73659  1.0000
  C   C500      1.0  0.44545  0.05332  0.69448  1.0000
  C   C501      1.0  0.33890  0.10893  0.85882  1.0000
  H   H868      1.0  0.38317  0.04151  0.86865  1.0000
  H   H869      1.0  0.32701  0.99120  0.95914  1.0000
  H   H870      1.0  0.45397  0.15049  0.65463  1.0000
  H   H871      1.0  0.43876  0.14748  0.73112  1.0000
  H   H872      1.0  0.62529  0.99932  0.80068  1.0000
  C   C502      1.0  0.43073  0.18470  0.67678  1.0000
  S   S125      1.0  0.34279  0.20725  0.50236  1.0000
  H   H873      1.0  0.42443  0.00719  0.78006  1.0000
  H   H874      1.0  0.45351  0.04031  0.68215  1.0000
  H   H875      1.0  0.39701  0.17398  0.75847  1.0000
  H   H876      1.0  0.53665  0.02196  0.70664  1.0000
  H   H877      1.0  0.37596  0.06576  0.84940  1.0000
  C   C503      1.0  0.34771  0.14512  0.51244  1.0000
  C   C504      1.0  0.48424  0.05242  0.78400  1.0000
  H   H878      1.0  0.58696  0.05820  0.83879  1.0000
  H   H879      1.0  0.42417  0.15328  0.48680  1.0000
  H   H880      1.0  0.41452  0.15709  0.71556  1.0000
  H   H881      1.0  0.60738  0.02388  0.83814  1.0000
  H   H882      1.0  0.42473  0.19527  0.73333  1.0000
  H   H883      1.0  0.32252  0.20488  0.55882  1.0000
  H   H884      1.0  0.48848  0.23141  0.54197  1.0000
  H   H885      1.0  0.59365  0.01596  0.80627  1.0000
  H   H886      1.0  0.44543  0.18161  0.75369  1.0000
  H   H887      1.0  0.42948  0.02845  0.73659  1.0000
  H   H888      1.0  0.44339  0.10645  0.65403  1.0000
  H   H889      1.0  0.62157  0.45903  0.52529  1.0000
  H   H890      1.0  0.42089  0.12566  0.69119  1.0000
  C   C505      1.0  0.60028  0.02983  0.81776  1.0000
  H   H891      1.0  0.63135  0.27791  0.58601  1.0000
  H   H892      1.0  0.41244  0.14476  0.66425  1.0000
  H   H893      1.0  0.41318  0.18311  0.68120  1.0000
  C   C506      1.0  0.40000  0.99529  0.72388  1.0000
  H   H894      1.0  0.33996  0.17241  0.55730  1.0000
  H   H895      1.0  0.42368  0.20514  0.60670  1.0000
  H   H896      1.0  0.64279  0.23967  0.59170  1.0000
  H   H897      1.0  0.47927  0.05824  0.80557  1.0000
  C   C507      1.0  0.42967  0.17969  0.74322  1.0000
  N   N28       1.0  0.53253  0.17774  0.58081  1.0000
  C   C508      1.0  0.53499  0.16252  0.55603  1.0000
  C   C509      1.0  0.51103  0.18908  0.57868  1.0000
  C   C510      1.0  0.54958  0.19467  0.57713  1.0000
  C   C511      1.0  0.53532  0.16677  0.60983  1.0000
  C   C512      1.0  0.52747  0.14326  0.61325  1.0000
  C   C513      1.0  0.55752  0.15198  0.55244  1.0000
  C   C514      1.0  0.54845  0.21353  0.59860  1.0000
  C   C515      1.0  0.49078  0.17506  0.58177  1.0000
  C   C516      1.0  0.47056  0.18796  0.57411  1.0000
  C   C517      1.0  0.52971  0.13523  0.64434  1.0000
  C   C518      1.0  0.55724  0.13330  0.53158  1.0000
  C   C519      1.0  0.56884  0.22685  0.59720  1.0000
  H   H898      1.0  0.53138  0.17105  0.53532  1.0000
  H   H899      1.0  0.52319  0.14941  0.55770  1.0000
  H   H900      1.0  0.50909  0.20123  0.59577  1.0000
  H   H901      1.0  0.51018  0.19817  0.55779  1.0000
  H   H902      1.0  0.54925  0.20180  0.55496  1.0000
  H   H903      1.0  0.56576  0.18729  0.57947  1.0000
  H   H904      1.0  0.55260  0.16623  0.61580  1.0000
  H   H905      1.0  0.52724  0.17637  0.62686  1.0000
  H   H906      1.0  0.53716  0.13221  0.59971  1.0000
  H   H907      1.0  0.51055  0.14152  0.60708  1.0000
  H   H908      1.0  0.56908  0.16384  0.54366  1.0000
  H   H909      1.0  0.56375  0.14601  0.57330  1.0000
  H   H910      1.0  0.54632  0.20761  0.62107  1.0000
  H   H911      1.0  0.53494  0.22459  0.59317  1.0000
  H   H912      1.0  0.49141  0.16099  0.56753  1.0000
  H   H913      1.0  0.48885  0.16955  0.60446  1.0000
  H   H914      1.0  0.47103  0.19292  0.55103  1.0000
  H   H915      1.0  0.45616  0.17794  0.57782  1.0000
  H   H916      1.0  0.46900  0.20251  0.58754  1.0000
  H   H917      1.0  0.52435  0.11833  0.64630  1.0000
  H   H918      1.0  0.54674  0.13575  0.65111  1.0000
  H   H919      1.0  0.51975  0.14509  0.65919  1.0000
  H   H920      1.0  0.55158  0.13886  0.51013  1.0000
  C   C520      1.0  0.64148  0.43590  0.50242  1.0000
  H   H921      1.0  0.50322  0.00309  0.69305  1.0000
  H   H922      1.0  0.57104  0.23393  0.57533  1.0000
  H   H923      1.0  0.56756  0.24013  0.61280  1.0000
  H   H924      1.0  0.58312  0.21682  0.60264  1.0000
  H   H925      1.0  0.42802  0.06181  0.85941  1.0000
  S   S126      1.0  0.52961  0.23444  0.51330  1.0000
  H   H926      1.0  0.44975  0.06899  0.68440  1.0000
  H   H927      1.0  0.48383  0.02252  0.76067  1.0000
  H   H928      1.0  0.47302  0.16337  0.71587  1.0000
  C   C521      1.0  0.33398  0.05354  0.83606  1.0000
  H   H929      1.0  0.33645  0.07114  0.83567  1.0000
  H   H930      1.0  0.43195  0.22011  0.63744  1.0000
  H   H931      1.0  0.52551  0.02738  0.64272  1.0000
  H   H932      1.0  0.37669  0.04031  0.83098  1.0000
  H   H933      1.0  0.46349  0.19046  0.71388  1.0000
  H   H934      1.0  0.36108  0.15637  0.51591  1.0000
  C   C522      1.0  0.62256  0.26501  0.57516  1.0000
  H   H935      1.0  0.47853  0.02006  0.79800  1.0000
  H   H936      1.0  0.41741  0.15820  0.77698  1.0000
  C   C523      1.0  0.63678  0.45871  0.51258  1.0000
  H   H937      1.0  0.47022  0.05487  0.72552  1.0000
  H   H938      1.0  0.63509  0.46992  0.49389  1.0000
  C   C524      1.0  0.48541  0.23260  0.51917  1.0000
  C   C525      1.0  0.43301  0.18530  0.64341  1.0000
  H   H939      1.0  0.32508  0.12294  0.64891  1.0000
  C   C526      1.0  0.58146  0.04468  0.82559  1.0000
  H   H940      1.0  0.42487  0.03143  0.82757  1.0000
  C   C527      1.0  0.46510  0.17546  0.70134  1.0000
  H   H941      1.0  0.47898  0.06470  0.76814  1.0000
  Fe  Fe64      1.0  0.39895  0.23012  0.48412  1.0000
  H   H942      1.0  0.34607  0.09410  0.89994  1.0000
  H   H943      1.0  0.51146  0.03976  0.67276  1.0000
  C   C528      1.0  0.63610  0.11224  0.82024  1.0000
  C   C529      1.0  0.43126  0.16179  0.72038  1.0000
  H   H944      1.0  0.47535  0.19525  0.66442  1.0000
  C   C530      1.0  0.32552  0.16316  0.55167  1.0000
  H   H945      1.0  0.62835  0.00895  0.76475  1.0000
  H   H946      1.0  0.33010  0.22205  0.60571  1.0000
  C   C531      1.0  0.61711  0.04144  0.79826  1.0000
  S   S127      1.0  0.39391  0.19578  0.49752  1.0000
  H   H947      1.0  0.43480  0.20086  0.68486  1.0000
  C   C532      1.0  0.43026  0.06462  0.83593  1.0000
  H   H948      1.0  0.61639  0.27127  0.55429  1.0000
  H   H949      1.0  0.60864  0.26034  0.58896  1.0000
  H   H950      1.0  0.34026  0.04806  0.81491  1.0000
  N   N29       1.0  0.44332  0.16750  0.69287  1.0000
  H   H951      1.0  0.44405  0.06248  0.78296  1.0000
  C   C533      1.0  0.47453  0.02999  0.77861  1.0000
  C   C534      1.0  0.46394  0.23319  0.50959  1.0000
  H   H952      1.0  0.62084  0.98970  0.68867  1.0000
  H   H953      1.0  0.34715  0.98937  0.93100  1.0000
  S   S128      1.0  0.57001  0.19140  0.49355  1.0000
  H   H954      1.0  0.42779  0.05148  0.69320  1.0000
  H   H955      1.0  0.41522  0.10711  0.64616  1.0000
  C   C535      1.0  0.63587  0.08981  0.86384  1.0000
  H   H956      1.0  0.51413  0.19128  0.67105  1.0000
  H   H957      1.0  0.62711  0.23291  0.56107  1.0000
  H   H958      1.0  0.55099  0.00990  0.67707  1.0000
  H   H959      1.0  0.44286  0.07690  0.83264  1.0000
  H   H960      1.0  0.41401  0.18638  0.78416  1.0000
  C   C536      1.0  0.48113  0.18095  0.67668  1.0000
  C   C537      1.0  0.50877  0.05154  0.78292  1.0000
  H   H961      1.0  0.33728  0.15178  0.49519  1.0000
  H   H962      1.0  0.53895  0.04637  0.66478  1.0000
  H   H963      1.0  0.57374  0.12659  0.52900  1.0000
  H   H964      1.0  0.43299  0.12487  0.62680  1.0000
  H   H965      1.0  0.37935  0.12297  0.60309  1.0000
  H   H966      1.0  0.64231  0.42530  0.52168  1.0000
  H   H967      1.0  0.40597  0.20747  0.63735  1.0000
  C   C538      1.0  0.43694  0.04371  0.82142  1.0000
  H   H968      1.0  0.48368  0.16734  0.66192  1.0000
  C   C539      1.0  0.58188  0.98972  0.75418  1.0000
  C   C540      1.0  0.41352  0.17412  0.76710  1.0000
  H   H969      1.0  0.64313  0.39600  0.49216  1.0000
  C   C541      1.0  0.51886  0.99618  0.68578  1.0000
  H   H970      1.0  0.35173  0.99064  0.77674  1.0000
  H   H971      1.0  0.63940  0.29553  0.50906  1.0000
  H   H972      1.0  0.64943  0.25539  0.52850  1.0000
  H   H973      1.0  0.61193  0.08907  0.83047  1.0000
  C   C542      1.0  0.33399  0.10242  0.88737  1.0000
  C   C543      1.0  0.52712  0.03318  0.66505  1.0000
  H   H974      1.0  0.35463  0.10565  0.84972  1.0000
  H   H975      1.0  0.50157  0.20005  0.70395  1.0000
  H   H976      1.0  0.42104  0.04668  0.78049  1.0000
  H   H977      1.0  0.57377  0.05124  0.80589  1.0000
  C   C544      1.0  0.63717  0.24546  0.57039  1.0000
  C   C545      1.0  0.36524  0.99197  0.76202  1.0000
  H   H978      1.0  0.51012  0.17235  0.70028  1.0000
  C   C546      1.0  0.37268  0.04833  0.85161  1.0000
  C   C547      1.0  0.53491  0.01506  0.68499  1.0000
  C   C548      1.0  0.42586  0.13413  0.67099  1.0000
  H   H979      1.0  0.41496  0.07090  0.82699  1.0000
  H   H980      1.0  0.51519  0.06766  0.78759  1.0000
  H   H981      1.0  0.56926  0.03558  0.83819  1.0000
  C   C549      1.0  0.44637  0.14723  0.67591  1.0000
  C   C550      1.0  0.42971  0.11713  0.64807  1.0000
  C   C551      1.0  0.45259  0.05275  0.72582  1.0000
  C   C552      1.0  0.50303  0.18649  0.68879  1.0000
  C   C553      1.0  0.44223  0.00762  0.78250  1.0000
  H   H982      1.0  0.45786  0.13633  0.68696  1.0000
  N   N30       1.0  0.45076  0.02918  0.77259  1.0000
  C   C554      1.0  0.43794  0.04626  0.78814  1.0000
  C   C555      1.0  0.44672  0.03123  0.74070  1.0000
  H   H983      1.0  0.51466  0.04692  0.76117  1.0000
  H   H984      1.0  0.34604  0.05368  0.88024  1.0000
  H   H985      1.0  0.51507  0.03990  0.79915  1.0000
  H   H986      1.0  0.45579  0.01872  0.72865  1.0000
  H   H987      1.0  0.33237  0.14532  0.60412  1.0000
  H   H988      1.0  0.44526  0.00496  0.80581  1.0000
  C   C556      1.0  0.33478  0.14159  0.54028  1.0000
  H   H989      1.0  0.34581  0.13425  0.55632  1.0000
  H   H990      1.0  0.32778  0.18267  0.60495  1.0000
  H   H991      1.0  0.41331  0.99658  0.70881  1.0000
  H   H992      1.0  0.50918  0.99250  0.74069  1.0000
  H   H993      1.0  0.62759  0.43082  0.48953  1.0000
  C   C557      1.0  0.65378  0.29722  0.49601  1.0000
  H   H994      1.0  0.32215  0.12983  0.53599  1.0000
  H   H995      1.0  0.33311  0.00739  0.83174  1.0000
  N   N31       1.0  0.63914  0.03106  0.79662  1.0000
  H   H996      1.0  0.64500  0.00799  0.92687  1.0000
  H   H997      1.0  0.62842  0.07730  0.87670  1.0000
  C   C558      1.0  0.32351  0.11963  0.84212  1.0000
  H   H998      1.0  0.65030  0.20860  0.54958  1.0000
  H   H999      1.0  0.53722  0.99614  0.73910  1.0000
  H   H1000     1.0  0.63810  0.07586  0.77382  1.0000
  H   H1001     1.0  0.64306  0.04547  0.83847  1.0000
  H   H1002     1.0  0.64988  0.46430  0.52648  1.0000
  H   H1003     1.0  0.64522  0.04150  0.75265  1.0000
  H   H1004     1.0  0.65075  0.17260  0.52661  1.0000
  C   C559      1.0  0.63625  0.00847  0.78614  1.0000
  C   C560      1.0  0.65212  0.04345  0.77447  1.0000
  C   C561      1.0  0.65454  0.12227  0.83059  1.0000
  C   C562      1.0  0.65439  0.09977  0.87413  1.0000
  C   C563      1.0  0.64888  0.03121  0.82626  1.0000
  C   C564      1.0  0.65351  0.06796  0.77950  1.0000
  Fe  Fe65      1.0  0.39901  0.87495  0.22993  1.0000
  S   S129      1.0  0.39497  0.88959  0.27336  1.0000
  S   S130      1.0  0.42998  0.85677  0.22041  1.0000
  Fe  Fe66      1.0  0.35440  0.89005  0.20901  1.0000
  S   S131      1.0  0.34765  0.90579  0.25184  1.0000
  H   H1005     1.0  0.38716  0.78962  0.31766  1.0000
  Fe  Fe67      1.0  0.38135  0.91788  0.24857  1.0000
  S   S132      1.0  0.39569  0.95057  0.25611  1.0000
  Fe  Fe68      1.0  0.36190  0.87595  0.27285  1.0000
  S   S133      1.0  0.34534  0.85736  0.30979  1.0000
  S   S134      1.0  0.38756  0.90400  0.20489  1.0000
  S   S135      1.0  0.36649  0.85943  0.23037  1.0000
  Fe  Fe69      1.0  0.59295  0.91075  0.26268  1.0000
  S   S136      1.0  0.57493  0.91113  0.22164  1.0000
  S   S137      1.0  0.60746  0.94179  0.27807  1.0000
  Fe  Fe70      1.0  0.58440  0.86294  0.27373  1.0000
  S   S138      1.0  0.56586  0.86068  0.23208  1.0000
  S   S139      1.0  0.58451  0.83248  0.30270  1.0000
  Fe  Fe71      1.0  0.59246  0.88047  0.21149  1.0000
  S   S140      1.0  0.60241  0.88062  0.16347  1.0000
  Fe  Fe72      1.0  0.55029  0.89174  0.24544  1.0000
  S   S141      1.0  0.51632  0.90547  0.24433  1.0000
  S   S142      1.0  0.61198  0.88066  0.25210  1.0000
  S   S143      1.0  0.56731  0.89318  0.28760  1.0000
  Fe  Fe73      1.0  0.60731  0.78673  0.46623  1.0000
  S   S144      1.0  0.59114  0.75472  0.46398  1.0000
  S   S145      1.0  0.61728  0.81032  0.43015  1.0000
  Fe  Fe74      1.0  0.37382  0.79154  0.46204  1.0000
  S   S146      1.0  0.38138  0.75753  0.44951  1.0000
  S   S147      1.0  0.37879  0.82007  0.43053  1.0000
  H   H1006     1.0  0.52605  0.98126  0.19921  1.0000
  C   C565      1.0  0.65061  0.79596  0.34290  1.0000
  C   C566      1.0  0.51545  0.95190  0.18091  1.0000
  C   C567      1.0  0.32487  0.92962  0.01185  1.0000
  C   C568      1.0  0.51974  0.88446  0.15997  1.0000
  H   H1007     1.0  0.40536  0.94770  0.31793  1.0000
  C   C569      1.0  0.59370  0.82681  0.33824  1.0000
  C   C570      1.0  0.60631  0.84108  0.35335  1.0000
  C   C571      1.0  0.61355  0.83559  0.38120  1.0000
  C   C572      1.0  0.60774  0.81612  0.39481  1.0000
  C   C573      1.0  0.59523  0.80177  0.37967  1.0000
  C   C574      1.0  0.58847  0.80701  0.35149  1.0000
  H   H1008     1.0  0.61075  0.85622  0.34338  1.0000
  H   H1009     1.0  0.62357  0.84668  0.39240  1.0000
  H   H1010     1.0  0.59114  0.78645  0.38937  1.0000
  H   H1011     1.0  0.57911  0.79565  0.33979  1.0000
  C   C575      1.0  0.62689  0.87983  0.14285  1.0000
  C   C576      1.0  0.62606  0.88303  0.11278  1.0000
  H   H1012     1.0  0.61070  0.88578  0.10278  1.0000
  H   H1013     1.0  0.43429  0.93265  0.22108  1.0000
  H   H1014     1.0  0.33363  0.95248  0.35294  1.0000
  C   C577      1.0  0.59732  0.96677  0.26513  1.0000
  H   H1015     1.0  0.37298  0.91773  0.37027  1.0000
  H   H1016     1.0  0.52105  0.88776  0.18330  1.0000
  H   H1017     1.0  0.52886  0.95195  0.16495  1.0000
  C   C578      1.0  0.49290  0.89004  0.24153  1.0000
  C   C579      1.0  0.47308  0.89988  0.24786  1.0000
  C   C580      1.0  0.45378  0.88929  0.24294  1.0000
  C   C581      1.0  0.45407  0.86888  0.23094  1.0000
  C   C582      1.0  0.47390  0.85870  0.22532  1.0000
  C   C583      1.0  0.49331  0.86917  0.23082  1.0000
  H   H1018     1.0  0.47261  0.91589  0.25627  1.0000
  H   H1019     1.0  0.43864  0.89728  0.24745  1.0000
  H   H1020     1.0  0.47427  0.84287  0.21609  1.0000
  H   H1021     1.0  0.50851  0.86144  0.22580  1.0000
  C   C584      1.0  0.36944  0.82944  0.39648  1.0000
  C   C585      1.0  0.38152  0.84494  0.38121  1.0000
  C   C586      1.0  0.37488  0.85301  0.35417  1.0000
  C   C587      1.0  0.35567  0.84614  0.34238  1.0000
  C   C588      1.0  0.34351  0.83077  0.35774  1.0000
  C   C589      1.0  0.35047  0.82225  0.38443  1.0000
  H   H1022     1.0  0.39620  0.85068  0.39034  1.0000
  H   H1023     1.0  0.38447  0.86476  0.34268  1.0000
  H   H1024     1.0  0.44252  0.94903  0.29779  1.0000
  H   H1025     1.0  0.34090  0.81048  0.39596  1.0000
  H   H1026     1.0  0.35261  0.87508  0.13097  1.0000
  H   H1027     1.0  0.46721  0.81225  0.47417  1.0000
  C   C590      1.0  0.38120  0.97510  0.25729  1.0000
  H   H1028     1.0  0.63568  0.69914  0.43370  1.0000
  H   H1029     1.0  0.52587  0.89846  0.14743  1.0000
  H   H1030     1.0  0.34983  0.96117  0.26036  1.0000
  H   H1031     1.0  0.34856  0.90942  0.41212  1.0000
  H   H1032     1.0  0.53537  0.94030  0.32283  1.0000
  H   H1033     1.0  0.56832  0.95174  0.13817  1.0000
  H   H1034     1.0  0.33480  0.97512  0.20067  1.0000
  H   H1035     1.0  0.41584  0.83252  0.27783  1.0000
  C   C591      1.0  0.42123  0.84979  0.13700  1.0000
  C   C592      1.0  0.49648  0.81306  0.44829  1.0000
  C   C593      1.0  0.44430  0.91069  0.17036  1.0000
  C   C594      1.0  0.40360  0.82332  0.29031  1.0000
  H   H1036     1.0  0.35903  0.78453  0.35162  1.0000
  C   C595      1.0  0.33381  0.89882  0.37178  1.0000
  C   C596      1.0  0.45223  0.93290  0.18044  1.0000
  C   C597      1.0  0.45074  0.87610  0.14765  1.0000
  H   H1037     1.0  0.48939  0.91417  0.15440  1.0000
  H   H1038     1.0  0.42389  0.84127  0.15787  1.0000
  H   H1039     1.0  0.51215  0.84373  0.44366  1.0000
  C   C598      1.0  0.43621  0.94302  0.20157  1.0000
  C   C599      1.0  0.56304  0.83980  0.44650  1.0000
  C   C600      1.0  0.47212  0.95947  0.27742  1.0000
  H   H1040     1.0  0.44159  0.97627  0.28443  1.0000
  C   C601      1.0  0.35091  0.75676  0.37687  1.0000
  H   H1041     1.0  0.44149  0.90062  0.18995  1.0000
  H   H1042     1.0  0.42811  0.91357  0.16113  1.0000
  H   H1043     1.0  0.53740  0.96098  0.26166  1.0000
  H   H1044     1.0  0.46315  0.92720  0.12265  1.0000
  C   C602      1.0  0.48150  0.82255  0.47127  1.0000
  H   H1045     1.0  0.63501  0.75192  0.43570  1.0000
  H   H1046     1.0  0.64387  0.88484  0.07238  1.0000
  N   N32       1.0  0.34050  0.91835  0.35437  1.0000
  H   H1047     1.0  0.45420  0.94422  0.16200  1.0000
  H   H1048     1.0  0.46776  0.93147  0.19172  1.0000
  H   H1049     1.0  0.61736  0.98554  0.29228  1.0000
  C   C603      1.0  0.34644  0.89448  0.39987  1.0000
  C   C604      1.0  0.61403  0.94640  0.18073  1.0000
  H   H1050     1.0  0.54908  0.96208  0.33950  1.0000
  H   H1051     1.0  0.53007  0.87029  0.15504  1.0000
  C   C605      1.0  0.37444  0.93436  0.32943  1.0000
  C   C606      1.0  0.33522  0.93923  0.36920  1.0000
  C   C607      1.0  0.64693  0.87614  0.15533  1.0000
  H   H1052     1.0  0.37088  0.93100  0.30661  1.0000
  C   C608      1.0  0.64488  0.88248  0.09542  1.0000
  H   H1053     1.0  0.51584  0.94696  0.27730  1.0000
  H   H1054     1.0  0.44204  0.95888  0.20842  1.0000
  H   H1055     1.0  0.42029  0.94540  0.19149  1.0000
  H   H1056     1.0  0.40391  0.76161  0.30099  1.0000
  H   H1057     1.0  0.60689  0.95794  0.13675  1.0000
  C   C609      1.0  0.48137  0.89887  0.16054  1.0000
  H   H1058     1.0  0.60526  0.94587  0.20172  1.0000
  H   H1059     1.0  0.33562  0.88415  0.35859  1.0000
  H   H1060     1.0  0.46893  0.92979  0.06847  1.0000
  C   C610      1.0  0.54393  0.95558  0.31863  1.0000
  H   H1061     1.0  0.48728  0.81247  0.42819  1.0000
  H   H1062     1.0  0.64792  0.87334  0.17829  1.0000
  H   H1063     1.0  0.45605  0.96968  0.31705  1.0000
  H   H1064     1.0  0.57158  0.82438  0.45071  1.0000
  H   H1065     1.0  0.48774  0.90260  0.09903  1.0000
  C   C611      1.0  0.35880  0.97591  0.25961  1.0000
  H   H1066     1.0  0.34756  0.76592  0.39681  1.0000
  H   H1067     1.0  0.36260  0.88782  0.39460  1.0000
  H   H1068     1.0  0.45288  0.86784  0.16883  1.0000
  C   C612      1.0  0.64820  0.94485  0.20766  1.0000
  C   C613      1.0  0.64485  0.92032  0.21077  1.0000
  H   H1069     1.0  0.48149  0.94677  0.28878  1.0000
  C   C614      1.0  0.33661  0.87804  0.12304  1.0000
  H   H1070     1.0  0.47594  0.83889  0.46474  1.0000
  H   H1071     1.0  0.39796  0.74125  0.32811  1.0000
  H   H1072     1.0  0.61583  0.92935  0.17445  1.0000
  H   H1073     1.0  0.44803  0.91062  0.06174  1.0000
  H   H1074     1.0  0.35745  0.74065  0.38284  1.0000
  C   C615      1.0  0.57979  0.85735  0.44280  1.0000
  H   H1075     1.0  0.48110  0.89829  0.18449  1.0000
  H   H1076     1.0  0.33827  0.93921  0.02013  1.0000
  H   H1077     1.0  0.46669  0.88359  0.09244  1.0000
  C   C616      1.0  0.36449  0.91682  0.34945  1.0000
  C   C617      1.0  0.36669  0.76887  0.35730  1.0000
  H   H1078     1.0  0.55853  0.95224  0.30533  1.0000
  C   C618      1.0  0.42692  0.87348  0.13929  1.0000
  H   H1079     1.0  0.35303  0.96876  0.17156  1.0000
  H   H1080     1.0  0.45086  0.80795  0.41336  1.0000
  H   H1081     1.0  0.34529  0.87418  0.43824  1.0000
  C   C619      1.0  0.65147  0.76787  0.38328  1.0000
  H   H1082     1.0  0.61258  0.71666  0.43802  1.0000
  C   C620      1.0  0.59897  0.95710  0.15824  1.0000
  C   C621      1.0  0.50258  0.96612  0.22909  1.0000
  H   H1083     1.0  0.41603  0.88042  0.15589  1.0000
  H   H1084     1.0  0.49616  0.87632  0.12897  1.0000
  C   C622      1.0  0.51709  0.82648  0.44490  1.0000
  C   C623      1.0  0.39883  0.93482  0.33216  1.0000
  H   H1085     1.0  0.39171  0.83491  0.29930  1.0000
  H   H1086     1.0  0.33577  0.90288  0.31385  1.0000
  H   H1087     1.0  0.53055  0.81953  0.31811  1.0000
  H   H1088     1.0  0.56913  0.94423  0.17570  1.0000
  H   H1089     1.0  0.49784  0.94918  0.23341  1.0000
  H   H1090     1.0  0.34368  0.86552  0.08079  1.0000
  H   H1091     1.0  0.57514  0.95321  0.23581  1.0000
  N   N33       1.0  0.45870  0.89883  0.14929  1.0000
  H   H1092     1.0  0.53336  0.74501  0.41222  1.0000
  H   H1093     1.0  0.40609  0.91925  0.32558  1.0000
  C   C624      1.0  0.45188  0.96401  0.29532  1.0000
  H   H1094     1.0  0.65127  0.75681  0.36469  1.0000
  C   C625      1.0  0.57843  0.94427  0.15516  1.0000
  H   H1095     1.0  0.36884  0.75974  0.33725  1.0000
  H   H1096     1.0  0.36810  0.95059  0.33451  1.0000
  H   H1097     1.0  0.41981  0.72660  0.28858  1.0000
  H   H1098     1.0  0.55325  0.84396  0.46572  1.0000
  H   H1099     1.0  0.55878  0.75852  0.41051  1.0000
  H   H1100     1.0  0.34871  0.94407  0.38309  1.0000
  H   H1101     1.0  0.40403  0.84835  0.13151  1.0000
  H   H1102     1.0  0.53590  0.95710  0.21637  1.0000
  H   H1103     1.0  0.64640  0.91216  0.18996  1.0000
  C   C626      1.0  0.45734  0.91051  0.12069  1.0000
  H   H1104     1.0  0.50786  0.83237  0.33540  1.0000
  H   H1105     1.0  0.58220  0.92744  0.14905  1.0000
  C   C627      1.0  0.52225  0.96340  0.27401  1.0000
  H   H1106     1.0  0.58948  0.85499  0.42293  1.0000
  H   H1107     1.0  0.46048  0.86644  0.13239  1.0000
  H   H1108     1.0  0.39537  0.81256  0.27530  1.0000
  H   H1109     1.0  0.51192  0.80356  0.33898  1.0000
  C   C628      1.0  0.46522  0.91245  0.06708  1.0000
  H   H1110     1.0  0.51242  0.93498  0.18759  1.0000
  H   H1111     1.0  0.52543  0.82414  0.46573  1.0000
  H   H1112     1.0  0.50065  0.79653  0.45547  1.0000
  C   C629      1.0  0.58194  0.96772  0.24359  1.0000
  H   H1113     1.0  0.44667  0.78760  0.44095  1.0000
  H   H1114     1.0  0.44033  0.91235  0.11406  1.0000
  H   H1115     1.0  0.54361  0.75725  0.44395  1.0000
  H   H1116     1.0  0.62281  0.73559  0.39167  1.0000
  H   H1117     1.0  0.47509  0.90547  0.04938  1.0000
  N   N34       1.0  0.40646  0.78237  0.35531  1.0000
  C   C630      1.0  0.39772  0.79783  0.33286  1.0000
  C   C631      1.0  0.38826  0.77247  0.37274  1.0000
  C   C632      1.0  0.41991  0.79505  0.37566  1.0000
  C   C633      1.0  0.42067  0.76524  0.34227  1.0000
  C   C634      1.0  0.42746  0.73657  0.30508  1.0000
  C   C635      1.0  0.41445  0.81035  0.31438  1.0000
  C   C636      1.0  0.42946  0.78222  0.40157  1.0000
  H   H1118     1.0  0.51538  0.97511  0.31781  1.0000
  H   H1119     1.0  0.36897  0.90094  0.34022  1.0000
  H   H1120     1.0  0.32854  0.82545  0.34898  1.0000
  C   C637      1.0  0.33022  0.91761  0.32519  1.0000
  C   C638      1.0  0.43883  0.79724  0.42365  1.0000
  H   H1121     1.0  0.38716  0.80993  0.34345  1.0000
  C   C639      1.0  0.41066  0.75154  0.31861  1.0000
  H   H1122     1.0  0.39343  0.75681  0.38245  1.0000
  H   H1123     1.0  0.38386  0.78279  0.39136  1.0000
  H   H1124     1.0  0.41033  0.80876  0.38432  1.0000
  H   H1125     1.0  0.43389  0.80228  0.36425  1.0000
  H   H1126     1.0  0.43572  0.77238  0.33349  1.0000
  H   H1127     1.0  0.42605  0.75363  0.35921  1.0000
  C   C640      1.0  0.33148  0.87267  0.09451  1.0000
  H   H1128     1.0  0.43454  0.72569  0.32167  1.0000
  H   H1129     1.0  0.42308  0.82197  0.32770  1.0000
  H   H1130     1.0  0.42626  0.79932  0.30415  1.0000
  H   H1131     1.0  0.44261  0.77139  0.39411  1.0000
  H   H1132     1.0  0.41732  0.77233  0.41295  1.0000
  H   H1133     1.0  0.63286  0.79497  0.34313  1.0000
  H   H1134     1.0  0.57194  0.87342  0.44167  1.0000
  N   N35       1.0  0.63556  0.95674  0.18461  1.0000
  H   H1135     1.0  0.49163  0.86512  0.16414  1.0000
  C   C641      1.0  0.52153  0.96500  0.20703  1.0000
  C   C642      1.0  0.52931  0.97191  0.30338  1.0000
  H   H1136     1.0  0.61450  0.69901  0.40778  1.0000
  H   H1137     1.0  0.62855  0.91720  0.21963  1.0000
  H   H1138     1.0  0.64409  0.95120  0.22943  1.0000
  H   H1139     1.0  0.32590  0.92962  0.98802  1.0000
  C   C643      1.0  0.34713  0.98183  0.18569  1.0000
  C   C644      1.0  0.33517  0.87801  0.41930  1.0000
  H   H1140     1.0  0.46668  0.95328  0.25653  1.0000
  H   H1141     1.0  0.43106  0.84195  0.11995  1.0000
  N   N36       1.0  0.53199  0.82129  0.41996  1.0000
  C   C645      1.0  0.51978  0.82336  0.39218  1.0000
  C   C646      1.0  0.49651  0.87989  0.15216  1.0000
  C   C647      1.0  0.54925  0.83815  0.41914  1.0000
  C   C648      1.0  0.54249  0.79946  0.42420  1.0000
  C   C649      1.0  0.53077  0.77979  0.41205  1.0000
  C   C650      1.0  0.53367  0.82266  0.36420  1.0000
  C   C651      1.0  0.47032  0.90076  0.09538  1.0000
  C   C652      1.0  0.62380  0.70939  0.42211  1.0000
  H   H1142     1.0  0.44042  0.74598  0.29442  1.0000
  C   C653      1.0  0.54240  0.75890  0.42021  1.0000
  C   C654      1.0  0.52004  0.81931  0.33764  1.0000
  H   H1143     1.0  0.42590  0.80716  0.43367  1.0000
  H   H1144     1.0  0.51053  0.83879  0.39158  1.0000
  H   H1145     1.0  0.50756  0.81068  0.39066  1.0000
  H   H1146     1.0  0.42358  0.88130  0.11822  1.0000
  H   H1147     1.0  0.59400  0.97348  0.16477  1.0000
  H   H1148     1.0  0.54210  0.85431  0.41443  1.0000
  H   H1149     1.0  0.56098  0.83497  0.40137  1.0000
  H   H1150     1.0  0.55875  0.79915  0.41410  1.0000
  H   H1151     1.0  0.54534  0.79624  0.44752  1.0000
  H   H1152     1.0  0.53036  0.78061  0.38822  1.0000
  H   H1153     1.0  0.51405  0.77870  0.42003  1.0000
  H   H1154     1.0  0.54222  0.83807  0.36084  1.0000
  H   H1155     1.0  0.54577  0.80955  0.36538  1.0000
  S   S148      1.0  0.32662  0.89512  0.17713  1.0000
  H   H1156     1.0  0.32319  0.96958  0.40994  1.0000
  H   H1157     1.0  0.33535  0.93140  0.31139  1.0000
  H   H1158     1.0  0.40344  0.93829  0.35459  1.0000
  C   C655      1.0  0.64742  0.74246  0.42371  1.0000
  H   H1159     1.0  0.63429  0.77093  0.38913  1.0000
  S   S149      1.0  0.33399  0.71838  0.46968  1.0000
  H   H1160     1.0  0.33554  0.75465  0.36553  1.0000
  H   H1161     1.0  0.59087  0.85674  0.46123  1.0000
  H   H1162     1.0  0.55693  0.90331  0.47491  1.0000
  H   H1163     1.0  0.33261  0.86290  0.40752  1.0000
  H   H1164     1.0  0.32652  0.91275  0.01976  1.0000
  C   C656      1.0  0.64824  0.95814  0.15678  1.0000
  H   H1165     1.0  0.63146  0.91676  0.00293  1.0000
  C   C657      1.0  0.63518  0.72674  0.40427  1.0000
  H   H1166     1.0  0.50094  0.95880  0.17052  1.0000
  H   H1167     1.0  0.64041  0.96968  0.14159  1.0000
  H   H1168     1.0  0.63743  0.92801  0.13715  1.0000
  N   N37       1.0  0.50679  0.97732  0.25705  1.0000
  H   H1169     1.0  0.64603  0.71840  0.38895  1.0000
  H   H1170     1.0  0.48880  0.97401  0.21790  1.0000
  C   C658      1.0  0.63146  0.97932  0.19499  1.0000
  H   H1171     1.0  0.62111  0.97888  0.21470  1.0000
  C   C659      1.0  0.48551  0.98005  0.27265  1.0000
  Fe  Fe75      1.0  0.35607  0.74693  0.48219  1.0000
  H   H1172     1.0  0.65230  0.95057  0.09739  1.0000
  S   S150      1.0  0.43872  0.74292  0.47529  1.0000
  C   C660      1.0  0.48305  0.74011  0.47386  1.0000
  H   H1173     1.0  0.40470  0.69767  0.47598  1.0000
  H   H1174     1.0  0.48067  0.72640  0.46035  1.0000
  H   H1175     1.0  0.51771  0.73711  0.47235  1.0000
  C   C661      1.0  0.50416  0.74620  0.48059  1.0000
  C   C662      1.0  0.65244  0.93681  0.14090  1.0000
  C   C663      1.0  0.60553  0.98605  0.27547  1.0000
  H   H1176     1.0  0.53874  0.98677  0.30021  1.0000
  H   H1177     1.0  0.65426  0.80270  0.38771  1.0000
  H   H1178     1.0  0.61284  0.93354  0.98316  1.0000
  H   H1179     1.0  0.48758  0.98724  0.29408  1.0000
  H   H1180     1.0  0.65504  0.81267  0.33691  1.0000
  H   H1181     1.0  0.56446  0.98792  0.21391  1.0000
  C   C664      1.0  0.57569  0.98750  0.23141  1.0000
  H   H1182     1.0  0.36086  0.98758  0.19831  1.0000
  Fe  Fe76      1.0  0.60861  0.78498  0.53329  1.0000
  S   S151      1.0  0.59267  0.75277  0.53491  1.0000
  S   S152      1.0  0.62153  0.80501  0.57033  1.0000
  H   H1183     1.0  0.35906  0.92783  0.92050  1.0000
  C   C665      1.0  0.32584  0.91756  0.91310  1.0000
  H   H1184     1.0  0.50445  0.79426  0.61091  1.0000
  C   C666      1.0  0.34522  0.86721  0.83832  1.0000
  H   H1185     1.0  0.40931  0.70385  0.51299  1.0000
  S   S153      1.0  0.63430  0.71056  0.49753  1.0000
  Fe  Fe77      1.0  0.37276  0.77919  0.52652  1.0000
  S   S154      1.0  0.38093  0.74449  0.51708  1.0000
  S   S155      1.0  0.36716  0.78605  0.57461  1.0000
  H   H1186     1.0  0.54260  0.82392  0.52235  1.0000
  C   C667      1.0  0.61591  0.85429  0.52556  1.0000
  C   C668      1.0  0.64338  0.92741  0.96108  1.0000
  H   H1187     1.0  0.43873  0.82759  0.71487  1.0000
  H   H1188     1.0  0.37515  0.68694  0.59872  1.0000
  Fe  Fe78      1.0  0.39079  0.87708  0.69768  1.0000
  S   S156      1.0  0.38964  0.85642  0.73770  1.0000
  S   S157      1.0  0.39032  0.86774  0.65007  1.0000
  Fe  Fe79      1.0  0.39941  0.91799  0.73278  1.0000
  S   S158      1.0  0.39908  0.90020  0.77536  1.0000
  S   S159      1.0  0.40990  0.95245  0.72516  1.0000
  Fe  Fe80      1.0  0.41837  0.87502  0.75168  1.0000
  S   S160      1.0  0.44822  0.85752  0.76703  1.0000
  Fe  Fe81      1.0  0.37021  0.88317  0.75832  1.0000
  H   H1189     1.0  0.62016  0.91621  0.83609  1.0000
  S   S161      1.0  0.42072  0.89387  0.71063  1.0000
  S   S162      1.0  0.36944  0.90288  0.71688  1.0000
  Fe  Fe82      1.0  0.59191  0.86806  0.71929  1.0000
  S   S163      1.0  0.58223  0.86340  0.76621  1.0000
  S   S164      1.0  0.58079  0.84305  0.68673  1.0000
  Fe  Fe83      1.0  0.60544  0.91497  0.73004  1.0000
  S   S165      1.0  0.59641  0.91331  0.77667  1.0000
  S   S166      1.0  0.61732  0.94601  0.70953  1.0000
  Fe  Fe84      1.0  0.61275  0.88095  0.77718  1.0000
  S   S167      1.0  0.64046  0.87421  0.80879  1.0000
  Fe  Fe85      1.0  0.56702  0.89630  0.76187  1.0000
  S   S168      1.0  0.53433  0.91048  0.77294  1.0000
  S   S169      1.0  0.62337  0.88334  0.73027  1.0000
  S   S170      1.0  0.57520  0.90012  0.71512  1.0000
  H   H1190     1.0  0.47756  0.92924  0.71140  1.0000
  C   C669      1.0  0.62739  0.87316  0.86679  1.0000
  H   H1191     1.0  0.61109  0.87254  0.85921  1.0000
  H   H1192     1.0  0.61825  0.87064  0.91175  1.0000
  H   H1193     1.0  0.64309  0.66496  0.50584  1.0000
  H   H1194     1.0  0.33954  0.74460  0.57885  1.0000
  H   H1195     1.0  0.54704  0.84422  0.58188  1.0000
  H   H1196     1.0  0.52868  0.80757  0.62068  1.0000
  H   H1197     1.0  0.58821  0.95574  0.75697  1.0000
  C   C670      1.0  0.47205  0.87240  0.76869  1.0000
  C   C671      1.0  0.47191  0.89465  0.76427  1.0000
  C   C672      1.0  0.49112  0.90612  0.76579  1.0000
  C   C673      1.0  0.51070  0.89537  0.77071  1.0000
  C   C674      1.0  0.51090  0.87308  0.77469  1.0000
  C   C675      1.0  0.49156  0.86169  0.77420  1.0000
  H   H1198     1.0  0.45694  0.90305  0.76021  1.0000
  H   H1199     1.0  0.49079  0.92337  0.76315  1.0000
  H   H1200     1.0  0.52587  0.86472  0.77894  1.0000
  H   H1201     1.0  0.49171  0.84452  0.77797  1.0000
  H   H1202     1.0  0.36195  0.86565  0.83217  1.0000
  H   H1203     1.0  0.37538  0.81249  0.75169  1.0000
  C   C676      1.0  0.39422  0.97502  0.73488  1.0000
  C   C677      1.0  0.59169  0.97047  0.74547  1.0000
  C   C678      1.0  0.55776  0.90414  0.49872  1.0000
  H   H1204     1.0  0.34220  0.84499  0.73607  1.0000
  C   C679      1.0  0.37447  0.80868  0.59528  1.0000
  C   C680      1.0  0.37265  0.80750  0.62554  1.0000
  C   C681      1.0  0.37771  0.82521  0.64274  1.0000
  C   C682      1.0  0.38443  0.84447  0.62984  1.0000
  C   C683      1.0  0.38631  0.84561  0.59963  1.0000
  C   C684      1.0  0.38147  0.82785  0.58246  1.0000
  H   H1205     1.0  0.36747  0.79270  0.63571  1.0000
  H   H1206     1.0  0.37649  0.82395  0.66590  1.0000
  H   H1207     1.0  0.39149  0.86040  0.58937  1.0000
  H   H1208     1.0  0.38292  0.82909  0.55927  1.0000
  C   C685      1.0  0.61011  0.81449  0.60331  1.0000
  C   C686      1.0  0.58929  0.80937  0.61254  1.0000
  C   C687      1.0  0.58076  0.81802  0.63828  1.0000
  C   C688      1.0  0.59284  0.83194  0.65513  1.0000
  C   C689      1.0  0.61367  0.83696  0.64596  1.0000
  C   C690      1.0  0.62221  0.82827  0.62028  1.0000
  H   H1209     1.0  0.57978  0.79872  0.59988  1.0000
  H   H1210     1.0  0.56471  0.81386  0.64523  1.0000
  H   H1211     1.0  0.62322  0.84755  0.65867  1.0000
  H   H1212     1.0  0.63834  0.83232  0.61348  1.0000
  H   H1213     1.0  0.55613  0.81084  0.73220  1.0000
  H   H1214     1.0  0.32658  0.80783  0.75681  1.0000
  H   H1215     1.0  0.38707  0.66279  0.53882  1.0000
  H   H1216     1.0  0.33368  0.95340  0.94694  1.0000
  H   H1217     1.0  0.42765  0.96569  0.78418  1.0000
  H   H1218     1.0  0.36489  0.71617  0.56488  1.0000
  H   H1219     1.0  0.44388  0.81348  0.68158  1.0000
  C   C691      1.0  0.65100  0.96569  0.90941  1.0000
  C   C692      1.0  0.37728  0.67783  0.53697  1.0000
  H   H1220     1.0  0.54024  0.94969  0.65892  1.0000
  H   H1221     1.0  0.56466  0.91986  0.50434  1.0000
  H   H1222     1.0  0.60819  0.86011  0.50574  1.0000
  C   C693      1.0  0.34110  0.69384  0.54780  1.0000
  H   H1223     1.0  0.55763  0.89012  0.55259  1.0000
  S   S171      1.0  0.33734  0.87875  0.78087  1.0000
  H   H1224     1.0  0.38527  0.68965  0.55067  1.0000
  N   N38       1.0  0.35464  0.67361  0.54748  1.0000
  H   H1225     1.0  0.36961  0.93574  0.81310  1.0000
  H   H1226     1.0  0.41368  0.67677  0.50042  1.0000
  C   C694      1.0  0.52457  0.98410  0.73549  1.0000
  C   C695      1.0  0.33859  0.86265  0.86698  1.0000
  H   H1227     1.0  0.36041  0.79785  0.77870  1.0000
  H   H1228     1.0  0.38871  0.66238  0.58997  1.0000
  H   H1229     1.0  0.57004  0.89473  0.63940  1.0000
  C   C696      1.0  0.34794  0.71166  0.56841  1.0000
  H   H1230     1.0  0.59351  0.87867  0.64792  1.0000
  C   C697      1.0  0.46844  0.76902  0.50229  1.0000
  H   H1231     1.0  0.58764  0.88731  0.49972  1.0000
  H   H1232     1.0  0.64484  0.87299  0.51766  1.0000
  H   H1233     1.0  0.33928  0.66566  0.58832  1.0000
  H   H1234     1.0  0.56376  0.87329  0.59615  1.0000
  H   H1235     1.0  0.54118  0.90311  0.50769  1.0000
  H   H1236     1.0  0.59834  0.93541  0.83605  1.0000
  C   C698      1.0  0.32646  0.92937  0.86167  1.0000
  H   H1237     1.0  0.52367  0.82263  0.55185  1.0000
  H   H1238     1.0  0.57607  0.94999  0.63717  1.0000
  C   C699      1.0  0.57395  0.95488  0.65990  1.0000
  H   H1239     1.0  0.54960  0.80986  0.55530  1.0000
  C   C700      1.0  0.33415  0.73192  0.56415  1.0000
  C   C701      1.0  0.35015  0.91304  0.91590  1.0000
  H   H1240     1.0  0.57765  0.94080  0.67401  1.0000
  H   H1241     1.0  0.38260  0.66504  0.64207  1.0000
  H   H1242     1.0  0.34789  0.95541  0.84783  1.0000
  C   C702      1.0  0.54979  0.84483  0.55823  1.0000
  H   H1243     1.0  0.57621  0.84345  0.52791  1.0000
  H   H1244     1.0  0.49189  0.78859  0.52293  1.0000
  Fe  Fe86      1.0  0.57018  0.76648  0.50101  1.0000
  C   C703      1.0  0.37318  0.66937  0.59756  1.0000
  Fe  Fe87      1.0  0.40538  0.75756  0.48538  1.0000
  C   C704      1.0  0.44540  0.96687  0.78252  1.0000
  C   C705      1.0  0.57171  0.88566  0.51026  1.0000
  N   N39       1.0  0.52498  0.97714  0.70455  1.0000
  H   H1245     1.0  0.36162  0.93361  0.86571  1.0000
  H   H1246     1.0  0.53491  0.91014  0.68296  1.0000
  C   C706      1.0  0.55099  0.96281  0.66512  1.0000
  H   H1247     1.0  0.32427  0.69013  0.55402  1.0000
  H   H1248     1.0  0.51171  0.90739  0.70625  1.0000
  H   H1249     1.0  0.37211  0.89364  0.94156  1.0000
  H   H1250     1.0  0.50901  0.90555  0.66758  1.0000
  H   H1251     1.0  0.50720  0.82255  0.60338  1.0000
  C   C707      1.0  0.57389  0.88689  0.54330  1.0000
  H   H1252     1.0  0.34555  0.70627  0.59108  1.0000
  H   H1253     1.0  0.61496  0.88320  0.55110  1.0000
  H   H1254     1.0  0.47908  0.97832  0.70261  1.0000
  C   C708      1.0  0.33424  0.86749  0.68180  1.0000
  S   S172      1.0  0.39878  0.79179  0.49698  1.0000
  C   C709      1.0  0.58758  0.89286  0.63562  1.0000
  H   H1255     1.0  0.37216  0.95782  0.76243  1.0000
  H   H1256     1.0  0.45152  0.95288  0.77017  1.0000
  C   C710      1.0  0.37674  0.97338  0.75392  1.0000
  S   S173      1.0  0.58564  0.79899  0.50130  1.0000
  H   H1257     1.0  0.35410  0.66806  0.63722  1.0000
  H   H1258     1.0  0.34177  0.93129  0.80551  1.0000
  C   C711      1.0  0.36903  0.66081  0.62810  1.0000
  C   C712      1.0  0.63153  0.87206  0.89663  1.0000
  C   C713      1.0  0.60561  0.97027  0.72166  1.0000
  H   H1259     1.0  0.58307  0.90173  0.54709  1.0000
  C   C714      1.0  0.50926  0.95939  0.69969  1.0000
  C   C715      1.0  0.35459  0.89683  0.94019  1.0000
  H   H1260     1.0  0.35040  0.85764  0.88262  1.0000
  C   C716      1.0  0.52829  0.96609  0.75838  1.0000
  H   H1261     1.0  0.50786  0.95628  0.67630  1.0000
  C   C717      1.0  0.47147  0.94487  0.70288  1.0000
  H   H1262     1.0  0.42801  0.83787  0.68152  1.0000
  C   C718      1.0  0.32832  0.95652  0.90048  1.0000
  H   H1263     1.0  0.51529  0.94408  0.70936  1.0000
  H   H1264     1.0  0.55106  0.95423  0.71015  1.0000
  C   C719      1.0  0.36000  0.81205  0.76398  1.0000
  H   H1265     1.0  0.54497  0.95975  0.75696  1.0000
  H   H1266     1.0  0.51731  0.95251  0.75570  1.0000
  C   C720      1.0  0.40335  0.69135  0.49842  1.0000
  H   H1267     1.0  0.64523  0.84666  0.50204  1.0000
  C   C721      1.0  0.33936  0.83037  0.72323  1.0000
  H   H1268     1.0  0.64779  0.97647  0.74571  1.0000
  H   H1269     1.0  0.47012  0.94403  0.67913  1.0000
  H   H1270     1.0  0.56416  0.87059  0.50358  1.0000
  N   N40       1.0  0.50351  0.84123  0.69102  1.0000
  C   C722      1.0  0.48209  0.83246  0.70080  1.0000
  C   C723      1.0  0.52062  0.83311  0.71128  1.0000
  C   C724      1.0  0.50231  0.86537  0.69366  1.0000
  C   C725      1.0  0.50927  0.83589  0.66019  1.0000
  C   C726      1.0  0.50098  0.81434  0.64852  1.0000
  C   C727      1.0  0.46215  0.84285  0.68620  1.0000
  C   C728      1.0  0.52362  0.87753  0.68868  1.0000
  C   C729      1.0  0.52463  0.80859  0.71263  1.0000
  C   C730      1.0  0.54059  0.80269  0.73625  1.0000
  C   C731      1.0  0.51100  0.80947  0.61908  1.0000
  C   C732      1.0  0.44202  0.82954  0.69141  1.0000
  C   C733      1.0  0.51949  0.90167  0.68612  1.0000
  H   H1271     1.0  0.47981  0.83471  0.72442  1.0000
  H   H1272     1.0  0.48139  0.81486  0.69801  1.0000
  H   H1273     1.0  0.53647  0.83990  0.70532  1.0000
  H   H1274     1.0  0.51701  0.83866  0.73350  1.0000
  H   H1275     1.0  0.49601  0.86985  0.71530  1.0000
  H   H1276     1.0  0.49064  0.87231  0.67807  1.0000
  H   H1277     1.0  0.50304  0.84851  0.64513  1.0000
  H   H1278     1.0  0.52704  0.83609  0.65705  1.0000
  H   H1279     1.0  0.48333  0.81515  0.64582  1.0000
  H   H1280     1.0  0.50450  0.80059  0.66308  1.0000
  H   H1281     1.0  0.45888  0.85896  0.69538  1.0000
  H   H1282     1.0  0.46470  0.84488  0.66265  1.0000
  H   H1283     1.0  0.53211  0.87217  0.66887  1.0000
  H   H1284     1.0  0.53434  0.87491  0.70733  1.0000
  H   H1285     1.0  0.50969  0.79967  0.71729  1.0000
  H   H1286     1.0  0.53188  0.80314  0.69203  1.0000
  H   H1287     1.0  0.53414  0.80740  0.75768  1.0000
  H   H1288     1.0  0.54359  0.78509  0.73654  1.0000
  H   H1289     1.0  0.62063  0.94250  0.93172  1.0000
  H   H1290     1.0  0.45518  0.94763  0.71210  1.0000
  H   H1291     1.0  0.58637  0.85649  0.60268  1.0000
  H   H1292     1.0  0.35078  0.86501  0.68974  1.0000
  H   H1293     1.0  0.54044  0.85843  0.54892  1.0000
  H   H1294     1.0  0.36756  0.64305  0.62820  1.0000
  C   C734      1.0  0.65262  0.87251  0.90705  1.0000
  H   H1295     1.0  0.32634  0.78520  0.63564  1.0000
  C   C735      1.0  0.57404  0.84695  0.55107  1.0000
  H   H1296     1.0  0.35342  0.82933  0.70825  1.0000
  C   C736      1.0  0.54718  0.96888  0.69709  1.0000
  H   H1297     1.0  0.35673  0.64521  0.57505  1.0000
  H   H1298     1.0  0.34600  0.95693  0.89793  1.0000
  H   H1299     1.0  0.61235  0.83697  0.52802  1.0000
  C   C737      1.0  0.64438  0.87429  0.84683  1.0000
  H   H1300     1.0  0.34009  0.70092  0.52587  1.0000
  H   H1301     1.0  0.58247  0.83347  0.56231  1.0000
  H   H1302     1.0  0.32619  0.61730  0.51771  1.0000
  H   H1303     1.0  0.48589  0.96379  0.73504  1.0000
  H   H1304     1.0  0.59566  0.90722  0.64402  1.0000
  C   C738      1.0  0.54095  0.82407  0.54617  1.0000
  H   H1305     1.0  0.34516  0.89388  0.65452  1.0000
  H   H1306     1.0  0.64374  0.97341  0.95424  1.0000
  S   S174      1.0  0.53381  0.77321  0.50644  1.0000
  C   C739      1.0  0.59281  0.89053  0.60358  1.0000
  H   H1307     1.0  0.37027  0.70075  0.50154  1.0000
  Fe  Fe88      1.0  0.61523  0.74339  0.49792  1.0000
  H   H1308     1.0  0.60975  0.92789  0.88529  1.0000
  H   H1309     1.0  0.44566  0.98686  0.74476  1.0000
  H   H1310     1.0  0.33568  0.73816  0.54170  1.0000
  C   C740      1.0  0.32227  0.64930  0.53559  1.0000
  N   N41       1.0  0.58422  0.86794  0.55861  1.0000
  H   H1311     1.0  0.62977  0.91614  0.92284  1.0000
  C   C741      1.0  0.58105  0.87111  0.59062  1.0000
  H   H1312     1.0  0.35651  0.90589  0.89573  1.0000
  H   H1313     1.0  0.52834  0.96149  0.80466  1.0000
  C   C742      1.0  0.35464  0.92827  0.82143  1.0000
  C   C743      1.0  0.60815  0.86678  0.55253  1.0000
  C   C744      1.0  0.34855  0.93767  0.85064  1.0000
  H   H1314     1.0  0.61648  0.85856  0.57084  1.0000
  H   H1315     1.0  0.34657  0.88139  0.93604  1.0000
  H   H1316     1.0  0.61047  0.88858  0.60137  1.0000
  H   H1317     1.0  0.45228  0.96599  0.80442  1.0000
  H   H1318     1.0  0.64866  0.84924  0.54022  1.0000
  C   C745      1.0  0.62004  0.93852  0.87176  1.0000
  C   C746      1.0  0.48611  0.96317  0.71126  1.0000
  H   H1319     1.0  0.35833  0.82670  0.77725  1.0000
  H   H1320     1.0  0.58796  0.90581  0.59289  1.0000
  H   H1321     1.0  0.61742  0.90581  0.97308  1.0000
  C   C747      1.0  0.63525  0.93211  0.93020  1.0000
  H   H1322     1.0  0.63846  0.96465  0.77931  1.0000
  C   C748      1.0  0.35495  0.66297  0.57700  1.0000
  C   C749      1.0  0.33560  0.87906  0.65257  1.0000
  S   S175      1.0  0.63201  0.77514  0.49818  1.0000
  C   C750      1.0  0.45176  0.98771  0.76704  1.0000
  C   C751      1.0  0.62506  0.92051  0.98121  1.0000
  H   H1323     1.0  0.32634  0.91163  0.85896  1.0000
  C   C752      1.0  0.52458  0.97448  0.78879  1.0000
  H   H1324     1.0  0.35757  0.91073  0.82355  1.0000
  H   H1325     1.0  0.54825  0.97679  0.65052  1.0000
  H   H1326     1.0  0.61476  0.95533  0.87511  1.0000
  C   C753      1.0  0.37994  0.68605  0.50542  1.0000
  C   C754      1.0  0.34463  0.65830  0.52677  1.0000
  H   H1327     1.0  0.65144  0.94115  0.97076  1.0000
  C   C755      1.0  0.32391  0.96343  0.93201  1.0000
  H   H1328     1.0  0.34051  0.80211  0.67873  1.0000
  C   C756      1.0  0.61570  0.93318  0.84045  1.0000
  H   H1329     1.0  0.37504  0.67370  0.48997  1.0000
  C   C757      1.0  0.50759  0.76384  0.49817  1.0000
  H   H1330     1.0  0.34225  0.66626  0.50538  1.0000
  H   H1331     1.0  0.50755  0.97946  0.79192  1.0000
  C   C758      1.0  0.33014  0.87339  0.81765  1.0000
  C   C759      1.0  0.34116  0.81034  0.74352  1.0000
  S   S176      1.0  0.34692  0.78136  0.49264  1.0000
  C   C760      1.0  0.64016  0.85600  0.52119  1.0000
  H   H1332     1.0  0.34384  0.79565  0.73072  1.0000
  C   C761      1.0  0.48954  0.77507  0.50909  1.0000
  H   H1333     1.0  0.34357  0.86871  0.63626  1.0000
  H   H1334     1.0  0.55950  0.98069  0.70301  1.0000
  H   H1335     1.0  0.35565  0.64435  0.52303  1.0000
  H   H1336     1.0  0.62490  0.94383  0.82556  1.0000
  H   H1337     1.0  0.32567  0.87853  0.69651  1.0000
  H   H1338     1.0  0.33389  0.83624  0.66448  1.0000
  H   H1339     1.0  0.58550  0.96783  0.66414  1.0000
  H   H1340     1.0  0.34876  0.90305  0.96117  1.0000
  C   C762      1.0  0.32993  0.98686  0.93631  1.0000
  C   C763      1.0  0.32310  0.84551  0.67905  1.0000
  H   H1341     1.0  0.45483  0.77785  0.51092  1.0000
  H   H1342     1.0  0.63486  0.97228  0.90431  1.0000
  C   C764      1.0  0.46501  0.75146  0.48458  1.0000
  H   H1343     1.0  0.32206  0.96930  0.88569  1.0000
  H   H1344     1.0  0.48976  0.82333  0.49225  1.0000
  C   C765      1.0  0.64417  0.93508  0.87883  1.0000
  C   C766      1.0  0.65194  0.97324  0.76854  1.0000
  N   N42       1.0  0.65105  0.94149  0.90857  1.0000
  H   H1345     1.0  0.64789  0.91775  0.87531  1.0000
  H   H1346     1.0  0.65330  0.94409  0.86196  1.0000
  C   C767      1.0  0.32347  0.79724  0.67917  1.0000
  H   H1347     1.0  0.32335  0.78066  0.68842  1.0000
  H   H1348     1.0  0.32204  0.64231  0.55766  1.0000
  H   H1349     1.0  0.53509  0.98833  0.79288  1.0000
  H   H1350     1.0  0.46950  0.98830  0.76626  1.0000
  Fe  Fe89      1.0  0.91169  0.39894  0.23417  1.0000
  S   S177      1.0  0.89403  0.40353  0.19265  1.0000
  S   S178      1.0  0.94582  0.41094  0.23542  1.0000
  Fe  Fe90      1.0  0.87157  0.38298  0.26757  1.0000
  S   S179      1.0  0.85115  0.38595  0.22804  1.0000
  S   S180      1.0  0.86265  0.37073  0.31319  1.0000
  Fe  Fe91      1.0  0.87917  0.37154  0.20295  1.0000
  S   S181      1.0  0.87750  0.34248  0.17286  1.0000
  Fe  Fe92      1.0  0.86791  0.41762  0.22068  1.0000
  S   S182      1.0  0.84984  0.44860  0.21060  1.0000
  S   S183      1.0  0.89856  0.36621  0.24327  1.0000
  S   S184      1.0  0.88658  0.41538  0.26138  1.0000
  Fe  Fe93      1.0  0.77106  0.37950  0.44427  1.0000
  S   S185      1.0  0.73654  0.38818  0.45572  1.0000
  S   S186      1.0  0.78073  0.38605  0.39683  1.0000
  Fe  Fe94      1.0  0.86845  0.29279  0.00972  1.0000
  S   S187      1.0  0.87294  0.25797  0.02248  1.0000
  S   S188      1.0  0.86531  0.32257  0.03873  1.0000
  N   N43       1.0  0.67007  0.03983  0.06981  1.0000
  H   H1351     1.0  0.94329  0.36873  0.19785  1.0000
  S   S189      1.0  0.93128  0.24022  0.99468  1.0000
  N   N44       1.0  0.67129  0.41302  0.47618  1.0000
  H   H1352     1.0  0.95625  0.44112  0.27845  1.0000
  N   N45       1.0  0.80248  0.11254  0.00983  1.0000
  Fe  Fe95      1.0  0.68459  0.11104  0.00809  1.0000
  S   S190      1.0  0.72011  0.10686  0.01515  1.0000
  H   H1353     1.0  0.66158  0.04164  0.17136  1.0000
  C   C768      1.0  0.93709  0.40905  0.31446  1.0000
  C   C769      1.0  0.98550  0.46357  0.20772  1.0000
  H   H1354     1.0  0.65787  0.17962  0.43328  1.0000
  H   H1355     1.0  0.72187  0.44684  0.41300  1.0000
  H   H1356     1.0  0.73001  0.05936  0.09962  1.0000
  C   C770      1.0  0.77048  0.18297  0.00025  1.0000
  H   H1357     1.0  0.78446  0.20740  0.02661  1.0000
  H   H1358     1.0  0.76278  0.15239  0.05860  1.0000
  C   C771      1.0  0.94524  0.36833  0.17408  1.0000
  C   C772      1.0  0.78103  0.12234  0.05632  1.0000
  C   C773      1.0  0.65835  0.04731  0.09651  1.0000
  C   C774      1.0  0.67691  0.28546  0.45733  1.0000
  H   H1359     1.0  0.93459  0.41030  0.37921  1.0000
  H   H1360     1.0  0.69082  0.01020  0.03249  1.0000
  H   H1361     1.0  0.76101  0.13560  0.09044  1.0000
  H   H1362     1.0  0.71779  0.41852  0.40910  1.0000
  H   H1363     1.0  0.74305  0.45941  0.45387  1.0000
  C   C775      1.0  0.98798  0.40537  0.24827  1.0000
  C   C776      1.0  0.88997  0.40056  0.36907  1.0000
  C   C777      1.0  0.96652  0.37837  0.16468  1.0000
  H   H1364     1.0  0.68432  0.11763  0.08953  1.0000
  H   H1365     1.0  0.73272  0.06518  0.06148  1.0000
  C   C778      1.0  0.84115  0.16075  0.02183  1.0000
  C   C779      1.0  0.74332  0.47198  0.46960  1.0000
  H   H1366     1.0  0.81207  0.09268  0.06406  1.0000
  C   C780      1.0  0.66385  0.11249  0.12702  1.0000
  H   H1367     1.0  0.89506  0.45841  0.21637  1.0000
  C   C781      1.0  0.80398  0.38187  0.37432  1.0000
  C   C782      1.0  0.80436  0.39098  0.34635  1.0000
  C   C783      1.0  0.82210  0.38788  0.32745  1.0000
  C   C784      1.0  0.83973  0.37536  0.33612  1.0000
  C   C785      1.0  0.83938  0.36628  0.36411  1.0000
  C   C786      1.0  0.82175  0.36959  0.38313  1.0000
  H   H1368     1.0  0.79076  0.40048  0.33917  1.0000
  H   H1369     1.0  0.82202  0.39503  0.30610  1.0000
  H   H1370     1.0  0.85282  0.35649  0.37114  1.0000
  H   H1371     1.0  0.82176  0.36235  0.40443  1.0000
  C   C787      1.0  0.87636  0.33723  0.13510  1.0000
  C   C788      1.0  0.87628  0.35363  0.11416  1.0000
  C   C789      1.0  0.87324  0.34879  0.08485  1.0000
  C   C790      1.0  0.87077  0.32746  0.07581  1.0000
  C   C791      1.0  0.87150  0.31102  0.09667  1.0000
  C   C792      1.0  0.87412  0.31591  0.12604  1.0000
  H   H1372     1.0  0.87823  0.37007  0.12061  1.0000
  H   H1373     1.0  0.87275  0.36168  0.06901  1.0000
  H   H1374     1.0  0.86951  0.29455  0.09027  1.0000
  H   H1375     1.0  0.87410  0.30303  0.14194  1.0000
  C   C793      1.0  0.96637  0.37369  0.25440  1.0000
  C   C794      1.0  0.96799  0.39546  0.24708  1.0000
  S   S191      1.0  0.78424  0.39989  0.47921  1.0000
  H   H1376     1.0  0.95100  0.36588  0.25349  1.0000
  C   C795      1.0  0.78555  0.19918  0.00631  1.0000
  C   C796      1.0  0.81550  0.05948  0.05334  1.0000
  H   H1377     1.0  0.67069  0.37263  0.44652  1.0000
  S   S192      1.0  0.73332  0.04652  0.00473  1.0000
  C   C797      1.0  0.93839  0.35917  0.32323  1.0000
  C   C798      1.0  0.66046  0.37368  0.46614  1.0000
  H   H1378     1.0  0.92456  0.34233  0.28728  1.0000
  H   H1379     1.0  0.94527  0.35436  0.34430  1.0000
  S   S193      1.0  0.82033  0.22623  0.99506  1.0000
  H   H1380     1.0  0.95253  0.40093  0.30912  1.0000
  H   H1381     1.0  0.98364  0.34496  0.26766  1.0000
  H   H1382     1.0  0.98733  0.45417  0.16268  1.0000
  C   C799      1.0  0.96266  0.39414  0.36307  1.0000
  C   C800      1.0  0.73341  0.00274  0.01565  1.0000
  H   H1383     1.0  0.74179  0.00664  0.03505  1.0000
  H   H1384     1.0  0.70181  0.04057  0.05039  1.0000
  H   H1385     1.0  0.75812  0.17899  0.01592  1.0000
  C   C801      1.0  0.76162  0.13553  0.06656  1.0000
  H   H1386     1.0  0.79844  0.05559  0.05794  1.0000
  H   H1387     1.0  0.94435  0.35145  0.16689  1.0000
  H   H1388     1.0  0.87447  0.43123  0.37918  1.0000
  H   H1389     1.0  0.96809  0.43961  0.18449  1.0000
  C   C802      1.0  0.90432  0.40918  0.34388  1.0000
  C   C803      1.0  0.93081  0.33869  0.30907  1.0000
  H   H1390     1.0  0.77922  0.10589  0.06546  1.0000
  H   H1391     1.0  0.84005  0.17818  0.01647  1.0000
  C   C804      1.0  0.69133  0.30241  0.46267  1.0000
  C   C805      1.0  0.69997  0.43305  0.44479  1.0000
  C   C806      1.0  0.97726  0.26879  0.08011  1.0000
  C   C807      1.0  0.72701  0.01942  0.99664  1.0000
  H   H1392     1.0  0.93172  0.37751  0.16435  1.0000
  H   H1393     1.0  0.96942  0.40966  0.35557  1.0000
  C   C808      1.0  0.98590  0.36632  0.17837  1.0000
  H   H1394     1.0  0.96327  0.45859  0.30711  1.0000
  Fe  Fe96      1.0  0.84915  0.24990  0.98756  1.0000
  H   H1395     1.0  0.90728  0.42619  0.34912  1.0000
  H   H1396     1.0  0.95616  0.26946  0.04312  1.0000
  H   H1397     1.0  0.68433  0.04259  0.12808  1.0000
  C   C809      1.0  0.88598  0.47330  0.21735  1.0000
  H   H1398     1.0  0.65997  0.99740  0.18135  1.0000
  C   C810      1.0  0.81772  0.08326  0.04543  1.0000
  H   H1399     1.0  0.97551  0.26511  0.10351  1.0000
  N   N46       1.0  0.81172  0.37412  0.14056  1.0000
  C   C811      1.0  0.80060  0.36399  0.11555  1.0000
  C   C812      1.0  0.79602  0.38708  0.15868  1.0000
  C   C813      1.0  0.82816  0.38942  0.12812  1.0000
  C   C814      1.0  0.82325  0.35762  0.15889  1.0000
  C   C815      1.0  0.80948  0.33957  0.17246  1.0000
  C   C816      1.0  0.81502  0.35047  0.09488  1.0000
  C   C817      1.0  0.84088  0.40254  0.15019  1.0000
  C   C818      1.0  0.77258  0.37905  0.16093  1.0000
  C   C819      1.0  0.75977  0.39132  0.18379  1.0000
  C   C820      1.0  0.82363  0.32258  0.18719  1.0000
  C   C821      1.0  0.80169  0.33967  0.07203  1.0000
  C   C822      1.0  0.85440  0.41971  0.13502  1.0000
  H   H1400     1.0  0.79252  0.37671  0.10233  1.0000
  H   H1401     1.0  0.78761  0.35323  0.12309  1.0000
  H   H1402     1.0  0.80218  0.38868  0.18096  1.0000
  H   H1403     1.0  0.79459  0.40387  0.15016  1.0000
  H   H1404     1.0  0.82033  0.40096  0.11285  1.0000
  H   H1405     1.0  0.84052  0.38070  0.11534  1.0000
  H   H1406     1.0  0.83647  0.35010  0.14641  1.0000
  H   H1407     1.0  0.83124  0.36536  0.17717  1.0000
  H   H1408     1.0  0.79996  0.33128  0.15615  1.0000
  H   H1409     1.0  0.79865  0.34629  0.18926  1.0000
  H   H1410     1.0  0.82679  0.36069  0.08318  1.0000
  H   H1411     1.0  0.82381  0.33755  0.10662  1.0000
  H   H1412     1.0  0.85207  0.39182  0.16217  1.0000
  H   H1413     1.0  0.83021  0.41076  0.16593  1.0000
  H   H1414     1.0  0.76445  0.38171  0.14002  1.0000
  H   H1415     1.0  0.77174  0.36176  0.16647  1.0000
  H   H1416     1.0  0.74295  0.38568  0.18445  1.0000
  H   H1417     1.0  0.76682  0.38854  0.20539  1.0000
  H   H1418     1.0  0.75964  0.40882  0.17876  1.0000
  H   H1419     1.0  0.83457  0.31483  0.17126  1.0000
  H   H1420     1.0  0.83341  0.32993  0.20417  1.0000
  H   H1421     1.0  0.81346  0.31001  0.19738  1.0000
  H   H1422     1.0  0.79012  0.32836  0.08220  1.0000
  H   H1423     1.0  0.79287  0.35185  0.05892  1.0000
  H   H1424     1.0  0.81252  0.33041  0.05746  1.0000
  H   H1425     1.0  0.84401  0.43129  0.12311  1.0000
  H   H1426     1.0  0.86340  0.42876  0.15123  1.0000
  H   H1427     1.0  0.86613  0.41223  0.11987  1.0000
  H   H1428     1.0  0.97147  0.21735  0.99835  1.0000
  H   H1429     1.0  0.98243  0.34888  0.17729  1.0000
  H   H1430     1.0  0.76810  0.11170  0.01683  1.0000
  H   H1431     1.0  0.82159  0.04928  0.03553  1.0000
  H   H1432     1.0  0.95195  0.24696  0.06749  1.0000
  H   H1433     1.0  0.69248  0.07297  0.09882  1.0000
  C   C823      1.0  0.97522  0.45563  0.18027  1.0000
  H   H1434     1.0  0.67062  0.04790  0.02437  1.0000
  H   H1435     1.0  0.65641  0.06573  0.15097  1.0000
  H   H1436     1.0  0.85572  0.15406  0.01108  1.0000
  C   C824      1.0  0.80540  0.08899  0.01749  1.0000
  C   C825      1.0  0.65799  0.28253  0.47395  1.0000
  C   C826      1.0  0.66121  0.05186  0.04414  1.0000
  H   H1437     1.0  0.89872  0.40025  0.38968  1.0000
  C   C827      1.0  0.66723  0.03851  0.12546  1.0000
  H   H1438     1.0  0.66372  0.01210  0.02023  1.0000
  C   C828      1.0  0.78205  0.12139  0.02310  1.0000
  C   C829      1.0  0.86361  0.47300  0.21548  1.0000
  H   H1439     1.0  0.85956  0.40783  0.39036  1.0000
  H   H1440     1.0  0.82495  0.05566  0.07289  1.0000
  C   C830      1.0  0.69997  0.06762  0.07838  1.0000
  H   H1441     1.0  0.94448  0.32720  0.30686  1.0000
  H   H1442     1.0  0.69155  0.39985  0.44222  1.0000
  C   C831      1.0  0.68295  0.41503  0.44750  1.0000
  S   S194      1.0  0.65605  0.11464  0.03973  1.0000
  C   C832      1.0  0.95577  0.26432  0.06610  1.0000
  H   H1443     1.0  0.71326  0.43016  0.45996  1.0000
  C   C833      1.0  0.69380  0.04421  0.07129  1.0000
  H   H1444     1.0  0.69494  0.07886  0.06093  1.0000
  H   H1445     1.0  0.77016  0.47756  0.39846  1.0000
  H   H1446     1.0  0.65779  0.06515  0.09721  1.0000
  H   H1447     1.0  0.78951  0.08095  0.01858  1.0000
  H   H1448     1.0  0.94274  0.27347  0.07712  1.0000
  C   C834      1.0  0.91959  0.37523  0.32784  1.0000
  H   H1449     1.0  0.94506  0.43602  0.34287  1.0000
  H   H1450     1.0  0.67432  0.19195  0.40560  1.0000
  H   H1451     1.0  0.80711  0.15735  0.02235  1.0000
  H   H1452     1.0  0.65638  0.21331  0.36642  1.0000
  H   H1453     1.0  0.96601  0.39532  0.17177  1.0000
  H   H1454     1.0  0.77851  0.13769  0.01430  1.0000
  C   C835      1.0  0.66843  0.11345  0.09719  1.0000
  C   C836      1.0  0.66705  0.01594  0.06715  1.0000
  H   H1455     1.0  0.81466  0.08063  0.00016  1.0000
  H   H1456     1.0  0.74651  0.12856  0.05880  1.0000
  H   H1457     1.0  0.78172  0.46893  0.43206  1.0000
  H   H1458     1.0  0.95115  0.36603  0.30932  1.0000
  N   N47       1.0  0.92525  0.39726  0.33835  1.0000
  H   H1459     1.0  0.86060  0.41555  0.35293  1.0000
  H   H1460     1.0  0.79543  0.12982  0.06530  1.0000
  C   C837      1.0  0.97279  0.38857  0.39202  1.0000
  C   C838      1.0  0.86999  0.41475  0.37308  1.0000
  H   H1461     1.0  0.79775  0.46810  0.39961  1.0000
  H   H1462     1.0  0.92788  0.40844  0.29414  1.0000
  C   C839      1.0  0.78507  0.47733  0.41126  1.0000
  C   C840      1.0  0.70972  0.43398  0.41442  1.0000
  H   H1463     1.0  0.96846  0.40086  0.40823  1.0000
  H   H1464     1.0  0.66318  0.06939  0.04668  1.0000
  H   H1465     1.0  0.93206  0.38203  0.37931  1.0000
  H   H1466     1.0  0.69715  0.43759  0.39830  1.0000
  H   H1467     1.0  0.82007  0.15280  0.98799  1.0000
  H   H1468     1.0  0.96747  0.37815  0.14084  1.0000
  H   H1469     1.0  0.70170  0.03321  0.08709  1.0000
  H   H1470     1.0  0.67120  0.41783  0.42992  1.0000
  C   C841      1.0  0.65822  0.18528  0.41051  1.0000
  H   H1471     1.0  0.68060  0.27439  0.44022  1.0000
  H   H1472     1.0  0.69298  0.44914  0.44921  1.0000
  C   C842      1.0  0.94149  0.43316  0.31997  1.0000
  C   C843      1.0  0.72420  0.06973  0.08164  1.0000
  H   H1473     1.0  0.97269  0.46462  0.22439  1.0000
  H   H1474     1.0  0.92704  0.44291  0.31439  1.0000
  C   C844      1.0  0.82105  0.14962  0.01146  1.0000
  C   C845      1.0  0.82190  0.12514  0.01830  1.0000
  H   H1475     1.0  0.82502  0.12354  0.04164  1.0000
  H   H1476     1.0  0.83509  0.08649  0.04212  1.0000
  H   H1477     1.0  0.96809  0.38190  0.34757  1.0000
  S   S195      1.0  0.77058  0.34912  0.47185  1.0000
  H   H1478     1.0  0.97502  0.43203  0.30553  1.0000
  H   H1479     1.0  0.90862  0.36692  0.34316  1.0000
  H   H1480     1.0  0.67641  0.11578  0.14209  1.0000
  H   H1481     1.0  0.70574  0.30409  0.44965  1.0000
  C   C846      1.0  0.93780  0.39586  0.36591  1.0000
  C   C847      1.0  0.97514  0.23364  0.99176  1.0000
  C   C848      1.0  0.80188  0.20502  0.98641  1.0000
  H   H1482     1.0  0.72808  0.08665  0.08630  1.0000
  H   H1483     1.0  0.91056  0.37672  0.30733  1.0000
  H   H1484     1.0  0.88426  0.38416  0.36512  1.0000
  H   H1485     1.0  0.89444  0.40957  0.32405  1.0000
  H   H1486     1.0  0.91800  0.33095  0.32229  1.0000
  C   C849      1.0  0.96019  0.44164  0.30162  1.0000
  H   H1487     1.0  0.66571  0.02080  0.12685  1.0000
  H   H1488     1.0  0.84266  0.15891  0.04553  1.0000
  H   H1489     1.0  0.98572  0.37013  0.20163  1.0000
  H   H1490     1.0  0.96740  0.37257  0.39989  1.0000
  C   C850      1.0  0.98485  0.36187  0.26234  1.0000
  Fe  Fe97      1.0  0.71779  0.07761  0.98717  1.0000
  C   C851      1.0  0.67405  0.00610  0.03794  1.0000
  H   H1491     1.0  0.83652  0.11839  0.00753  1.0000
  H   H1492     1.0  0.98030  0.28615  0.07760  1.0000
  H   H1493     1.0  0.65802  0.44415  0.46368  1.0000
  H   H1494     1.0  0.96221  0.46684  0.17337  1.0000
  H   H1495     1.0  0.65550  0.17130  0.39653  1.0000
  Fe  Fe98      1.0  0.89889  0.25767  0.98775  1.0000
  H   H1496     1.0  0.66002  0.02316  0.22010  1.0000
  H   H1497     1.0  0.67624  0.00718  0.08412  1.0000
  H   H1498     1.0  0.66221  0.15899  0.09726  1.0000
  C   C852      1.0  0.95822  0.24856  0.98782  1.0000
  Fe  Fe99      1.0  0.78178  0.37046  0.50789  1.0000
  S   S196      1.0  0.74821  0.37839  0.52253  1.0000
  S   S197      1.0  0.81149  0.36565  0.53638  1.0000
  H   H1499     1.0  0.83894  0.32744  0.58334  1.0000
  H   H1500     1.0  0.80024  0.42649  0.52592  1.0000
  H   H1501     1.0  0.77280  0.44167  0.59346  1.0000
  H   H1502     1.0  0.89801  0.29830  0.65243  1.0000
  H   H1503     1.0  0.76197  0.22091  0.95412  1.0000
  H   H1504     1.0  0.92647  0.38861  0.86383  1.0000
  Fe  Fe100     1.0  0.85447  0.37623  0.70188  1.0000
  S   S198      1.0  0.84484  0.40031  0.73568  1.0000
  S   S199      1.0  0.82962  0.36214  0.67158  1.0000
  Fe  Fe101     1.0  0.90151  0.37582  0.72160  1.0000
  S   S200      1.0  0.89529  0.40024  0.75561  1.0000
  S   S201      1.0  0.93373  0.35921  0.71397  1.0000
  Fe  Fe102     1.0  0.86577  0.38079  0.76636  1.0000
  S   S202      1.0  0.85780  0.37421  0.81427  1.0000
  Fe  Fe103     1.0  0.87507  0.41746  0.72246  1.0000
  S   S203      1.0  0.87870  0.45196  0.70606  1.0000
  S   S204      1.0  0.87302  0.35552  0.73365  1.0000
  S   S205      1.0  0.88362  0.39415  0.68736  1.0000
  Fe  Fe104     1.0  0.87057  0.28263  0.94471  1.0000
  S   S206      1.0  0.87558  0.24715  0.95408  1.0000
  S   S207      1.0  0.87051  0.29100  0.89610  1.0000
  Fe  Fe105     1.0  0.68872  0.10131  0.94274  1.0000
  S   S208      1.0  0.72467  0.09613  0.94606  1.0000
  C   C853      1.0  0.71986  0.26856  0.51355  1.0000
  C   C854      1.0  0.67833  0.40145  0.52910  1.0000
  C   C855      1.0  0.75524  0.40363  0.59558  1.0000
  H   H1505     1.0  0.93455  0.36526  0.61827  1.0000
  H   H1506     1.0  0.66250  0.98996  0.80551  1.0000
  C   C856      1.0  0.68110  0.02906  0.85908  1.0000
  C   C857      1.0  0.92000  0.39609  0.62285  1.0000
  C   C858      1.0  0.67375  0.03172  0.82797  1.0000
  H   H1507     1.0  0.93804  0.32353  0.85713  1.0000
  H   H1508     1.0  0.78876  0.16961  0.93386  1.0000
  H   H1509     1.0  0.80556  0.33085  0.93654  1.0000
  H   H1510     1.0  0.96886  0.30884  0.62327  1.0000
  H   H1511     1.0  0.87044  0.35210  0.57643  1.0000
  C   C859      1.0  0.90208  0.40563  0.84079  1.0000
  H   H1512     1.0  0.71010  0.20814  0.56109  1.0000
  H   H1513     1.0  0.67412  0.04202  0.87265  1.0000
  H   H1514     1.0  0.80016  0.46055  0.69111  1.0000
  H   H1515     1.0  0.67626  0.01320  0.86801  1.0000
  C   C860      1.0  0.84983  0.44601  0.62170  1.0000
  H   H1516     1.0  0.84405  0.45563  0.57804  1.0000
  H   H1517     1.0  0.85464  0.46065  0.75928  1.0000
  H   H1518     1.0  0.75224  0.41230  0.61596  1.0000
  C   C861      1.0  0.86084  0.35077  0.83666  1.0000
  C   C862      1.0  0.86398  0.33027  0.82535  1.0000
  C   C863      1.0  0.86680  0.31229  0.84390  1.0000
  C   C864      1.0  0.86644  0.31443  0.87403  1.0000
  C   C865      1.0  0.86307  0.33489  0.88538  1.0000
  C   C866      1.0  0.86027  0.35289  0.86681  1.0000
  H   H1519     1.0  0.86407  0.32824  0.80229  1.0000
  H   H1520     1.0  0.86928  0.29657  0.83479  1.0000
  H   H1521     1.0  0.86269  0.33688  0.90847  1.0000
  H   H1522     1.0  0.85774  0.36861  0.87590  1.0000
  C   C867      1.0  0.95796  0.37171  0.72345  1.0000
  C   C868      1.0  0.95806  0.39257  0.73404  1.0000
  H   H1523     1.0  0.71054  0.22582  0.62250  1.0000
  H   H1524     1.0  0.94315  0.40144  0.73651  1.0000
  H   H1525     1.0  0.91168  0.33819  0.66793  1.0000
  H   H1526     1.0  0.66784  0.07557  0.73759  1.0000
  C   C869      1.0  0.92035  0.37200  0.62973  1.0000
  H   H1527     1.0  0.68159  0.01898  0.81515  1.0000
  H   H1528     1.0  0.91965  0.39900  0.59922  1.0000
  C   C870      1.0  0.66227  0.43497  0.48364  1.0000
  C   C871      1.0  0.66315  0.21439  0.53480  1.0000
  C   C872      1.0  0.81461  0.36723  0.57441  1.0000
  C   C873      1.0  0.80047  0.35721  0.59382  1.0000
  C   C874      1.0  0.80508  0.35631  0.62349  1.0000
  C   C875      1.0  0.82359  0.36584  0.63436  1.0000
  C   C876      1.0  0.83717  0.37685  0.61513  1.0000
  C   C877      1.0  0.83293  0.37714  0.58533  1.0000
  H   H1529     1.0  0.78645  0.34929  0.58584  1.0000
  H   H1530     1.0  0.79441  0.34778  0.63809  1.0000
  H   H1531     1.0  0.85123  0.38459  0.62314  1.0000
  H   H1532     1.0  0.84408  0.38483  0.57056  1.0000
  H   H1533     1.0  0.90197  0.30554  0.76377  1.0000
  H   H1534     1.0  0.90584  0.40406  0.63294  1.0000
  N   N48       1.0  0.67359  0.23406  0.54667  1.0000
  C   C878      1.0  0.83454  0.45375  0.59812  1.0000
  H   H1535     1.0  0.67314  0.21738  0.58780  1.0000
  H   H1536     1.0  0.66358  0.00701  0.95626  1.0000
  H   H1537     1.0  0.93311  0.30803  0.64561  1.0000
  S   S209      1.0  0.84314  0.28513  0.97682  1.0000
  C   C879      1.0  0.71635  0.01404  0.97153  1.0000
  C   C880      1.0  0.68726  0.40540  0.49830  1.0000
  H   H1538     1.0  0.98053  0.39848  0.83253  1.0000
  H   H1539     1.0  0.72550  0.28512  0.51727  1.0000
  H   H1540     1.0  0.70958  0.40117  0.54946  1.0000
  H   H1541     1.0  0.87324  0.30839  0.66722  1.0000
  H   H1542     1.0  0.83585  0.44819  0.52677  1.0000
  C   C881      1.0  0.75948  0.23772  0.96118  1.0000
  C   C882      1.0  0.77763  0.40845  0.58360  1.0000
  H   H1543     1.0  0.66939  0.36674  0.48458  1.0000
  H   H1544     1.0  0.68792  0.27744  0.52613  1.0000
  H   H1545     1.0  0.70314  0.23071  0.52172  1.0000
  H   H1546     1.0  0.81331  0.34111  0.90149  1.0000
  H   H1547     1.0  0.71655  0.26703  0.49026  1.0000
  H   H1548     1.0  0.86241  0.45816  0.62499  1.0000
  H   H1549     1.0  0.97763  0.34433  0.71205  1.0000
  H   H1550     1.0  0.91002  0.30892  0.60434  1.0000
  H   H1551     1.0  0.68262  0.18759  0.55126  1.0000
  C   C883      1.0  0.89653  0.33364  0.65763  1.0000
  H   H1552     1.0  0.71793  0.23443  0.57062  1.0000
  H   H1553     1.0  0.77899  0.12055  0.92541  1.0000
  C   C884      1.0  0.81126  0.42614  0.54462  1.0000
  C   C885      1.0  0.93553  0.33788  0.80386  1.0000
  H   H1554     1.0  0.93468  0.40350  0.63139  1.0000
  N   N49       1.0  0.93447  0.35193  0.83013  1.0000
  C   C886      1.0  0.97757  0.40217  0.74111  1.0000
  H   H1555     1.0  0.88714  0.32922  0.56795  1.0000
  H   H1556     1.0  0.81454  0.46975  0.65947  1.0000
  H   H1557     1.0  0.71158  0.02658  0.95649  1.0000
  H   H1558     1.0  0.94097  0.35686  0.89075  1.0000
  C   C887      1.0  0.78766  0.17782  0.95417  1.0000
  H   H1559     1.0  0.95050  0.28121  0.97599  1.0000
  H   H1560     1.0  0.68857  0.38858  0.57042  1.0000
  H   H1561     1.0  0.91989  0.34000  0.93008  1.0000
  H   H1562     1.0  0.89109  0.31600  0.71320  1.0000
  H   H1563     1.0  0.77163  0.09297  0.92097  1.0000
  H   H1564     1.0  0.90207  0.36447  0.82997  1.0000
  C   C888      1.0  0.89095  0.31034  0.66723  1.0000
  H   H1565     1.0  0.85585  0.30546  0.57132  1.0000
  H   H1566     1.0  0.69999  0.37488  0.53990  1.0000
  H   H1567     1.0  0.69564  0.39050  0.49107  1.0000
  H   H1568     1.0  0.91814  0.37456  0.80160  1.0000
  H   H1569     1.0  0.93525  0.32021  0.91050  1.0000
  H   H1570     1.0  0.75556  0.25009  0.91851  1.0000
  H   H1571     1.0  0.79255  0.47845  0.59772  1.0000
  H   H1572     1.0  0.95915  0.32488  0.59352  1.0000
  H   H1573     1.0  0.66962  0.00225  0.77120  1.0000
  C   C889      1.0  0.81553  0.43811  0.59509  1.0000
  H   H1574     1.0  0.95006  0.29754  0.59876  1.0000
  C   C890      1.0  0.91443  0.32661  0.79592  1.0000
  C   C891      1.0  0.80063  0.11453  0.97747  1.0000
  C   C892      1.0  0.93618  0.32056  0.62889  1.0000
  C   C893      1.0  0.68318  0.22932  0.57583  1.0000
  H   H1575     1.0  0.89697  0.40906  0.81839  1.0000
  H   H1576     1.0  0.67999  0.04730  0.81989  1.0000
  H   H1577     1.0  0.88573  0.37000  0.62922  1.0000
  H   H1578     1.0  0.94818  0.32522  0.80646  1.0000
  C   C894      1.0  0.66356  0.11620  0.85735  1.0000
  H   H1579     1.0  0.65670  0.07158  0.80228  1.0000
  H   H1580     1.0  0.68267  0.24394  0.58936  1.0000
  C   C895      1.0  0.70686  0.22121  0.57638  1.0000
  H   H1581     1.0  0.78001  0.39834  0.56436  1.0000
  H   H1582     1.0  0.93535  0.40043  0.83061  1.0000
  H   H1583     1.0  0.88418  0.34442  0.66761  1.0000
  H   H1584     1.0  0.88872  0.39773  0.85277  1.0000
  H   H1585     1.0  0.82193  0.42140  0.59734  1.0000
  H   H1586     1.0  0.78946  0.40357  0.60013  1.0000
  S   S210      1.0  0.75301  0.15062  0.96563  1.0000
  H   H1587     1.0  0.81515  0.19795  0.94462  1.0000
  H   H1588     1.0  0.92998  0.30111  0.77131  1.0000
  C   C896      1.0  0.74279  0.48330  0.51897  1.0000
  H   H1589     1.0  0.76221  0.26984  0.94506  1.0000
  C   C897      1.0  0.77982  0.43251  0.57517  1.0000
  C   C898      1.0  0.87308  0.33473  0.58084  1.0000
  H   H1590     1.0  0.73000  0.20784  0.60643  1.0000
  H   H1591     1.0  0.82823  0.46669  0.69349  1.0000
  H   H1592     1.0  0.90544  0.42110  0.85124  1.0000
  C   C899      1.0  0.92599  0.34864  0.88523  1.0000
  C   C900      1.0  0.89880  0.30506  0.69750  1.0000
  H   H1593     1.0  0.68698  0.07173  0.76637  1.0000
  H   H1594     1.0  0.90675  0.32312  0.90495  1.0000
  H   H1595     1.0  0.97748  0.41836  0.74915  1.0000
  C   C901      1.0  0.65985  0.00012  0.93502  1.0000
  H   H1596     1.0  0.96756  0.34599  0.84140  1.0000
  C   C902      1.0  0.92174  0.33193  0.90904  1.0000
  C   C903      1.0  0.87638  0.33052  0.61350  1.0000
  C   C904      1.0  0.86101  0.47559  0.75087  1.0000
  H   H1597     1.0  0.94178  0.33489  0.64017  1.0000
  C   C905      1.0  0.69956  0.26446  0.53149  1.0000
  H   H1598     1.0  0.92045  0.33323  0.59054  1.0000
  H   H1599     1.0  0.66464  0.32519  0.51858  1.0000
  Fe  Fe106     1.0  0.73654  0.35881  0.48506  1.0000
  C   C906      1.0  0.91560  0.32499  0.61102  1.0000
  H   H1600     1.0  0.76745  0.10358  0.97162  1.0000
  H   H1601     1.0  0.67778  0.12404  0.86478  1.0000
  H   H1602     1.0  0.86279  0.33844  0.62527  1.0000
  C   C907      1.0  0.83418  0.43116  0.53346  1.0000
  H   H1603     1.0  0.67476  0.44464  0.49427  1.0000
  C   C908      1.0  0.85332  0.32312  0.57019  1.0000
  H   H1604     1.0  0.67340  0.00374  0.92004  1.0000
  C   C909      1.0  0.91856  0.37003  0.82487  1.0000
  H   H1605     1.0  0.90931  0.31505  0.81292  1.0000
  C   C910      1.0  0.92214  0.39130  0.84110  1.0000
  H   H1606     1.0  0.90148  0.33868  0.79225  1.0000
  H   H1607     1.0  0.84599  0.42709  0.55040  1.0000
  H   H1608     1.0  0.84113  0.44341  0.64246  1.0000
  H   H1609     1.0  0.92237  0.36998  0.65325  1.0000
  H   H1610     1.0  0.79632  0.13125  0.97094  1.0000
  H   H1611     1.0  0.87417  0.31299  0.61705  1.0000
  N   N50       1.0  0.89759  0.33745  0.62551  1.0000
  C   C911      1.0  0.66822  0.31418  0.50137  1.0000
  H   H1612     1.0  0.67603  0.16214  0.51346  1.0000
  C   C912      1.0  0.77131  0.17203  0.97405  1.0000
  H   H1613     1.0  0.69215  0.19819  0.51692  1.0000
  H   H1614     1.0  0.69885  0.03010  0.85989  1.0000
  H   H1615     1.0  0.78627  0.33207  0.90766  1.0000
  H   H1616     1.0  0.94022  0.34748  0.78437  1.0000
  C   C913      1.0  0.95687  0.35974  0.83526  1.0000
  H   H1617     1.0  0.89917  0.36469  0.59598  1.0000
  C   C914      1.0  0.68975  0.24233  0.52484  1.0000
  C   C915      1.0  0.95463  0.31245  0.60982  1.0000
  C   C916      1.0  0.89964  0.36123  0.61947  1.0000
  H   H1618     1.0  0.80536  0.44042  0.61475  1.0000
  N   N51       1.0  0.79866  0.26681  0.90707  1.0000
  C   C917      1.0  0.79768  0.28879  0.92031  1.0000
  C   C918      1.0  0.78975  0.25068  0.92855  1.0000
  C   C919      1.0  0.82203  0.26109  0.90194  1.0000
  C   C920      1.0  0.78709  0.26586  0.87871  1.0000
  C   C921      1.0  0.76744  0.28114  0.87460  1.0000
  C   C922      1.0  0.81033  0.30652  0.90382  1.0000
  C   C923      1.0  0.82683  0.23786  0.89184  1.0000
  H   H1619     1.0  0.68222  0.24396  0.50325  1.0000
  H   H1620     1.0  0.81212  0.40921  0.55194  1.0000
  C   C924      1.0  0.75533  0.27587  0.84729  1.0000
  C   C925      1.0  0.80334  0.32899  0.91304  1.0000
  C   C926      1.0  0.84933  0.23582  0.87857  1.0000
  H   H1621     1.0  0.80411  0.28804  0.94255  1.0000
  H   H1622     1.0  0.78092  0.29451  0.92323  1.0000
  H   H1623     1.0  0.79118  0.23409  0.92020  1.0000
  H   H1624     1.0  0.79941  0.25073  0.94857  1.0000
  H   H1625     1.0  0.83146  0.26352  0.92179  1.0000
  H   H1626     1.0  0.82913  0.27204  0.88534  1.0000
  H   H1627     1.0  0.79822  0.26964  0.86037  1.0000
  H   H1628     1.0  0.78176  0.24916  0.87487  1.0000
  H   H1629     1.0  0.77273  0.29803  0.87244  1.0000
  H   H1630     1.0  0.75595  0.28026  0.89290  1.0000
  H   H1631     1.0  0.82761  0.30476  0.90873  1.0000
  H   H1632     1.0  0.80851  0.30535  0.88019  1.0000
  H   H1633     1.0  0.81521  0.23272  0.87556  1.0000
  H   H1634     1.0  0.82600  0.22658  0.91056  1.0000
  C   C927      1.0  0.71287  0.21298  0.60639  1.0000
  H   H1635     1.0  0.66871  0.03698  0.77264  1.0000
  C   C928      1.0  0.67772  0.19442  0.53011  1.0000
  H   H1636     1.0  0.95725  0.37061  0.85385  1.0000
  H   H1637     1.0  0.89453  0.28833  0.70353  1.0000
  H   H1638     1.0  0.74881  0.25937  0.84877  1.0000
  H   H1639     1.0  0.74171  0.28734  0.84450  1.0000
  H   H1640     1.0  0.76607  0.27720  0.82809  1.0000
  H   H1641     1.0  0.97953  0.26722  0.91289  1.0000
  H   H1642     1.0  0.70293  0.19895  0.61273  1.0000
  H   H1643     1.0  0.95633  0.38199  0.79751  1.0000
  H   H1644     1.0  0.86161  0.24073  0.89412  1.0000
  H   H1645     1.0  0.85260  0.21888  0.87264  1.0000
  H   H1646     1.0  0.85076  0.24607  0.85889  1.0000
  H   H1647     1.0  0.74284  0.40840  0.57969  1.0000
  H   H1648     1.0  0.91649  0.30665  0.69859  1.0000
  H   H1649     1.0  0.76910  0.43564  0.55661  1.0000
  H   H1650     1.0  0.92156  0.32420  0.75010  1.0000
  C   C929      1.0  0.91726  0.31359  0.76857  1.0000
  H   H1651     1.0  0.75391  0.38612  0.60006  1.0000
  C   C930      1.0  0.84008  0.41759  0.50733  1.0000
  C   C931      1.0  0.92739  0.33799  0.85538  1.0000
  S   S211      1.0  0.74021  0.43946  0.51160  1.0000
  C   C932      1.0  0.67093  0.07830  0.76072  1.0000
  H   H1652     1.0  0.74167  0.47943  0.54167  1.0000
  S   S212      1.0  0.66570  0.09026  0.90731  1.0000
  C   C933      1.0  0.74277  0.46657  0.49892  1.0000
  N   N52       1.0  0.80224  0.44015  0.56817  1.0000
  H   H1653     1.0  0.91093  0.33195  0.85211  1.0000
  S   S213      1.0  0.70530  0.33862  0.49323  1.0000
  H   H1654     1.0  0.85018  0.32789  0.54748  1.0000
  H   H1655     1.0  0.91235  0.36027  0.88572  1.0000
  H   H1656     1.0  0.82906  0.42123  0.48927  1.0000
  C   C934      1.0  0.69522  0.39087  0.54831  1.0000
  C   C935      1.0  0.76582  0.25350  0.93715  1.0000
  Fe  Fe107     1.0  0.75019  0.40695  0.49210  1.0000
  S   S214      1.0  0.68911  0.13202  0.96817  1.0000
  H   H1657     1.0  0.70346  0.26593  0.55456  1.0000
  C   C936      1.0  0.96779  0.37143  0.80928  1.0000
  H   H1658     1.0  0.79957  0.10000  0.92101  1.0000
  C   C937      1.0  0.98646  0.38508  0.81898  1.0000
  C   C938      1.0  0.78358  0.10366  0.93068  1.0000
  C   C939      1.0  0.96327  0.26951  0.97903  1.0000
  C   C940      1.0  0.98487  0.27533  0.97416  1.0000
  C   C941      1.0  0.80276  0.19403  0.96023  1.0000
  H   H1659     1.0  0.76907  0.24046  0.98072  1.0000
  C   C942      1.0  0.87357  0.47561  0.72571  1.0000
  H   H1660     1.0  0.83924  0.40021  0.51285  1.0000
  H   H1661     1.0  0.85670  0.42117  0.50005  1.0000
  H   H1662     1.0  0.98727  0.30125  0.86535  1.0000
  H   H1663     1.0  0.67083  0.09590  0.76433  1.0000
  H   H1664     1.0  0.73279  0.25704  0.51972  1.0000
  H   H1665     1.0  0.66179  0.18205  0.49248  1.0000
  H   H1666     1.0  0.79264  0.46277  0.53494  1.0000
  C   C943      1.0  0.80042  0.46282  0.55645  1.0000
  H   H1667     1.0  0.81638  0.46994  0.55243  1.0000
  H   H1668     1.0  0.85782  0.43069  0.61548  1.0000
  Fe  Fe108     1.0  0.72503  0.12608  0.97376  1.0000
  H   H1669     1.0  0.66308  0.26612  0.55829  1.0000
  H   H1670     1.0  0.96228  0.27417  0.88337  1.0000
  H   H1671     1.0  0.96654  0.29333  0.91133  1.0000
  H   H1672     1.0  0.74225  0.23997  0.96687  1.0000
  C   C944      1.0  0.65668  0.99423  0.78368  1.0000
  C   C945      1.0  0.68727  0.31696  0.48491  1.0000
  H   H1673     1.0  0.82841  0.46992  0.60402  1.0000
  H   H1674     1.0  0.66423  0.39083  0.52926  1.0000
  C   C946      1.0  0.66576  0.17679  0.51473  1.0000
  H   H1675     1.0  0.67393  0.41701  0.53900  1.0000
  H   H1676     1.0  0.70022  0.41729  0.50050  1.0000
  H   H1677     1.0  0.97427  0.35946  0.79382  1.0000
  C   C947      1.0  0.97432  0.28054  0.89831  1.0000
  C   C948      1.0  0.78723  0.47876  0.57505  1.0000
  C   C949      1.0  0.97754  0.36048  0.72024  1.0000
  H   H1678     1.0  0.66197  0.13482  0.81773  1.0000
  C   C950      1.0  0.81289  0.47152  0.68311  1.0000
  C   C951      1.0  0.71266  0.99231  0.96525  1.0000
  S   S215      1.0  0.89539  0.29270  0.97645  1.0000
  C   C952      1.0  0.65625  0.25109  0.54990  1.0000
  H   H1679     1.0  0.65519  0.21856  0.51408  1.0000
  H   H1680     1.0  0.76998  0.47462  0.57484  1.0000
  C   C953      1.0  0.78380  0.10000  0.96328  1.0000
  H   H1681     1.0  0.81642  0.11100  0.96691  1.0000
  H   H1682     1.0  0.78729  0.08272  0.96724  1.0000
  S   S216      1.0  0.68239  0.08100  0.98247  1.0000
  H   H1683     1.0  0.70533  0.98837  0.94514  1.0000
  Fe  Fe109     1.0  0.88724  0.56960  0.23515  1.0000
  S   S217      1.0  0.88800  0.57779  0.28217  1.0000
  S   S218      1.0  0.89971  0.53674  0.22169  1.0000
  Fe  Fe110     1.0  0.87946  0.61667  0.21536  1.0000
  S   S219      1.0  0.87971  0.62766  0.26134  1.0000
  S   S220      1.0  0.87703  0.64563  0.18424  1.0000
  Fe  Fe111     1.0  0.90804  0.60559  0.26704  1.0000
  S   S221      1.0  0.93790  0.61727  0.28871  1.0000
  Fe  Fe112     1.0  0.85946  0.59909  0.27263  1.0000
  S   S222      1.0  0.82869  0.60347  0.29979  1.0000
  S   S223      1.0  0.90913  0.59640  0.22082  1.0000
  S   S224      1.0  0.85720  0.58914  0.22602  1.0000
  Fe  Fe113     1.0  0.78700  0.60244  0.46679  1.0000
  S   S225      1.0  0.75318  0.59794  0.45241  1.0000
  S   S226      1.0  0.81696  0.60331  0.43709  1.0000
  Fe  Fe114     1.0  0.87311  0.69637  0.02003  1.0000
  S   S227      1.0  0.87464  0.73154  0.03058  1.0000
  S   S228      1.0  0.87028  0.66615  0.04905  1.0000
  Fe  Fe115     1.0  0.69775  0.88085  0.03879  1.0000
  S   S229      1.0  0.73076  0.89330  0.02627  1.0000
  S   S230      1.0  0.68940  0.87809  0.08725  1.0000
  C   C954      1.0  0.82068  0.83128  0.04087  1.0000
  H   H1684     1.0  0.83769  0.51940  0.35613  1.0000
  H   H1685     1.0  0.70654  0.76911  0.39871  1.0000
  H   H1686     1.0  0.65591  0.97657  0.04409  1.0000
  C   C955      1.0  0.95027  0.67883  0.35985  1.0000
  C   C956      1.0  0.96153  0.74876  0.00152  1.0000
  N   N53       1.0  0.80343  0.53551  0.39046  1.0000
  H   H1687     1.0  0.68112  0.87278  0.14796  1.0000
  H   H1688     1.0  0.94970  0.62103  0.07729  1.0000
  H   H1689     1.0  0.80820  0.76691  0.07501  1.0000
  H   H1690     1.0  0.98695  0.49560  0.18860  1.0000
  C   C957      1.0  0.76451  0.54732  0.37737  1.0000
  C   C958      1.0  0.96531  0.50383  0.24800  1.0000
  H   H1691     1.0  0.72587  0.73411  0.40150  1.0000
  C   C959      1.0  0.96898  0.57796  0.17210  1.0000
  C   C960      1.0  0.66493  0.87876  0.10790  1.0000
  H   H1692     1.0  0.74481  0.62180  0.20260  1.0000
  H   H1693     1.0  0.80105  0.68270  0.10204  1.0000
  H   H1694     1.0  0.75753  0.59618  0.19487  1.0000
  C   C961      1.0  0.82533  0.60229  0.33797  1.0000
  C   C962      1.0  0.84188  0.59552  0.35610  1.0000
  C   C963      1.0  0.83907  0.59606  0.38628  1.0000
  C   C964      1.0  0.81932  0.60235  0.39882  1.0000
  C   C965      1.0  0.80241  0.60812  0.38066  1.0000
  C   C966      1.0  0.80548  0.60828  0.35046  1.0000
  H   H1695     1.0  0.85679  0.58984  0.34672  1.0000
  H   H1696     1.0  0.85221  0.59132  0.40004  1.0000
  H   H1697     1.0  0.78712  0.61301  0.38989  1.0000
  H   H1698     1.0  0.79244  0.61330  0.33671  1.0000
  C   C967      1.0  0.87718  0.65090  0.14637  1.0000
  C   C968      1.0  0.87754  0.63451  0.12614  1.0000
  C   C969      1.0  0.87579  0.63953  0.09649  1.0000
  C   C970      1.0  0.87413  0.66098  0.08654  1.0000
  C   C971      1.0  0.87447  0.67738  0.10674  1.0000
  C   C972      1.0  0.87586  0.67234  0.13642  1.0000
  H   H1699     1.0  0.87879  0.61798  0.13335  1.0000
  H   H1700     1.0  0.87556  0.62669  0.08111  1.0000
  H   H1701     1.0  0.87314  0.69393  0.09954  1.0000
  H   H1702     1.0  0.87562  0.68518  0.15181  1.0000
  C   C973      1.0  0.96183  0.60443  0.27733  1.0000
  C   C974      1.0  0.96113  0.58541  0.26187  1.0000
  C   C975      1.0  0.75096  0.61126  0.18519  1.0000
  H   H1703     1.0  0.94588  0.57811  0.25762  1.0000
  C   C976      1.0  0.78353  0.54830  0.39845  1.0000
  C   C977      1.0  0.86278  0.51218  0.21959  1.0000
  C   C978      1.0  0.88519  0.51247  0.22070  1.0000
  C   C979      1.0  0.82294  0.76426  0.08784  1.0000
  H   H1704     1.0  0.85375  0.52710  0.22023  1.0000
  C   C980      1.0  0.87697  0.80990  0.06578  1.0000
  C   C981      1.0  0.68867  0.78414  0.47517  1.0000
  N   N54       1.0  0.80717  0.63770  0.17090  1.0000
  C   C982      1.0  0.80141  0.64962  0.14344  1.0000
  C   C983      1.0  0.78717  0.62952  0.18617  1.0000
  C   C984      1.0  0.81765  0.65353  0.19044  1.0000
  C   C985      1.0  0.82294  0.61959  0.16559  1.0000
  C   C986      1.0  0.81611  0.60230  0.14418  1.0000
  C   C987      1.0  0.82040  0.65900  0.12557  1.0000
  C   C988      1.0  0.82311  0.64509  0.22119  1.0000
  C   C989      1.0  0.76819  0.62269  0.16720  1.0000
  C   C990      1.0  0.83460  0.58665  0.13788  1.0000
  Fe  Fe116     1.0  0.73201  0.86623  0.99396  1.0000
  C   C991      1.0  0.83183  0.66298  0.23962  1.0000
  H   H1705     1.0  0.79013  0.66312  0.14842  1.0000
  H   H1706     1.0  0.79263  0.63923  0.12860  1.0000
  H   H1707     1.0  0.79131  0.61578  0.20082  1.0000
  H   H1708     1.0  0.78017  0.64211  0.20044  1.0000
  H   H1709     1.0  0.80728  0.66813  0.19275  1.0000
  H   H1710     1.0  0.83305  0.65922  0.18096  1.0000
  H   H1711     1.0  0.83872  0.62598  0.15847  1.0000
  H   H1712     1.0  0.82633  0.61075  0.18599  1.0000
  H   H1713     1.0  0.81107  0.60944  0.12332  1.0000
  H   H1714     1.0  0.80285  0.59273  0.15370  1.0000
  H   H1715     1.0  0.82875  0.67156  0.13757  1.0000
  H   H1716     1.0  0.83208  0.64623  0.11965  1.0000
  H   H1717     1.0  0.83568  0.63239  0.22021  1.0000
  H   H1718     1.0  0.80889  0.63845  0.23262  1.0000
  H   H1719     1.0  0.76058  0.63715  0.15715  1.0000
  H   H1720     1.0  0.77332  0.61185  0.14974  1.0000
  H   H1721     1.0  0.84060  0.57912  0.15811  1.0000
  H   H1722     1.0  0.82901  0.57374  0.12370  1.0000
  Fe  Fe117     1.0  0.90249  0.73275  0.99872  1.0000
  S   S231      1.0  0.69972  0.85319  0.00772  1.0000
  H   H1723     1.0  0.96354  0.71446  0.00792  1.0000
  C   C992      1.0  0.80549  0.78358  0.99210  1.0000
  H   H1724     1.0  0.81981  0.67616  0.24196  1.0000
  H   H1725     1.0  0.83553  0.65639  0.26134  1.0000
  H   H1726     1.0  0.84684  0.66945  0.22988  1.0000
  H   H1727     1.0  0.82655  0.67624  0.08543  1.0000
  C   C993      1.0  0.97367  0.76731  0.99716  1.0000
  H   H1728     1.0  0.83503  0.55787  0.31403  1.0000
  H   H1729     1.0  0.73733  0.60711  0.17126  1.0000
  H   H1730     1.0  0.71607  0.72734  0.36632  1.0000
  H   H1731     1.0  0.84601  0.54612  0.36359  1.0000
  H   H1732     1.0  0.90009  0.79731  0.11499  1.0000
  H   H1733     1.0  0.75830  0.53075  0.37634  1.0000
  H   H1734     1.0  0.96223  0.66845  0.37107  1.0000
  C   C994      1.0  0.72900  0.98102  0.00982  1.0000
  S   S232      1.0  0.93302  0.75230  0.00534  1.0000
  H   H1735     1.0  0.80398  0.84972  0.07409  1.0000
  H   H1736     1.0  0.81322  0.50295  0.38049  1.0000
  H   H1737     1.0  0.75126  0.57884  0.38803  1.0000
  H   H1738     1.0  0.66650  0.92537  0.10089  1.0000
  C   C995      1.0  0.98694  0.51335  0.23772  1.0000
  C   C996      1.0  0.72036  0.74077  0.38051  1.0000
  C   C997      1.0  0.87795  0.79437  0.00602  1.0000
  H   H1739     1.0  0.81039  0.81717  0.04503  1.0000
  H   H1740     1.0  0.67766  0.91256  0.22343  1.0000
  H   H1741     1.0  0.98393  0.57444  0.18407  1.0000
  S   S233      1.0  0.74348  0.53770  0.46763  1.0000
  H   H1742     1.0  0.93719  0.66221  0.24614  1.0000
  H   H1743     1.0  0.70093  0.79368  0.46327  1.0000
  S   S234      1.0  0.68083  0.90266  0.00749  1.0000
  H   H1744     1.0  0.95266  0.69569  0.36643  1.0000
  H   H1745     1.0  0.95772  0.52873  0.27927  1.0000
  H   H1746     1.0  0.83340  0.52666  0.41084  1.0000
  H   H1747     1.0  0.66570  0.94758  0.20458  1.0000
  H   H1748     1.0  0.96204  0.65372  0.99174  1.0000
  H   H1749     1.0  0.80639  0.49890  0.43129  1.0000
  H   H1750     1.0  0.67682  0.73252  0.38145  1.0000
  H   H1751     1.0  0.79276  0.85231  0.03869  1.0000
  H   H1752     1.0  0.67008  0.75582  0.47042  1.0000
  H   H1753     1.0  0.87145  0.77792  0.00752  1.0000
  H   H1754     1.0  0.98297  0.52431  0.21941  1.0000
  H   H1755     1.0  0.84350  0.52954  0.46217  1.0000
  H   H1756     1.0  0.78640  0.50895  0.37231  1.0000
  C   C998      1.0  0.74394  0.51049  0.48060  1.0000
  H   H1757     1.0  0.85459  0.77496  0.04880  1.0000
  H   H1758     1.0  0.78248  0.77432  0.02490  1.0000
  H   H1759     1.0  0.89327  0.79458  0.01783  1.0000
  H   H1760     1.0  0.96561  0.78276  0.99571  1.0000
  H   H1761     1.0  0.89687  0.82233  0.13359  1.0000
  H   H1762     1.0  0.85119  0.78071  0.10003  1.0000
  H   H1763     1.0  0.94677  0.62726  0.22616  1.0000
  H   H1764     1.0  0.77911  0.50875  0.42807  1.0000
  S   S235      1.0  0.82256  0.76012  0.99802  1.0000
  C   C999      1.0  0.81432  0.54321  0.44359  1.0000
  C   C1000     1.0  0.78671  0.78650  0.00906  1.0000
  C   C1001     1.0  0.95046  0.52124  0.26025  1.0000
  C   C1002     1.0  0.70117  0.75595  0.38490  1.0000
  H   H1765     1.0  0.67851  0.94936  0.11388  1.0000
  H   H1766     1.0  0.80500  0.65742  0.08376  1.0000
  C   C1003     1.0  0.95882  0.59959  0.18175  1.0000
  S   S236      1.0  0.90207  0.69756  0.99065  1.0000
  C   C1004     1.0  0.95826  0.63883  0.18363  1.0000
  Fe  Fe118     1.0  0.71341  0.91387  0.99308  1.0000
  C   C1005     1.0  0.77337  0.80509  0.00601  1.0000
  C   C1006     1.0  0.95704  0.61940  0.12278  1.0000
  H   H1767     1.0  0.69539  0.75572  0.45121  1.0000
  C   C1007     1.0  0.95365  0.55943  0.17829  1.0000
  C   C1008     1.0  0.68183  0.74385  0.39820  1.0000
  H   H1768     1.0  0.83820  0.82920  0.08021  1.0000
  H   H1769     1.0  0.88908  0.81971  0.05377  1.0000
  C   C1009     1.0  0.79237  0.50021  0.41689  1.0000
  H   H1770     1.0  0.95633  0.59788  0.20531  1.0000
  C   C1010     1.0  0.80800  0.85104  0.05078  1.0000
  H   H1771     1.0  0.80527  0.55857  0.44547  1.0000
  H   H1772     1.0  0.77705  0.54331  0.41985  1.0000
  N   N55       1.0  0.97152  0.61950  0.17483  1.0000
  H   H1773     1.0  0.94205  0.63823  0.17394  1.0000
  C   C1011     1.0  0.87641  0.81939  0.09648  1.0000
  C   C1012     1.0  0.74601  0.56189  0.38720  1.0000
  H   H1774     1.0  0.82756  0.79766  0.09549  1.0000
  H   H1775     1.0  0.94713  0.53386  0.24373  1.0000
  H   H1776     1.0  0.94455  0.63171  0.12760  1.0000
  H   H1777     1.0  0.94967  0.60333  0.12484  1.0000
  C   C1013     1.0  0.98019  0.57589  0.25157  1.0000
  H   H1778     1.0  0.84669  0.80879  0.00481  1.0000
  H   H1779     1.0  0.93877  0.56148  0.16561  1.0000
  H   H1780     1.0  0.96146  0.54398  0.17235  1.0000
  C   C1014     1.0  0.67253  0.98163  0.03878  1.0000
  C   C1015     1.0  0.66307  0.94091  0.11150  1.0000
  H   H1781     1.0  0.82331  0.83324  0.01735  1.0000
  H   H1782     1.0  0.94665  0.67578  0.21389  1.0000
  C   C1016     1.0  0.81264  0.66946  0.09755  1.0000
  C   C1017     1.0  0.83394  0.54469  0.46275  1.0000
  H   H1783     1.0  0.96545  0.65391  0.17499  1.0000
  Fe  Fe119     1.0  0.85288  0.73766  0.99232  1.0000
  H   H1784     1.0  0.76925  0.55284  0.35543  1.0000
  H   H1785     1.0  0.74277  0.49767  0.43787  1.0000
  H   H1786     1.0  0.80393  0.53043  0.45245  1.0000
  H   H1787     1.0  0.94239  0.60099  0.17280  1.0000
  N   N56       1.0  0.90128  0.63999  0.36236  1.0000
  C   C1018     1.0  0.88685  0.65302  0.34277  1.0000
  C   C1019     1.0  0.92386  0.64832  0.35940  1.0000
  C   C1020     1.0  0.90156  0.61717  0.35174  1.0000
  C   C1021     1.0  0.89371  0.63981  0.39345  1.0000
  C   C1022     1.0  0.88181  0.66021  0.40445  1.0000
  C   C1023     1.0  0.86405  0.64393  0.33888  1.0000
  C   C1024     1.0  0.91817  0.60162  0.36575  1.0000
  C   C1025     1.0  0.92744  0.67194  0.36769  1.0000
  H   H1788     1.0  0.67726  0.79087  0.37079  1.0000
  C   C1026     1.0  0.87766  0.65871  0.43691  1.0000
  C   C1027     1.0  0.84889  0.66059  0.32545  1.0000
  C   C1028     1.0  0.91430  0.57840  0.35729  1.0000
  H   H1789     1.0  0.89427  0.65439  0.32083  1.0000
  H   H1790     1.0  0.88504  0.66978  0.35013  1.0000
  H   H1791     1.0  0.93501  0.63884  0.37321  1.0000
  H   H1792     1.0  0.92977  0.64624  0.33682  1.0000
  H   H1793     1.0  0.90425  0.61687  0.32805  1.0000
  H   H1794     1.0  0.88565  0.60983  0.35541  1.0000
  H   H1795     1.0  0.88239  0.62637  0.39773  1.0000
  H   H1796     1.0  0.90748  0.63642  0.40792  1.0000
  H   H1797     1.0  0.86595  0.66208  0.39412  1.0000
  H   H1798     1.0  0.89087  0.67502  0.39985  1.0000
  H   H1799     1.0  0.86488  0.63002  0.32425  1.0000
  H   H1800     1.0  0.85696  0.63840  0.35966  1.0000
  H   H1801     1.0  0.91738  0.60250  0.38956  1.0000
  H   H1802     1.0  0.93467  0.60558  0.35824  1.0000
  H   H1803     1.0  0.91637  0.68317  0.35645  1.0000
  H   H1804     1.0  0.92549  0.67368  0.39130  1.0000
  H   H1805     1.0  0.74000  0.55681  0.40883  1.0000
  H   H1806     1.0  0.86323  0.81287  0.11001  1.0000
  H   H1807     1.0  0.82948  0.55478  0.40554  1.0000
  H   H1808     1.0  0.86882  0.67328  0.44416  1.0000
  H   H1809     1.0  0.86773  0.64447  0.44238  1.0000
  H   H1810     1.0  0.89302  0.65754  0.44869  1.0000
  H   H1811     1.0  0.83317  0.65307  0.32141  1.0000
  H   H1812     1.0  0.84624  0.67423  0.34022  1.0000
  H   H1813     1.0  0.85559  0.66664  0.30464  1.0000
  H   H1814     1.0  0.89790  0.57332  0.36380  1.0000
  H   H1815     1.0  0.91643  0.57666  0.33367  1.0000
  H   H1816     1.0  0.92612  0.56765  0.36811  1.0000
  C   C1029     1.0  0.79889  0.51184  0.38859  1.0000
  H   H1817     1.0  0.97946  0.56144  0.23915  1.0000
  C   C1030     1.0  0.83418  0.53659  0.35176  1.0000
  C   C1031     1.0  0.66100  0.91003  0.23140  1.0000
  C   C1032     1.0  0.83815  0.54076  0.31964  1.0000
  H   H1818     1.0  0.80006  0.53707  0.34407  1.0000
  C   C1033     1.0  0.83705  0.78416  0.08642  1.0000
  C   C1034     1.0  0.66948  0.77409  0.42959  1.0000
  H   H1819     1.0  0.96973  0.64428  0.22774  1.0000
  H   H1820     1.0  0.82765  0.53058  0.30658  1.0000
  H   H1821     1.0  0.73383  0.74967  0.37024  1.0000
  C   C1035     1.0  0.98176  0.61359  0.28300  1.0000
  H   H1822     1.0  0.94921  0.55865  0.20151  1.0000
  H   H1823     1.0  0.84797  0.59508  0.12668  1.0000
  H   H1824     1.0  0.94835  0.67867  0.99915  1.0000
  C   C1036     1.0  0.81088  0.54310  0.36091  1.0000
  H   H1825     1.0  0.84413  0.55833  0.45562  1.0000
  H   H1826     1.0  0.66359  0.92641  0.15341  1.0000
  H   H1827     1.0  0.95311  0.67788  0.33623  1.0000
  H   H1828     1.0  0.75915  0.80687  0.01941  1.0000
  H   H1829     1.0  0.81727  0.86588  0.04655  1.0000
  H   H1830     1.0  0.98241  0.62829  0.29501  1.0000
  H   H1831     1.0  0.69691  0.76249  0.36337  1.0000
  H   H1832     1.0  0.85511  0.53688  0.31397  1.0000
  H   H1833     1.0  0.97600  0.61020  0.08501  1.0000
  C   C1037     1.0  0.86134  0.81104  0.01772  1.0000
  H   H1834     1.0  0.92365  0.65830  0.21271  1.0000
  C   C1038     1.0  0.68108  0.76561  0.45685  1.0000
  H   H1835     1.0  0.93491  0.51409  0.26696  1.0000
  N   N57       1.0  0.66299  0.75733  0.40838  1.0000
  H   H1836     1.0  0.80988  0.56094  0.35923  1.0000
  C   C1039     1.0  0.84443  0.78891  0.05515  1.0000
  H   H1837     1.0  0.83477  0.49244  0.21522  1.0000
  H   H1838     1.0  0.83181  0.75007  0.07932  1.0000
  H   H1839     1.0  0.78774  0.56554  0.40067  1.0000
  C   C1040     1.0  0.84230  0.82896  0.05695  1.0000
  H   H1840     1.0  0.81812  0.76078  0.11050  1.0000
  H   H1841     1.0  0.86736  0.82735  0.01201  1.0000
  C   C1041     1.0  0.97253  0.72888  0.00362  1.0000
  C   C1042     1.0  0.65962  0.79009  0.37245  1.0000
  C   C1043     1.0  0.89669  0.49294  0.21961  1.0000
  H   H1842     1.0  0.98380  0.63721  0.13795  1.0000
  H   H1843     1.0  0.68778  0.73331  0.41603  1.0000
  C   C1044     1.0  0.82105  0.53972  0.41165  1.0000
  H   H1844     1.0  0.73258  0.56095  0.37185  1.0000
  C   C1045     1.0  0.97648  0.62138  0.14305  1.0000
  H   H1845     1.0  0.66323  0.98344  0.21522  1.0000
  H   H1846     1.0  0.83018  0.78816  0.04133  1.0000
  C   C1046     1.0  0.93959  0.66069  0.22253  1.0000
  C   C1047     1.0  0.96388  0.62254  0.09130  1.0000
  H   H1847     1.0  0.97282  0.57804  0.14875  1.0000
  C   C1048     1.0  0.95446  0.64157  0.21646  1.0000
  C   C1049     1.0  0.74335  0.49375  0.46059  1.0000
  H   H1848     1.0  0.85151  0.84390  0.05260  1.0000
  H   H1849     1.0  0.91401  0.49300  0.22033  1.0000
  C   C1050     1.0  0.85206  0.49252  0.21668  1.0000
  H   H1850     1.0  0.68372  0.97462  0.05488  1.0000
  C   C1051     1.0  0.77845  0.82132  0.98584  1.0000
  N   N58       1.0  0.85609  0.80962  0.04956  1.0000
  H   H1851     1.0  0.73395  0.96844  0.02468  1.0000
  H   H1852     1.0  0.88404  0.79337  0.06714  1.0000
  H   H1853     1.0  0.65823  0.89248  0.23299  1.0000
  H   H1854     1.0  0.87415  0.83710  0.09506  1.0000
  C   C1052     1.0  0.66577  0.87573  0.13800  1.0000
  H   H1855     1.0  0.91119  0.82172  0.09964  1.0000
  C   C1053     1.0  0.89746  0.81488  0.11204  1.0000
  H   H1856     1.0  0.97069  0.63877  0.08770  1.0000
  H   H1857     1.0  0.67708  0.97516  0.01736  1.0000
  H   H1858     1.0  0.68007  0.78626  0.41946  1.0000
  H   H1859     1.0  0.66434  0.96493  0.16063  1.0000
  H   H1860     1.0  0.95696  0.49675  0.22954  1.0000
  H   H1861     1.0  0.65902  0.91690  0.25322  1.0000
  H   H1862     1.0  0.96751  0.49134  0.26498  1.0000
  C   C1054     1.0  0.71873  0.97564  0.98438  1.0000
  H   H1863     1.0  0.71215  0.69707  0.47581  1.0000
  H   H1864     1.0  0.65576  0.73254  0.44035  1.0000
  C   C1055     1.0  0.69711  0.68990  0.48230  1.0000
  H   H1865     1.0  0.65722  0.78500  0.32628  1.0000
  H   H1866     1.0  0.67961  0.72018  0.48116  1.0000
  H   H1867     1.0  0.67499  0.79485  0.48117  1.0000
  S   S237      1.0  0.85004  0.70194  0.98332  1.0000
  H   H1868     1.0  0.65505  0.78335  0.43686  1.0000
  Fe  Fe120     1.0  0.77387  0.59856  0.53146  1.0000
  S   S238      1.0  0.73919  0.59275  0.52005  1.0000
  S   S239      1.0  0.78023  0.59878  0.58038  1.0000
  H   H1869     1.0  0.82020  0.54907  0.62341  1.0000
  H   H1870     1.0  0.79075  0.64669  0.55415  1.0000
  H   H1871     1.0  0.79749  0.52950  0.71878  1.0000
  H   H1872     1.0  0.89129  0.49531  0.69544  1.0000
  C   C1056     1.0  0.95198  0.66675  0.98219  1.0000
  H   H1873     1.0  0.82002  0.57290  0.71361  1.0000
  Fe  Fe121     1.0  0.86805  0.61912  0.77287  1.0000
  S   S240      1.0  0.89002  0.62843  0.73585  1.0000
  S   S241      1.0  0.85155  0.64033  0.80680  1.0000
  Fe  Fe122     1.0  0.87017  0.57110  0.75681  1.0000
  S   S242      1.0  0.89290  0.57689  0.71999  1.0000
  S   S243      1.0  0.85778  0.53867  0.77209  1.0000
  Fe  Fe123     1.0  0.90979  0.59944  0.74921  1.0000
  S   S244      1.0  0.94410  0.59692  0.76499  1.0000
  Fe  Fe124     1.0  0.87099  0.60509  0.70916  1.0000
  S   S245      1.0  0.86243  0.60949  0.66119  1.0000
  S   S246      1.0  0.88844  0.59131  0.78703  1.0000
  S   S247      1.0  0.84761  0.59822  0.74524  1.0000
  Fe  Fe125     1.0  0.87939  0.70545  0.95457  1.0000
  S   S248      1.0  0.88103  0.74125  0.96131  1.0000
  S   S249      1.0  0.89173  0.69009  0.91260  1.0000
  H   H1874     1.0  0.88968  0.81532  0.97127  1.0000
  H   H1875     1.0  0.70384  0.71660  0.53355  1.0000
  H   H1876     1.0  0.86578  0.56657  0.63319  1.0000
  H   H1877     1.0  0.75003  0.89354  0.89598  1.0000
  H   H1878     1.0  0.88607  0.54579  0.63246  1.0000
  C   C1057     1.0  0.78899  0.50160  0.56286  1.0000
  Fe  Fe126     1.0  0.68527  0.87643  0.97494  1.0000
  S   S250      1.0  0.71727  0.88808  0.95969  1.0000
  H   H1879     1.0  0.79153  0.54513  0.59001  1.0000
  H   H1880     1.0  0.76341  0.80426  0.92685  1.0000
  H   H1881     1.0  0.67241  0.91426  0.91340  1.0000
  H   H1882     1.0  0.93116  0.56545  0.67779  1.0000
  H   H1883     1.0  0.86521  0.63191  0.96296  1.0000
  C   C1058     1.0  0.81045  0.79974  0.97178  1.0000
  H   H1884     1.0  0.84957  0.53095  0.63653  1.0000
  H   H1885     1.0  0.70672  0.72420  0.57070  1.0000
  H   H1886     1.0  0.81161  0.52135  0.62544  1.0000
  C   C1059     1.0  0.75444  0.87668  0.90154  1.0000
  H   H1887     1.0  0.69799  0.80935  0.81976  1.0000
  C   C1060     1.0  0.75188  0.77275  0.93659  1.0000
  H   H1888     1.0  0.83886  0.57328  0.91774  1.0000
  C   C1061     1.0  0.80719  0.53814  0.63063  1.0000
  H   H1889     1.0  0.92879  0.73478  0.94683  1.0000
  C   C1062     1.0  0.93937  0.74115  0.92940  1.0000
  C   C1063     1.0  0.68530  0.81346  0.83583  1.0000
  H   H1890     1.0  0.92000  0.61772  0.83086  1.0000
  C   C1064     1.0  0.81244  0.53837  0.71369  1.0000
  C   C1065     1.0  0.86304  0.65495  0.83534  1.0000
  C   C1066     1.0  0.88522  0.65728  0.83797  1.0000
  C   C1067     1.0  0.89360  0.66829  0.86154  1.0000
  C   C1068     1.0  0.88000  0.67714  0.88284  1.0000
  C   C1069     1.0  0.85782  0.67498  0.88010  1.0000
  C   C1070     1.0  0.84943  0.66400  0.85648  1.0000
  H   H1891     1.0  0.89589  0.65061  0.82179  1.0000
  H   H1892     1.0  0.91077  0.66990  0.86328  1.0000
  H   H1893     1.0  0.84712  0.68173  0.89619  1.0000
  H   H1894     1.0  0.83225  0.66240  0.85463  1.0000
  C   C1071     1.0  0.69098  0.93902  0.89164  1.0000
  C   C1072     1.0  0.96805  0.60430  0.74686  1.0000
  C   C1073     1.0  0.96863  0.61058  0.71784  1.0000
  C   C1074     1.0  0.82515  0.51021  0.68158  1.0000
  H   H1895     1.0  0.95389  0.61166  0.70586  1.0000
  C   C1075     1.0  0.86449  0.51456  0.75418  1.0000
  H   H1896     1.0  0.66635  0.96257  0.76888  1.0000
  C   C1076     1.0  0.87719  0.51454  0.72915  1.0000
  H   H1897     1.0  0.72435  0.93195  0.88126  1.0000
  H   H1898     1.0  0.88354  0.52943  0.72067  1.0000
  S   S251      1.0  0.77702  0.62662  0.50051  1.0000
  H   H1899     1.0  0.97917  0.68358  0.96539  1.0000
  C   C1077     1.0  0.66956  0.87427  0.88712  1.0000
  C   C1078     1.0  0.71192  0.92672  0.89711  1.0000
  H   H1900     1.0  0.68579  0.87495  0.89467  1.0000
  H   H1901     1.0  0.68041  0.72030  0.55613  1.0000
  C   C1079     1.0  0.80339  0.60169  0.60235  1.0000
  C   C1080     1.0  0.82400  0.60460  0.59076  1.0000
  C   C1081     1.0  0.84172  0.60695  0.60910  1.0000
  C   C1082     1.0  0.83925  0.60629  0.63931  1.0000
  C   C1083     1.0  0.81863  0.60329  0.65091  1.0000
  C   C1084     1.0  0.80089  0.60110  0.63257  1.0000
  H   H1902     1.0  0.82630  0.60520  0.56766  1.0000
  H   H1903     1.0  0.85752  0.60934  0.59978  1.0000
  H   H1904     1.0  0.81633  0.60302  0.67401  1.0000
  H   H1905     1.0  0.78504  0.59906  0.64190  1.0000
  C   C1085     1.0  0.80271  0.54100  0.66309  1.0000
  H   H1906     1.0  0.74380  0.51767  0.52569  1.0000
  H   H1907     1.0  0.86588  0.52358  0.66655  1.0000
  H   H1908     1.0  0.76323  0.67793  0.59032  1.0000
  C   C1086     1.0  0.69418  0.80834  0.93745  1.0000
  H   H1909     1.0  0.78731  0.53315  0.66894  1.0000
  H   H1910     1.0  0.76919  0.87221  0.88924  1.0000
  H   H1911     1.0  0.69784  0.79293  0.86916  1.0000
  H   H1912     1.0  0.78110  0.56040  0.61948  1.0000
  H   H1913     1.0  0.88792  0.57713  0.91134  1.0000
  C   C1087     1.0  0.67849  0.70317  0.48522  1.0000
  H   H1914     1.0  0.93783  0.76821  0.89910  1.0000
  N   N59       1.0  0.86843  0.59870  0.88550  1.0000
  C   C1088     1.0  0.84698  0.59980  0.87080  1.0000
  C   C1089     1.0  0.87057  0.61735  0.90572  1.0000
  C   C1090     1.0  0.88564  0.60058  0.86233  1.0000
  C   C1091     1.0  0.87195  0.57754  0.90103  1.0000
  C   C1092     1.0  0.85562  0.57173  0.92514  1.0000
  C   C1093     1.0  0.84276  0.58210  0.84851  1.0000
  C   C1094     1.0  0.90877  0.60516  0.87251  1.0000
  C   C1095     1.0  0.85005  0.62513  0.92205  1.0000
  C   C1096     1.0  0.66547  0.87491  0.85729  1.0000
  H   H1915     1.0  0.75477  0.83315  0.88661  1.0000
  C   C1097     1.0  0.82107  0.58562  0.83418  1.0000
  H   H1916     1.0  0.72098  0.78756  0.90388  1.0000
  H   H1917     1.0  0.84511  0.61565  0.85963  1.0000
  H   H1918     1.0  0.83347  0.59917  0.88649  1.0000
  H   H1919     1.0  0.88334  0.61384  0.92172  1.0000
  H   H1920     1.0  0.87595  0.63187  0.89353  1.0000
  H   H1921     1.0  0.88134  0.61348  0.84653  1.0000
  H   H1922     1.0  0.88680  0.58556  0.84976  1.0000
  H   H1923     1.0  0.87258  0.56417  0.88542  1.0000
  C   C1098     1.0  0.79713  0.81831  0.96874  1.0000
  H   H1924     1.0  0.73317  0.86386  0.87070  1.0000
  H   H1925     1.0  0.85796  0.58222  0.94389  1.0000
  H   H1926     1.0  0.85501  0.58214  0.83104  1.0000
  H   H1927     1.0  0.84267  0.56600  0.85903  1.0000
  C   C1099     1.0  0.95647  0.55345  0.70550  1.0000
  H   H1928     1.0  0.90968  0.62111  0.88269  1.0000
  H   H1929     1.0  0.83938  0.63402  0.90689  1.0000
  H   H1930     1.0  0.84070  0.61183  0.93162  1.0000
  H   H1931     1.0  0.65514  0.91399  0.96041  1.0000
  H   H1932     1.0  0.86478  0.65427  0.93772  1.0000
  C   C1100     1.0  0.85558  0.64037  0.94625  1.0000
  C   C1101     1.0  0.70753  0.82745  0.92509  1.0000
  H   H1933     1.0  0.94866  0.70573  0.85336  1.0000
  H   H1934     1.0  0.79946  0.55849  0.66523  1.0000
  H   H1935     1.0  0.82072  0.60127  0.82235  1.0000
  H   H1936     1.0  0.81846  0.57268  0.81848  1.0000
  H   H1937     1.0  0.80785  0.58528  0.85044  1.0000
  H   H1938     1.0  0.98696  0.59841  0.78468  1.0000
  H   H1939     1.0  0.81695  0.56068  0.76524  1.0000
  H   H1940     1.0  0.94097  0.60894  0.85470  1.0000
  N   N60       1.0  0.72530  0.65987  0.57645  1.0000
  C   C1102     1.0  0.74721  0.65199  0.56686  1.0000
  C   C1103     1.0  0.70867  0.64423  0.56677  1.0000
  C   C1104     1.0  0.72102  0.68101  0.56098  1.0000
  C   C1105     1.0  0.72364  0.66324  0.60859  1.0000
  C   C1106     1.0  0.73774  0.64841  0.62808  1.0000
  C   C1107     1.0  0.76570  0.66817  0.57077  1.0000
  C   C1108     1.0  0.69812  0.69074  0.56486  1.0000
  C   C1109     1.0  0.70976  0.62132  0.57996  1.0000
  C   C1110     1.0  0.69300  0.60696  0.56655  1.0000
  C   C1111     1.0  0.73148  0.65069  0.65979  1.0000
  H   H1941     1.0  0.68666  0.68217  0.55117  1.0000
  H   H1942     1.0  0.74705  0.64791  0.54359  1.0000
  H   H1943     1.0  0.75164  0.63668  0.57780  1.0000
  H   H1944     1.0  0.69222  0.65019  0.57197  1.0000
  H   H1945     1.0  0.70942  0.64282  0.54293  1.0000
  H   H1946     1.0  0.72401  0.67936  0.53739  1.0000
  H   H1947     1.0  0.73242  0.69338  0.56810  1.0000
  H   H1948     1.0  0.72804  0.67996  0.61403  1.0000
  H   H1949     1.0  0.70665  0.66171  0.61599  1.0000
  H   H1950     1.0  0.75489  0.65276  0.62585  1.0000
  H   H1951     1.0  0.73655  0.63127  0.62260  1.0000
  H   H1952     1.0  0.69245  0.68952  0.58755  1.0000
  H   H1953     1.0  0.73669  0.76442  0.94208  1.0000
  H   H1954     1.0  0.72570  0.61367  0.57646  1.0000
  H   H1955     1.0  0.70607  0.62177  0.60336  1.0000
  H   H1956     1.0  0.67656  0.61316  0.57122  1.0000
  H   H1957     1.0  0.69539  0.60622  0.54285  1.0000
  H   H1958     1.0  0.69449  0.59043  0.57564  1.0000
  H   H1959     1.0  0.73313  0.66759  0.66660  1.0000
  H   H1960     1.0  0.71469  0.64550  0.66361  1.0000
  H   H1961     1.0  0.74221  0.64041  0.67320  1.0000
  C   C1112     1.0  0.74385  0.50507  0.50995  1.0000
  H   H1962     1.0  0.68966  0.79673  0.92096  1.0000
  C   C1113     1.0  0.69657  0.66758  0.48801  1.0000
  H   H1963     1.0  0.84738  0.54498  0.95347  1.0000
  H   H1964     1.0  0.95442  0.74684  0.93897  1.0000
  C   C1114     1.0  0.96326  0.69736  0.86153  1.0000
  H   H1965     1.0  0.91228  0.75558  0.90675  1.0000
  H   H1966     1.0  0.78892  0.55503  0.76006  1.0000
  N   N61       1.0  0.82020  0.53398  0.68337  1.0000
  H   H1967     1.0  0.87546  0.54613  0.94389  1.0000
  N   N62       1.0  0.72334  0.82241  0.90103  1.0000
  C   C1115     1.0  0.88158  0.49517  0.71491  1.0000
  H   H1968     1.0  0.94849  0.56075  0.72448  1.0000
  C   C1116     1.0  0.71278  0.82480  0.87208  1.0000
  H   H1969     1.0  0.71788  0.92990  0.91899  1.0000
  H   H1970     1.0  0.95507  0.66730  0.84114  1.0000
  H   H1971     1.0  0.97238  0.52417  0.69336  1.0000
  H   H1972     1.0  0.72146  0.86714  0.90601  1.0000
  H   H1973     1.0  0.95556  0.52145  0.72417  1.0000
  H   H1974     1.0  0.66496  0.80202  0.96193  1.0000
  N   N63       1.0  0.95926  0.70573  0.91578  1.0000
  H   H1975     1.0  0.84941  0.54896  0.69801  1.0000
  H   H1976     1.0  0.71581  0.83435  0.94387  1.0000
  C   C1117     1.0  0.69731  0.71441  0.55574  1.0000
  C   C1118     1.0  0.80691  0.56213  0.72048  1.0000
  C   C1119     1.0  0.78755  0.65694  0.57306  1.0000
  H   H1977     1.0  0.96766  0.66447  0.94122  1.0000
  H   H1978     1.0  0.80397  0.49506  0.71403  1.0000
  H   H1979     1.0  0.91434  0.59281  0.88819  1.0000
  C   C1120     1.0  0.93899  0.54984  0.68342  1.0000
  H   H1980     1.0  0.79848  0.58218  0.75681  1.0000
  H   H1981     1.0  0.80140  0.83052  0.95296  1.0000
  H   H1982     1.0  0.98221  0.72169  0.94232  1.0000
  H   H1983     1.0  0.69426  0.95640  0.89360  1.0000
  H   H1984     1.0  0.97057  0.68541  0.81884  1.0000
  S   S252      1.0  0.71322  0.94859  0.97489  1.0000
  H   H1985     1.0  0.78822  0.64680  0.59291  1.0000
  H   H1986     1.0  0.83894  0.50610  0.69572  1.0000
  H   H1987     1.0  0.70956  0.90920  0.89486  1.0000
  C   C1121     1.0  0.85710  0.53714  0.65607  1.0000
  H   H1988     1.0  0.78611  0.50200  0.53931  1.0000
  H   H1989     1.0  0.68654  0.93567  0.86919  1.0000
  C   C1122     1.0  0.67319  0.93210  0.91345  1.0000
  H   H1990     1.0  0.79212  0.56741  0.70924  1.0000
  C   C1123     1.0  0.95909  0.68896  0.89269  1.0000
  C   C1124     1.0  0.78734  0.54434  0.61330  1.0000
  C   C1125     1.0  0.87361  0.55363  0.64612  1.0000
  H   H1991     1.0  0.88156  0.56079  0.66477  1.0000
  H   H1992     1.0  0.93402  0.69003  0.94005  1.0000
  C   C1126     1.0  0.84041  0.54678  0.67769  1.0000
  H   H1993     1.0  0.92811  0.71678  0.90091  1.0000
  H   H1994     1.0  0.74344  0.79671  0.88455  1.0000
  H   H1995     1.0  0.69622  0.84042  0.91808  1.0000
  C   C1127     1.0  0.65694  0.97587  0.93833  1.0000
  H   H1996     1.0  0.94321  0.68089  0.89264  1.0000
  H   H1997     1.0  0.67134  0.80295  0.83241  1.0000
  H   H1998     1.0  0.94594  0.54293  0.66343  1.0000
  H   H1999     1.0  0.92429  0.77248  0.93306  1.0000
  C   C1128     1.0  0.96400  0.67725  0.95687  1.0000
  H   H2000     1.0  0.86871  0.79714  0.96103  1.0000
  H   H2001     1.0  0.92655  0.53892  0.69242  1.0000
  H   H2002     1.0  0.84654  0.49489  0.78426  1.0000
  S   S253      1.0  0.72105  0.65165  0.48479  1.0000
  H   H2003     1.0  0.84061  0.64660  0.95654  1.0000
  H   H2004     1.0  0.94924  0.70797  0.96053  1.0000
  H   H2005     1.0  0.83628  0.56337  0.67023  1.0000
  C   C1129     1.0  0.80255  0.56509  0.75262  1.0000
  H   H2006     1.0  0.92521  0.58939  0.83657  1.0000
  H   H2007     1.0  0.97083  0.67588  0.89716  1.0000
  H   H2008     1.0  0.76627  0.67937  0.55193  1.0000
  C   C1130     1.0  0.94389  0.72352  0.90684  1.0000
  H   H2009     1.0  0.74030  0.80371  0.95019  1.0000
  C   C1131     1.0  0.74161  0.83815  0.90166  1.0000
  H   H2010     1.0  0.67876  0.87587  0.84212  1.0000
  C   C1132     1.0  0.73324  0.80023  0.90384  1.0000
  H   H2011     1.0  0.67921  0.93599  0.93506  1.0000
  C   C1133     1.0  0.96841  0.67896  0.84109  1.0000
  H   H2012     1.0  0.72490  0.82238  0.85452  1.0000
  H   H2013     1.0  0.82458  0.53243  0.72941  1.0000
  C   C1134     1.0  0.85894  0.54858  0.93569  1.0000
  H   H2014     1.0  0.89564  0.78726  0.96678  1.0000
  C   C1135     1.0  0.85641  0.49502  0.76493  1.0000
  S   S254      1.0  0.65683  0.87037  0.94498  1.0000
  H   H2015     1.0  0.74884  0.83814  0.92340  1.0000
  H   H2016     1.0  0.80511  0.50816  0.56699  1.0000
  C   C1136     1.0  0.92773  0.76052  0.91610  1.0000
  H   H2017     1.0  0.82466  0.79798  0.95838  1.0000
  H   H2018     1.0  0.97582  0.56610  0.81142  1.0000
  H   H2019     1.0  0.67995  0.81429  0.88118  1.0000
  C   C1137     1.0  0.65813  0.67212  0.49929  1.0000
  H   H2020     1.0  0.77658  0.51196  0.57309  1.0000
  C   C1138     1.0  0.67329  0.81589  0.95176  1.0000
  C   C1139     1.0  0.92464  0.60528  0.84709  1.0000
  H   H2021     1.0  0.97554  0.53802  0.82178  1.0000
  H   H2022     1.0  0.95002  0.73194  0.88717  1.0000
  C   C1140     1.0  0.73602  0.86186  0.89413  1.0000
  C   C1141     1.0  0.95062  0.69583  0.94339  1.0000
  H   H2023     1.0  0.70620  0.84134  0.86907  1.0000
  C   C1142     1.0  0.88324  0.79890  0.97432  1.0000
  H   H2024     1.0  0.82866  0.54752  0.48530  1.0000
  C   C1143     1.0  0.67680  0.65887  0.49666  1.0000
  C   C1144     1.0  0.98116  0.71527  0.92017  1.0000
  S   S255      1.0  0.78656  0.57492  0.49906  1.0000
  H   H2025     1.0  0.75788  0.87571  0.92493  1.0000
  H   H2026     1.0  0.75960  0.76511  0.91758  1.0000
  H   H2027     1.0  0.67995  0.83038  0.83226  1.0000
  H   H2028     1.0  0.67200  0.96897  0.94701  1.0000
  H   H2029     1.0  0.98360  0.72953  0.90577  1.0000
  C   C1145     1.0  0.74761  0.79658  0.93060  1.0000
  H   H2030     1.0  0.85616  0.53719  0.91800  1.0000
  C   C1146     1.0  0.96789  0.53200  0.71387  1.0000
  H   H2031     1.0  0.96790  0.56511  0.69591  1.0000
  H   H2032     1.0  0.80039  0.66907  0.57408  1.0000
  C   C1147     1.0  0.69350  0.81014  0.86646  1.0000
  H   H2033     1.0  0.79175  0.49880  0.67923  1.0000
  H   H2034     1.0  0.70365  0.79937  0.95384  1.0000
  H   H2035     1.0  0.96567  0.53332  0.77042  1.0000
  H   H2036     1.0  0.77444  0.53245  0.61701  1.0000
  H   H2037     1.0  0.97672  0.48986  0.71443  1.0000
  H   H2038     1.0  0.97242  0.55938  0.75780  1.0000
  C   C1148     1.0  0.97915  0.54301  0.76132  1.0000
  H   H2039     1.0  0.97668  0.70887  0.86062  1.0000
  H   H2040     1.0  0.66176  0.97231  0.89227  1.0000
  H   H2041     1.0  0.66248  0.82331  0.93550  1.0000
  C   C1149     1.0  0.98729  0.60294  0.76214  1.0000
  H   H2042     1.0  0.69592  0.77765  0.49525  1.0000
  H   H2043     1.0  0.67644  0.82775  0.96863  1.0000
  C   C1150     1.0  0.98583  0.55130  0.81373  1.0000
  H   H2044     1.0  0.76287  0.77090  0.95511  1.0000
  Fe  Fe127     1.0  0.75250  0.57073  0.48552  1.0000
  Fe  Fe128     1.0  0.74257  0.62044  0.48820  1.0000
  H   H2045     1.0  0.93674  0.65971  0.97491  1.0000
  C   C1151     1.0  0.65867  0.69447  0.49368  1.0000
  N   N64       1.0  0.98701  0.53354  0.73333  1.0000
  S   S256      1.0  0.76231  0.84552  0.98088  1.0000
  H   H2046     1.0  0.98347  0.67055  0.84745  1.0000
  H   H2047     1.0  0.83043  0.50576  0.65960  1.0000
  C   C1152     1.0  0.80687  0.49468  0.69041  1.0000
  H   H2048     1.0  0.67581  0.64184  0.50121  1.0000
