data_image0
_chemical_formula_structural       CSHC2SHFeHFeS2H3C2SFeS2H2CH3FeS2CHC2HC6H6C3H2CH4C3H4CH4C6H2SHCH8CH4C2NHC2H2C2H3CH2NC5HC4HCH11FeH5CFeH3SH3CSH5C2HSCFe2HCH4CH6CH3NCH3C2H2CFeC2HFeS4H4FeS2C6H4C3HCHCH2C3HCH4C3HC2HCFeC2H5CH2C2H3C2NSH2CH2CHCH9CH2C2H6NH2SH2CH4CH3CHFeH5CHCHCH2CHSH3CH9FeH2C2HNC6H4CS2H4CH2C2H2C2HCH4C2H3SH5CSC2HCS2HFeS2FeS2FeSFeS3HSCFeSC3H2CH2CH2C6H4C6H4SH2C6H6C3H2C2H3CHCH5CH6CH6NCSH5CH3CH3CNH2CH2C3H3CH4CH2CH2NCH2NHCH2CH3C4HFeHCH3CH4CHCHCH2CHCH6FeHC4HC2H3SH5SH5SH4CH3C2H2CH2C4H2SHCHCH5CH5CH3C2SH5FeSHCSH2FeSFeS2FeS2FeSFeS3CSC6H4C6H4C2HCH3C7H5C2H3FeSCHC3HSH4CH3CHCH2NC12H22CH2C2HNC7H2CHCH9CH4CH2CH5C2H6SCHCNHCH6FeCH3CHNC9H16C2H4NCFe2H2C5H6CH3FeC2HSCH2CSC2H4SH11SCH3CSH2SC2HS2H4CFeS2FeS2C2H2SC8H4C4HCHSHC2NHFeHCHCH2CHCH3CHCH2C2H2SHC2H2FeH3CH2CHCH2C2H3CH2CSC2H4CH6CH2CH3CH4CH3CH3CFeNHFeCFeCH4CH7CH3CHSC2SH2CH2CH5CFeCH2CSHCHCSCHNHSH4CHNCH4C3H7C2H2CHC3H4SHSCH2CH7FeS2CHNSH2FeS2C6H8C3H5FeH2FeH3NHCH2C2HCH2NC8S2C2H15C2HCH5CFeH4CHCH2CH2NCSC2SHCH4SHC3HFeHC2HCH5CH2SHCH4CH2CSH2SCHFeHSFeCSC2HCHFeS2CS2CHC6H6CHCHSHCHCH5C3H4C2H2SHCH2CH2C2SHC2H2NSHSH4FeH7SC2H6NC5NCHFeCH5CH5FeH2C2HSH2C2H4CHCH6C3HCH3CH3C3H2CH4CH3CFeC4H4FeH2CH3C2SH3SHC2SH6FeS2H3NCHFeS2C6H7CNHFeHC7H8CH4CNSCHFeH11CH5FeH4C2HCHSC3HCH2SCHC2HNCHCHC2H2C3HC2SCH2CH2CHSH5C2HC2H6C4NHC4HC3H5C2H5CH3FeH4CHSH3CH2C3H3C2H4CH3SHCFeCH5C3SH2FeS2FeS2FeSFeS3FeS2FeSH3C3H2C6H4C6H13C6H8SCH6C2NCHC8H9CH6CH6NHNCH3C3HC2HCH6CH7C2H2CHCHCH2C2H6CH5C2HC2H8CH3FeH3CH5CH3NC10HCH3CH7CH2CHCHNHSHSCH2CH2CH2CH3CH3FeH4CH2C4FeS2FeS2CH2FeS2FeS2FeSFeS3H2FeSH2FeSC6H4C6H6FeSCHC3H2CNFeC2H2C6H7CHC3SH2CH3CH2C3H3CH3FeH2SH4CH5CHCH3FeC6H16CHCH2CSCHFeH5CHSCHC2SCHNC12H20CH7NC2HC2HC4H9NCSHS3H3CHCH3C2HCSH6CH2CH3FeHC3H6SH2FeSHS2HCH4FeS2H5C6H5CH4C4HCH2NHCH2FeH5C2H8CH2FeH2C2H5NC2HNHNHC4HC3SH2CH10SH3SC2H4C2HCHSC2HC2H2CH4CHCH2C2H4C3H3CH4NHC2H3CH3CH7FeCHC3H3CH2CSC2H3CHCHC2HC2H3C2HC2H2CH2CSC2H2C2HCH3FeHSCHCH7SCHCS2HSCFeS2FeS2C6H5CH2CH2CH3SHC2HCH3CH2CHCH3CH3SH3C2H2CHCHCH3CHCH7CH6CHCH2C3H2CHFeHCH3C2NH6CH2CHSN2C4HCH2CH5CFeH5CHCHC2SH5CHCSCH3CH6CH2CH4SHCFeH2CHCH2FeSCH2CHCSC2HFeC2HC
_chemical_formula_sum              "C864 S192 H1536 Fe96 N48"
_cell_length_a       55.9579
_cell_length_b       56.0335
_cell_length_c       34.3355
_cell_angle_alpha    91.3198
_cell_angle_beta     87.5582
_cell_angle_gamma    89.0245

_space_group_name_H-M_alt    "P 1"
_space_group_IT_number       1

loop_
  _space_group_symop_operation_xyz
  'x, y, z'

loop_
  _atom_site_type_symbol
  _atom_site_label
  _atom_site_symmetry_multiplicity
  _atom_site_fract_x
  _atom_site_fract_y
  _atom_site_fract_z
  _atom_site_occupancy
  C   C1        1.0  0.44443  0.16551  0.11132  1.0000
  S   S1        1.0  0.35974  0.00035  0.10506  1.0000
  H   H1        1.0  0.04091  0.09015  0.35420  1.0000
  C   C2        1.0  0.42734  0.15803  0.14459  1.0000
  C   C3        1.0  0.01179  0.11102  0.33038  1.0000
  S   S2        1.0  0.17427  0.01825  0.45146  1.0000
  H   H2        1.0  0.05664  0.29064  0.29906  1.0000
  Fe  Fe1       1.0  0.13493  0.01221  0.46643  1.0000
  H   H3        1.0  0.04372  0.30070  0.34596  1.0000
  Fe  Fe2       1.0  0.00934  0.14913  0.46233  1.0000
  S   S3        1.0  0.04286  0.12867  0.43700  1.0000
  S   S4        1.0  0.00885  0.18949  0.46127  1.0000
  H   H4        1.0  0.04781  0.31832  0.25908  1.0000
  H   H5        1.0  0.09338  0.31714  0.31595  1.0000
  H   H6        1.0  0.42792  0.99764  0.23223  1.0000
  C   C4        1.0  0.06065  0.29782  0.32837  1.0000
  C   C5        1.0  0.25798  0.99796  0.31484  1.0000
  S   S5        1.0  0.46627  0.21083  0.18936  1.0000
  Fe  Fe3       1.0  0.46560  0.13082  0.25312  1.0000
  S   S6        1.0  0.43923  0.10076  0.26035  1.0000
  S   S7        1.0  0.45923  0.16786  0.27878  1.0000
  H   H7        1.0  0.33449  0.22371  0.18213  1.0000
  H   H8        1.0  0.01030  0.24396  0.43241  1.0000
  C   C6        1.0  0.04946  0.16730  0.21673  1.0000
  H   H9        1.0  0.14454  0.09524  0.42708  1.0000
  H   H10       1.0  0.09439  0.30834  0.18076  1.0000
  H   H11       1.0  0.06470  0.15443  0.21838  1.0000
  Fe  Fe4       1.0  0.34639  0.03020  0.14531  1.0000
  S   S8        1.0  0.36545  0.06537  0.13691  1.0000
  S   S9        1.0  0.30731  0.02279  0.13742  1.0000
  C   C7        1.0  0.48586  0.07689  0.16880  1.0000
  H   H12       1.0  0.03535  0.15918  0.19916  1.0000
  C   C8        1.0  0.02103  0.09098  0.35559  1.0000
  C   C9        1.0  0.47138  0.15762  0.42962  1.0000
  H   H13       1.0  0.45920  0.15506  0.40631  1.0000
  C   C10       1.0  0.41880  0.09158  0.22554  1.0000
  C   C11       1.0  0.40068  0.07585  0.23684  1.0000
  C   C12       1.0  0.38462  0.06724  0.20970  1.0000
  C   C13       1.0  0.38641  0.07448  0.17103  1.0000
  C   C14       1.0  0.40469  0.09007  0.15960  1.0000
  C   C15       1.0  0.42090  0.09855  0.18675  1.0000
  H   H14       1.0  0.39894  0.07043  0.26684  1.0000
  H   H15       1.0  0.37047  0.05546  0.21894  1.0000
  H   H16       1.0  0.40630  0.09556  0.12961  1.0000
  H   H17       1.0  0.43520  0.11014  0.17765  1.0000
  H   H18       1.0  0.00943  0.22811  0.36703  1.0000
  H   H19       1.0  0.39888  0.02733  0.28831  1.0000
  C   C16       1.0  0.05945  0.10312  0.45194  1.0000
  C   C17       1.0  0.07841  0.09388  0.42736  1.0000
  C   C18       1.0  0.09223  0.07384  0.43795  1.0000
  H   H20       1.0  0.08246  0.10228  0.39988  1.0000
  H   H21       1.0  0.10665  0.06700  0.41866  1.0000
  C   C19       1.0  0.46216  0.04411  0.20109  1.0000
  H   H22       1.0  0.23527  0.99835  0.36778  1.0000
  H   H23       1.0  0.05596  0.18345  0.20171  1.0000
  H   H24       1.0  0.41088  0.14129  0.29230  1.0000
  H   H25       1.0  0.07924  0.28452  0.37840  1.0000
  C   C20       1.0  0.08739  0.06281  0.47354  1.0000
  C   C21       1.0  0.16070  0.09374  0.44464  1.0000
  C   C22       1.0  0.44985  0.00691  0.16592  1.0000
  H   H26       1.0  0.06414  0.26208  0.35077  1.0000
  H   H27       1.0  0.02583  0.25350  0.31411  1.0000
  H   H28       1.0  0.04025  0.13319  0.34914  1.0000
  H   H29       1.0  0.44490  0.15010  0.47526  1.0000
  C   C23       1.0  0.46265  0.24325  0.12984  1.0000
  H   H30       1.0  0.45735  0.15070  0.10371  1.0000
  H   H31       1.0  0.44502  0.24711  0.14280  1.0000
  H   H32       1.0  0.45914  0.26923  0.08432  1.0000
  H   H33       1.0  0.35724  0.24127  0.20484  1.0000
  C   C24       1.0  0.02395  0.17878  0.33967  1.0000
  C   C25       1.0  0.47733  0.22593  0.14676  1.0000
  C   C26       1.0  0.46331  0.15480  0.46891  1.0000
  C   C27       1.0  0.03084  0.15200  0.28008  1.0000
  C   C28       1.0  0.03943  0.17429  0.25757  1.0000
  C   C29       1.0  0.04958  0.17820  0.35534  1.0000
  H   H34       1.0  0.41725  0.02669  0.33015  1.0000
  H   H35       1.0  0.38384  0.15017  0.31930  1.0000
  S   S10       1.0  0.28798  0.99787  0.24835  1.0000
  H   H36       1.0  0.01874  0.31842  0.30920  1.0000
  C   C30       1.0  0.05787  0.20318  0.36656  1.0000
  H   H37       1.0  0.47046  0.08395  0.15296  1.0000
  H   H38       1.0  0.01140  0.18256  0.36531  1.0000
  H   H39       1.0  0.02232  0.19464  0.32129  1.0000
  H   H40       1.0  0.41326  0.99966  0.30177  1.0000
  H   H41       1.0  0.45300  0.01672  0.28765  1.0000
  H   H42       1.0  0.41776  0.14215  0.13413  1.0000
  H   H43       1.0  0.09176  0.27402  0.33139  1.0000
  H   H44       1.0  0.04737  0.14126  0.28484  1.0000
  C   C31       1.0  0.47063  0.25590  0.09657  1.0000
  H   H45       1.0  0.05390  0.18325  0.27311  1.0000
  H   H46       1.0  0.01235  0.13946  0.37386  1.0000
  H   H47       1.0  0.04986  0.16738  0.38201  1.0000
  H   H48       1.0  0.06273  0.17010  0.33363  1.0000
  C   C32       1.0  0.15425  0.08142  0.48281  1.0000
  C   C33       1.0  0.00679  0.25066  0.31692  1.0000
  N   N1        1.0  0.01666  0.15646  0.31812  1.0000
  H   H49       1.0  0.43843  0.15299  0.16911  1.0000
  C   C34       1.0  0.07491  0.27850  0.34850  1.0000
  C   C35       1.0  0.47645  0.00435  0.22211  1.0000
  H   H50       1.0  0.34377  0.00922  0.00472  1.0000
  H   H51       1.0  0.40496  0.17250  0.30455  1.0000
  C   C36       1.0  0.23608  0.99532  0.33652  1.0000
  C   C37       1.0  0.25959  0.99437  0.27397  1.0000
  H   H52       1.0  0.04600  0.21105  0.39043  1.0000
  H   H53       1.0  0.07632  0.20203  0.37716  1.0000
  H   H54       1.0  0.05790  0.21499  0.34102  1.0000
  C   C38       1.0  0.00703  0.25602  0.45822  1.0000
  H   H55       1.0  0.45470  0.18138  0.12015  1.0000
  H   H56       1.0  0.09276  0.30940  0.25207  1.0000
  N   N2        1.0  0.38987  0.17244  0.18665  1.0000
  C   C39       1.0  0.40969  0.17860  0.15750  1.0000
  C   C40       1.0  0.37432  0.19432  0.19698  1.0000
  C   C41       1.0  0.40139  0.16464  0.22345  1.0000
  C   C42       1.0  0.37492  0.15214  0.17234  1.0000
  C   C43       1.0  0.36372  0.15516  0.13231  1.0000
  H   H57       1.0  0.01468  0.09390  0.38649  1.0000
  C   C44       1.0  0.38380  0.15819  0.25777  1.0000
  C   C45       1.0  0.37118  0.21305  0.16484  1.0000
  C   C46       1.0  0.35226  0.23198  0.17748  1.0000
  C   C47       1.0  0.35184  0.13214  0.11919  1.0000
  H   H58       1.0  0.02037  0.14078  0.26000  1.0000
  C   C48       1.0  0.39676  0.15541  0.29570  1.0000
  H   H59       1.0  0.42043  0.19339  0.16960  1.0000
  H   H60       1.0  0.40248  0.18566  0.13042  1.0000
  H   H61       1.0  0.35614  0.18893  0.20755  1.0000
  H   H62       1.0  0.38174  0.20460  0.22181  1.0000
  H   H63       1.0  0.41358  0.17879  0.23383  1.0000
  H   H64       1.0  0.41288  0.14843  0.21790  1.0000
  H   H65       1.0  0.38543  0.13514  0.17154  1.0000
  H   H66       1.0  0.35970  0.14895  0.19339  1.0000
  H   H67       1.0  0.37727  0.15955  0.10925  1.0000
  H   H68       1.0  0.34963  0.16934  0.13452  1.0000
  H   H69       1.0  0.41093  0.01637  0.09031  1.0000
  Fe  Fe5       1.0  0.32113  0.99131  0.09970  1.0000
  H   H70       1.0  0.37519  0.14091  0.25128  1.0000
  H   H71       1.0  0.36958  0.17201  0.26324  1.0000
  H   H72       1.0  0.38831  0.22243  0.15921  1.0000
  H   H73       1.0  0.36583  0.20478  0.13704  1.0000
  H   H74       1.0  0.35089  0.24545  0.15441  1.0000
  C   C49       1.0  0.02080  0.13567  0.34445  1.0000
  Fe  Fe6       1.0  0.48107  0.17998  0.22554  1.0000
  H   H75       1.0  0.34297  0.13495  0.09129  1.0000
  H   H76       1.0  0.36540  0.11754  0.11442  1.0000
  H   H77       1.0  0.33813  0.12650  0.14133  1.0000
  S   S11       1.0  0.34783  0.00853  0.19887  1.0000
  H   H78       1.0  0.41155  0.01678  0.16183  1.0000
  H   H79       1.0  0.16734  0.11199  0.45051  1.0000
  H   H80       1.0  0.46637  0.05194  0.23001  1.0000
  C   C50       1.0  0.07782  0.31506  0.19660  1.0000
  S   S12       1.0  0.48512  0.14289  0.19871  1.0000
  H   H81       1.0  0.43440  0.16975  0.08505  1.0000
  H   H82       1.0  0.43179  0.03805  0.14048  1.0000
  H   H83       1.0  0.27377  0.00304  0.32988  1.0000
  H   H84       1.0  0.01780  0.10704  0.29968  1.0000
  H   H85       1.0  0.48628  0.08621  0.19769  1.0000
  C   C51       1.0  0.43728  0.02516  0.27459  1.0000
  C   C52       1.0  0.08376  0.32422  0.23725  1.0000
  H   H86       1.0  0.01196  0.27440  0.45001  1.0000
  S   S13       1.0  0.00465  0.27857  0.25167  1.0000
  C   C53       1.0  0.42571  0.00716  0.10489  1.0000
  Fe  Fe7       1.0  0.30961  0.99826  0.18897  1.0000
  Fe  Fe8       1.0  0.49182  0.29683  0.99749  1.0000
  H   H87       1.0  0.48224  0.04174  0.14421  1.0000
  C   C54       1.0  0.99755  0.23609  0.34692  1.0000
  H   H88       1.0  0.44230  0.00862  0.08622  1.0000
  H   H89       1.0  0.02499  0.18773  0.25441  1.0000
  H   H90       1.0  0.44636  0.05455  0.19224  1.0000
  H   H91       1.0  0.47418  0.22368  0.99144  1.0000
  C   C55       1.0  0.42876  0.01880  0.14502  1.0000
  H   H92       1.0  0.01858  0.24987  0.48171  1.0000
  H   H93       1.0  0.01431  0.07356  0.34509  1.0000
  H   H94       1.0  0.46533  0.00664  0.14475  1.0000
  H   H95       1.0  0.34500  0.00021  0.28523  1.0000
  H   H96       1.0  0.48356  0.08435  0.33664  1.0000
  H   H97       1.0  0.06492  0.30022  0.19851  1.0000
  C   C56       1.0  0.43428  0.01644  0.23178  1.0000
  H   H98       1.0  0.48564  0.01597  0.24340  1.0000
  H   H99       1.0  0.49074  0.05916  0.36628  1.0000
  H   H100      1.0  0.36862  0.99741  0.31876  1.0000
  N   N3        1.0  0.45612  0.01810  0.20458  1.0000
  C   C57       1.0  0.48379  0.04994  0.17364  1.0000
  H   H101      1.0  0.41916  0.02728  0.22118  1.0000
  H   H102      1.0  0.43931  0.04483  0.27609  1.0000
  H   H103      1.0  0.17459  0.08317  0.42737  1.0000
  C   C58       1.0  0.41527  0.01931  0.30018  1.0000
  C   C59       1.0  0.07465  0.32139  0.32638  1.0000
  H   H104      1.0  0.14718  0.06366  0.47499  1.0000
  H   H105      1.0  0.31544  0.08332  0.98884  1.0000
  C   C60       1.0  0.05454  0.09199  0.48739  1.0000
  Fe  Fe9       1.0  0.47674  0.29821  0.91244  1.0000
  C   C61       1.0  0.47311  0.21939  0.77938  1.0000
  C   C62       1.0  0.21820  0.06917  0.55746  1.0000
  H   H106      1.0  0.44200  0.03889  0.58464  1.0000
  Fe  Fe10      1.0  0.46581  0.12754  0.68970  1.0000
  S   S14       1.0  0.46075  0.16427  0.66558  1.0000
  S   S15       1.0  0.43975  0.10909  0.73105  1.0000
  S   S16       1.0  0.46465  0.27067  0.86632  1.0000
  S   S17       1.0  0.46697  0.15535  0.54921  1.0000
  H   H107      1.0  0.46256  0.20497  0.76819  1.0000
  H   H108      1.0  0.44665  0.24870  0.64847  1.0000
  H   H109      1.0  0.12974  0.09505  0.57851  1.0000
  H   H110      1.0  0.32193  0.05271  0.82552  1.0000
  Fe  Fe11      1.0  0.34157  0.01177  0.71681  1.0000
  S   S18       1.0  0.36543  0.03250  0.67530  1.0000
  S   S19       1.0  0.31031  0.02563  0.75455  1.0000
  C   C63       1.0  0.38617  0.05349  0.69145  1.0000
  C   C64       1.0  0.38786  0.05939  0.73098  1.0000
  C   C65       1.0  0.40456  0.07631  0.74272  1.0000
  C   C66       1.0  0.41964  0.08740  0.71507  1.0000
  C   C67       1.0  0.41819  0.08120  0.67559  1.0000
  C   C68       1.0  0.40143  0.06436  0.66385  1.0000
  H   H111      1.0  0.37615  0.05114  0.75240  1.0000
  H   H112      1.0  0.40563  0.08107  0.77331  1.0000
  H   H113      1.0  0.42965  0.08972  0.65409  1.0000
  H   H114      1.0  0.40006  0.05999  0.63319  1.0000
  C   C69       1.0  0.14542  0.04276  0.59259  1.0000
  C   C70       1.0  0.46757  0.26989  0.70582  1.0000
  C   C71       1.0  0.42734  0.00457  0.63695  1.0000
  H   H115      1.0  0.06453  0.06379  0.52574  1.0000
  C   C72       1.0  0.43336  0.00773  0.72467  1.0000
  H   H116      1.0  0.04012  0.09883  0.50672  1.0000
  C   C73       1.0  0.33829  0.00808  0.94250  1.0000
  H   H117      1.0  0.21824  0.08405  0.57933  1.0000
  H   H118      1.0  0.41223  0.02985  0.57271  1.0000
  C   C74       1.0  0.46516  0.24132  0.64736  1.0000
  C   C75       1.0  0.41928  0.19619  0.57678  1.0000
  C   C76       1.0  0.99477  0.23312  0.77957  1.0000
  H   H119      1.0  0.47868  0.06441  0.67230  1.0000
  C   C77       1.0  0.43488  0.00110  0.59337  1.0000
  H   H120      1.0  0.25986  0.09573  0.89514  1.0000
  H   H121      1.0  0.42371  0.22487  0.61766  1.0000
  H   H122      1.0  0.47462  0.21949  0.90182  1.0000
  H   H123      1.0  0.39968  0.19956  0.57646  1.0000
  C   C78       1.0  0.43143  0.02435  0.57161  1.0000
  C   C79       1.0  0.32426  0.99972  0.91210  1.0000
  C   C80       1.0  0.24194  0.99656  0.65783  1.0000
  H   H124      1.0  0.27700  0.99227  0.63014  1.0000
  C   C81       1.0  0.47733  0.25291  0.82625  1.0000
  C   C82       1.0  0.25800  0.99328  0.62566  1.0000
  H   H125      1.0  0.15401  0.03833  0.53087  1.0000
  C   C83       1.0  0.12076  0.03138  0.59422  1.0000
  Fe  Fe12      1.0  0.48101  0.14976  0.61089  1.0000
  C   C84       1.0  0.32157  0.07066  0.83958  1.0000
  C   C85       1.0  0.23924  0.05257  0.56562  1.0000
  H   H126      1.0  0.15952  0.13743  0.60561  1.0000
  H   H127      1.0  0.15879  0.02859  0.59859  1.0000
  H   H128      1.0  0.00344  0.24675  0.72188  1.0000
  H   H129      1.0  0.02217  0.26164  0.91271  1.0000
  H   H130      1.0  0.39990  0.99866  0.70104  1.0000
  C   C86       1.0  0.25407  0.02616  0.86235  1.0000
  H   H131      1.0  0.32864  0.08770  0.78381  1.0000
  H   H132      1.0  0.46413  0.22482  0.66497  1.0000
  C   C87       1.0  0.48095  0.25912  0.66967  1.0000
  C   C88       1.0  0.33634  0.08687  0.81307  1.0000
  H   H133      1.0  0.25612  0.06271  0.56473  1.0000
  H   H134      1.0  0.47995  0.28080  0.72300  1.0000
  H   H135      1.0  0.23635  0.03537  0.86312  1.0000
  C   C89       1.0  0.14588  0.10614  0.57527  1.0000
  C   C90       1.0  0.31095  0.06845  0.96865  1.0000
  N   N4        1.0  0.47376  0.23507  0.60604  1.0000
  S   S20       1.0  0.00116  0.31585  0.78484  1.0000
  H   H136      1.0  0.45645  0.28587  0.61433  1.0000
  H   H137      1.0  0.25774  0.02044  0.89222  1.0000
  C   C91       1.0  0.47308  0.25611  0.57926  1.0000
  H   H138      1.0  0.32790  0.05947  0.95788  1.0000
  H   H139      1.0  0.11963  0.01732  0.57113  1.0000
  C   C92       1.0  0.21726  0.99791  0.65097  1.0000
  H   H140      1.0  0.01889  0.25870  0.60275  1.0000
  C   C93       1.0  0.46401  0.23395  0.81106  1.0000
  H   H141      1.0  0.13959  0.09185  0.49807  1.0000
  H   H142      1.0  0.43730  0.24605  0.98335  1.0000
  H   H143      1.0  0.44648  0.23045  0.82395  1.0000
  H   H144      1.0  0.20766  0.10367  0.83178  1.0000
  H   H145      1.0  0.25138  0.09842  0.82531  1.0000
  H   H146      1.0  0.23717  0.99263  0.84820  1.0000
  H   H147      1.0  0.48710  0.27386  0.65098  1.0000
  H   H148      1.0  0.47194  0.24970  0.54843  1.0000
  H   H149      1.0  0.44042  0.24304  0.93101  1.0000
  C   C94       1.0  0.43183  0.21904  0.58896  1.0000
  H   H150      1.0  0.18828  0.06520  0.49089  1.0000
  H   H151      1.0  0.26966  0.04700  0.81549  1.0000
  C   C95       1.0  0.45918  0.21479  0.59044  1.0000
  C   C96       1.0  0.14404  0.12529  0.60775  1.0000
  H   H152      1.0  0.00329  0.27659  0.94998  1.0000
  H   H153      1.0  0.43519  0.21700  0.96031  1.0000
  H   H154      1.0  0.30923  0.09082  0.91909  1.0000
  H   H155      1.0  0.14541  0.05646  0.61634  1.0000
  H   H156      1.0  0.17097  0.08542  0.60801  1.0000
  H   H157      1.0  0.19603  0.03927  0.54159  1.0000
  N   N5        1.0  0.17224  0.07000  0.54947  1.0000
  H   H158      1.0  0.28855  0.08294  0.81654  1.0000
  H   H159      1.0  0.35357  0.01904  0.93565  1.0000
  S   S21       1.0  0.33197  0.00809  0.86316  1.0000
  H   H160      1.0  0.01201  0.23954  0.79028  1.0000
  H   H161      1.0  0.44663  0.28286  0.52692  1.0000
  C   C97       1.0  0.06847  0.07209  0.49812  1.0000
  H   H162      1.0  0.46227  0.19855  0.60764  1.0000
  H   H163      1.0  0.18407  0.10386  0.57254  1.0000
  H   H164      1.0  0.18642  0.09528  0.50769  1.0000
  H   H165      1.0  0.43248  0.02569  0.71173  1.0000
  C   C98       1.0  0.17647  0.07824  0.50798  1.0000
  H   H166      1.0  0.24910  0.00797  0.80627  1.0000
  H   H167      1.0  0.12737  0.13609  0.60510  1.0000
  H   H168      1.0  0.20460  0.00036  0.67547  1.0000
  C   C99       1.0  0.15115  0.05356  0.55208  1.0000
  H   H169      1.0  0.45247  0.28149  0.69732  1.0000
  Fe  Fe13      1.0  0.32257  0.99939  0.79950  1.0000
  H   H170      1.0  0.01295  0.21633  0.72857  1.0000
  H   H171      1.0  0.43974  0.01796  0.64876  1.0000
  H   H172      1.0  0.29623  0.09857  0.85937  1.0000
  H   H173      1.0  0.30522  0.04544  0.90112  1.0000
  H   H174      1.0  0.24416  0.06879  0.90013  1.0000
  C   C100      1.0  0.19409  0.05579  0.56030  1.0000
  H   H175      1.0  0.33707  0.10517  0.82605  1.0000
  C   C101      1.0  0.47873  0.15797  0.50001  1.0000
  H   H176      1.0  0.20645  0.08644  0.87547  1.0000
  C   C102      1.0  0.45289  0.27517  0.58769  1.0000
  H   H177      1.0  0.45235  0.00185  0.72463  1.0000
  H   H178      1.0  0.23686  0.04471  0.59493  1.0000
  C   C103      1.0  0.22489  0.99270  0.58058  1.0000
  H   H179      1.0  0.48003  0.24841  0.95990  1.0000
  S   S22       1.0  0.45597  0.29639  0.97038  1.0000
  H   H180      1.0  0.33073  0.06948  0.86752  1.0000
  H   H181      1.0  0.40948  0.01362  0.63894  1.0000
  H   H182      1.0  0.23659  0.07019  0.82590  1.0000
  C   C104      1.0  0.21774  0.09852  0.85757  1.0000
  H   H183      1.0  0.27680  0.04689  0.92500  1.0000
  H   H184      1.0  0.43488  0.02411  0.78239  1.0000
  H   H185      1.0  0.46865  0.30159  0.54907  1.0000
  H   H186      1.0  0.19220  0.04957  0.59080  1.0000
  H   H187      1.0  0.14571  0.11555  0.54725  1.0000
  H   H188      1.0  0.42619  0.99321  0.78232  1.0000
  H   H189      1.0  0.28144  0.08825  0.94697  1.0000
  H   H190      1.0  0.22129  0.11495  0.87497  1.0000
  H   H191      1.0  0.35492  0.07959  0.80923  1.0000
  Fe  Fe14      1.0  0.29021  0.99504  0.72757  1.0000
  H   H192      1.0  0.40522  0.01626  0.76900  1.0000
  H   H193      1.0  0.29046  0.03129  0.84242  1.0000
  C   C105      1.0  0.16925  0.09114  0.57742  1.0000
  C   C106      1.0  0.42432  0.01041  0.76720  1.0000
  H   H194      1.0  0.22162  0.07651  0.52806  1.0000
  N   N6        1.0  0.27874  0.06483  0.86969  1.0000
  C   C107      1.0  0.25591  0.07876  0.87942  1.0000
  C   C108      1.0  0.28957  0.05756  0.90724  1.0000
  C   C109      1.0  0.29549  0.08030  0.84609  1.0000
  C   C110      1.0  0.27400  0.04254  0.84586  1.0000
  C   C111      1.0  0.00161  0.25538  0.61673  1.0000
  C   C112      1.0  0.24119  0.08593  0.84406  1.0000
  H   H195      1.0  0.45415  0.99614  0.59024  1.0000
  H   H196      1.0  0.42796  0.23246  0.56675  1.0000
  H   H197      1.0  0.46050  0.25557  0.72472  1.0000
  H   H198      1.0  0.24096  0.03797  0.54318  1.0000
  C   C113      1.0  0.44442  0.23437  0.95883  1.0000
  S   S23       1.0  0.99989  0.21810  0.56284  1.0000
  S   S24       1.0  0.48271  0.11244  0.63389  1.0000
  H   H199      1.0  0.47674  0.06194  0.72442  1.0000
  H   H200      1.0  0.42571  0.19013  0.54705  1.0000
  H   H201      1.0  0.14341  0.11694  0.63681  1.0000
  H   H202      1.0  0.10653  0.04506  0.59017  1.0000
  C   C114      1.0  0.45133  0.29250  0.55412  1.0000
  H   H203      1.0  0.42267  0.18172  0.59756  1.0000
  H   H204      1.0  0.13459  0.06264  0.54313  1.0000
  C   C115      1.0  0.20877  0.99590  0.61273  1.0000
  C   C116      1.0  0.48934  0.06203  0.69851  1.0000
  H   H205      1.0  0.46520  0.20978  0.55998  1.0000
  H   H206      1.0  0.48390  0.18730  0.86057  1.0000
  C   C117      1.0  0.33276  0.00257  0.98183  1.0000
  C   C118      1.0  0.29735  0.07819  0.93455  1.0000
  H   H207      1.0  0.43750  0.02172  0.54057  1.0000
  C   C119      1.0  0.48177  0.21324  0.92972  1.0000
  H   H208      1.0  0.43724  0.30628  0.56133  1.0000
  H   H209      1.0  0.01079  0.29158  0.90546  1.0000
  H   H210      1.0  0.26897  0.99265  0.83815  1.0000
  H   H211      1.0  0.43511  0.26719  0.59243  1.0000
  C   C120      1.0  0.25226  0.00352  0.83706  1.0000
  C   C121      1.0  0.47141  0.23079  0.96202  1.0000
  H   H212      1.0  0.47361  0.19553  0.93504  1.0000
  H   H213      1.0  0.00243  0.24694  0.85110  1.0000
  H   H214      1.0  0.49015  0.26606  0.57972  1.0000
  S   S25       1.0  0.25178  0.99951  0.70681  1.0000
  H   H215      1.0  0.99537  0.27755  0.84373  1.0000
  H   H216      1.0  0.18980  0.99677  0.60818  1.0000
  H   H217      1.0  0.11748  0.02309  0.62297  1.0000
  H   H218      1.0  0.49103  0.02395  0.69053  1.0000
  H   H219      1.0  0.00365  0.28530  0.65763  1.0000
  C   C122      1.0  0.00655  0.27396  0.91799  1.0000
  S   S26       1.0  0.10442  0.03778  0.48931  1.0000
  C   C123      1.0  0.99836  0.22964  0.73540  1.0000
  C   C124      1.0  0.99299  0.27056  0.64791  1.0000
  H   H220      1.0  0.29996  0.05544  0.98520  1.0000
  C   C125      1.0  0.24953  0.99144  0.58748  1.0000
  S   S27       1.0  0.21563  0.99119  0.53119  1.0000
  S   S28       1.0  0.27304  0.47301  0.07160  1.0000
  H   H221      1.0  0.20041  0.56049  0.42008  1.0000
  Fe  Fe15      1.0  0.16558  0.49615  0.24025  1.0000
  S   S29       1.0  0.12795  0.48912  0.22278  1.0000
  S   S30       1.0  0.19244  0.51334  0.19678  1.0000
  Fe  Fe16      1.0  0.15324  0.48373  0.32762  1.0000
  S   S31       1.0  0.11512  0.47508  0.31522  1.0000
  S   S32       1.0  0.17177  0.48401  0.38653  1.0000
  Fe  Fe17      1.0  0.13031  0.45683  0.26025  1.0000
  S   S33       1.0  0.11997  0.42083  0.23537  1.0000
  Fe  Fe18      1.0  0.11564  0.50798  0.27855  1.0000
  S   S34       1.0  0.08598  0.53599  0.28685  1.0000
  S   S35       1.0  0.16875  0.46271  0.27486  1.0000
  S   S36       1.0  0.15291  0.51776  0.29389  1.0000
  H   H222      1.0  0.27681  0.34409  0.11305  1.0000
  S   S37       1.0  0.01083  0.39283  0.23246  1.0000
  C   C126      1.0  0.08568  0.37416  0.34160  1.0000
  Fe  Fe19      1.0  0.01673  0.62167  0.15558  1.0000
  S   S38       1.0  0.04720  0.59451  0.14601  1.0000
  C   C127      1.0  0.35065  0.43463  0.08963  1.0000
  C   C128      1.0  0.16051  0.48356  0.43631  1.0000
  C   C129      1.0  0.13641  0.47971  0.44651  1.0000
  H   H223      1.0  0.10579  0.40362  0.36524  1.0000
  H   H224      1.0  0.00111  0.53298  0.08634  1.0000
  C   C130      1.0  0.01051  0.54273  0.10951  1.0000
  H   H225      1.0  0.08786  0.61296  0.09675  1.0000
  H   H226      1.0  0.12382  0.47716  0.42379  1.0000
  C   C131      1.0  0.17668  0.57243  0.11332  1.0000
  H   H227      1.0  0.25915  0.50489  0.37762  1.0000
  H   H228      1.0  0.04115  0.34992  0.35342  1.0000
  C   C132      1.0  0.08933  0.41480  0.23113  1.0000
  C   C133      1.0  0.07177  0.42815  0.25255  1.0000
  C   C134      1.0  0.04770  0.42143  0.25202  1.0000
  C   C135      1.0  0.04094  0.40167  0.22946  1.0000
  C   C136      1.0  0.05832  0.38901  0.20649  1.0000
  C   C137      1.0  0.08252  0.39536  0.20779  1.0000
  H   H229      1.0  0.07684  0.44318  0.27054  1.0000
  H   H230      1.0  0.03433  0.43140  0.26965  1.0000
  H   H231      1.0  0.05320  0.37406  0.18838  1.0000
  H   H232      1.0  0.09602  0.38507  0.19093  1.0000
  C   C138      1.0  0.07345  0.55084  0.24756  1.0000
  C   C139      1.0  0.07556  0.54155  0.20940  1.0000
  C   C140      1.0  0.06681  0.55477  0.17848  1.0000
  C   C141      1.0  0.05556  0.57715  0.18564  1.0000
  C   C142      1.0  0.05255  0.58592  0.22398  1.0000
  C   C143      1.0  0.06147  0.57280  0.25479  1.0000
  H   H233      1.0  0.08411  0.52429  0.20378  1.0000
  H   H234      1.0  0.06896  0.54774  0.14891  1.0000
  H   H235      1.0  0.04400  0.60315  0.22985  1.0000
  H   H236      1.0  0.05958  0.57998  0.28431  1.0000
  S   S39       1.0  0.33249  0.48188  0.00668  1.0000
  H   H237      1.0  0.20407  0.56220  0.22407  1.0000
  H   H238      1.0  0.41686  0.63265  0.09112  1.0000
  C   C144      1.0  0.24975  0.48446  0.10475  1.0000
  C   C145      1.0  0.24230  0.50846  0.10584  1.0000
  C   C146      1.0  0.22474  0.51682  0.13402  1.0000
  C   C147      1.0  0.21394  0.50134  0.16107  1.0000
  C   C148      1.0  0.22112  0.47726  0.15964  1.0000
  C   C149      1.0  0.23902  0.46898  0.13193  1.0000
  H   H239      1.0  0.25042  0.52068  0.08546  1.0000
  H   H240      1.0  0.21959  0.53548  0.13495  1.0000
  H   H241      1.0  0.21315  0.46507  0.18021  1.0000
  H   H242      1.0  0.24462  0.45041  0.13162  1.0000
  H   H243      1.0  0.18136  0.53482  0.41616  1.0000
  H   H244      1.0  0.14541  0.53940  0.09315  1.0000
  C   C150      1.0  0.06087  0.33294  0.26087  1.0000
  C   C151      1.0  0.28372  0.41472  0.03634  1.0000
  C   C152      1.0  0.19971  0.54077  0.42227  1.0000
  H   H245      1.0  0.30315  0.50331  0.37473  1.0000
  H   H246      1.0  0.23576  0.55710  0.21417  1.0000
  C   C153      1.0  0.25498  0.52647  0.32457  1.0000
  C   C154      1.0  0.12228  0.58333  0.12779  1.0000
  H   H247      1.0  0.11939  0.38994  0.32150  1.0000
  H   H248      1.0  0.11423  0.53690  0.10582  1.0000
  H   H249      1.0  0.22198  0.48337  0.25845  1.0000
  C   C155      1.0  0.23433  0.45457  0.29311  1.0000
  H   H250      1.0  0.24266  0.56539  0.28509  1.0000
  C   C156      1.0  0.23921  0.42364  0.03100  1.0000
  H   H251      1.0  0.13301  0.60057  0.20161  1.0000
  H   H252      1.0  0.27961  0.42165  0.06639  1.0000
  H   H253      1.0  0.01481  0.56082  0.09896  1.0000
  H   H254      1.0  0.36645  0.42245  0.08504  1.0000
  H   H255      1.0  0.14010  0.59925  0.27221  1.0000
  C   C157      1.0  0.23327  0.48114  0.28408  1.0000
  H   H256      1.0  0.99395  0.49851  0.23105  1.0000
  H   H257      1.0  0.21640  0.44822  0.30284  1.0000
  H   H258      1.0  0.24043  0.44417  0.26649  1.0000
  H   H259      1.0  0.24708  0.45121  0.31638  1.0000
  H   H260      1.0  0.22722  0.48764  0.34657  1.0000
  H   H261      1.0  0.31599  0.36736  0.07040  1.0000
  C   C158      1.0  0.10209  0.39551  0.33635  1.0000
  H   H262      1.0  0.01401  0.34301  0.27810  1.0000
  H   H263      1.0  0.02353  0.64668  0.48454  1.0000
  H   H264      1.0  0.20348  0.53591  0.45261  1.0000
  H   H265      1.0  0.11972  0.53981  0.17399  1.0000
  H   H266      1.0  0.20263  0.49431  0.31865  1.0000
  H   H267      1.0  0.19413  0.53242  0.34631  1.0000
  N   N7        1.0  0.06420  0.34099  0.30257  1.0000
  C   C159      1.0  0.17650  0.48676  0.46664  1.0000
  S   S40       1.0  0.49142  0.33723  0.00426  1.0000
  H   H268      1.0  0.17984  0.55281  0.11155  1.0000
  H   H269      1.0  0.11205  0.61807  0.15557  1.0000
  H   H270      1.0  0.29254  0.53386  0.37538  1.0000
  H   H271      1.0  0.00587  0.51216  0.17159  1.0000
  H   H272      1.0  0.28967  0.39726  0.11637  1.0000
  C   C160      1.0  0.12095  0.61101  0.12806  1.0000
  H   H273      1.0  0.22252  0.41737  0.01808  1.0000
  H   H274      1.0  0.13367  0.49776  0.08830  1.0000
  H   H275      1.0  0.35181  0.44910  0.06811  1.0000
  C   C161      1.0  0.28369  0.36033  0.12763  1.0000
  H   H276      1.0  0.00234  0.45506  0.22767  1.0000
  H   H277      1.0  0.26454  0.38500  0.09329  1.0000
  H   H278      1.0  0.34201  0.39577  0.04361  1.0000
  C   C162      1.0  0.13254  0.53309  0.11574  1.0000
  N   N8        1.0  0.30376  0.39631  0.03530  1.0000
  H   H279      1.0  0.16650  0.57813  0.08808  1.0000
  H   H280      1.0  0.21079  0.57771  0.08250  1.0000
  C   C163      1.0  0.08153  0.36143  0.30180  1.0000
  H   H281      1.0  0.03787  0.36954  0.31389  1.0000
  H   H282      1.0  0.10872  0.58072  0.19990  1.0000
  C   C164      1.0  0.12862  0.58140  0.19747  1.0000
  C   C165      1.0  0.32743  0.42094  0.08568  1.0000
  C   C166      1.0  0.26859  0.50825  0.34940  1.0000
  H   H283      1.0  0.44969  0.60376  0.08025  1.0000
  H   H284      1.0  0.99286  0.36584  0.33187  1.0000
  H   H285      1.0  0.19917  0.60379  0.10917  1.0000
  C   C167      1.0  0.20119  0.58405  0.10989  1.0000
  H   H286      1.0  0.12172  0.49857  0.13784  1.0000
  H   H287      1.0  0.25158  0.48683  0.27544  1.0000
  H   H288      1.0  0.00979  0.53997  0.22829  1.0000
  H   H289      1.0  0.17446  0.57092  0.17509  1.0000
  C   C168      1.0  0.21812  0.52857  0.39385  1.0000
  H   H290      1.0  0.09954  0.35536  0.29032  1.0000
  H   H291      1.0  0.20267  0.52836  0.27566  1.0000
  C   C169      1.0  0.12858  0.47877  0.48622  1.0000
  H   H292      1.0  0.06867  0.38098  0.35583  1.0000
  H   H293      1.0  0.40209  0.40478  0.02779  1.0000
  N   N9        1.0  0.13779  0.57221  0.15771  1.0000
  C   C170      1.0  0.21349  0.53519  0.35128  1.0000
  H   H294      1.0  0.26488  0.52639  0.29568  1.0000
  H   H295      1.0  0.33081  0.42233  0.02273  1.0000
  N   N10       1.0  0.22864  0.52237  0.31957  1.0000
  H   H296      1.0  0.13901  0.61870  0.12472  1.0000
  C   C171      1.0  0.13799  0.56811  0.23321  1.0000
  H   H297      1.0  0.21219  0.57920  0.13482  1.0000
  H   H298      1.0  0.13002  0.55015  0.23507  1.0000
  C   C172      1.0  0.41721  0.64724  0.03122  1.0000
  H   H299      1.0  0.22467  0.58614  0.23087  1.0000
  H   H300      1.0  0.32708  0.40732  0.10861  1.0000
  H   H301      1.0  0.11488  0.61433  0.06598  1.0000
  C   C173      1.0  0.28345  0.38142  0.10020  1.0000
  C   C174      1.0  0.04072  0.35036  0.32105  1.0000
  C   C175      1.0  0.22219  0.56663  0.23366  1.0000
  C   C176      1.0  0.13560  0.50600  0.11769  1.0000
  H   H302      1.0  0.35105  0.44289  0.11931  1.0000
  Fe  Fe20      1.0  0.99729  0.35986  0.20163  1.0000
  H   H303      1.0  0.33564  0.61553  0.06443  1.0000
  C   C177      1.0  0.30702  0.38664  0.99387  1.0000
  H   H304      1.0  0.25759  0.54466  0.33733  1.0000
  H   H305      1.0  0.09344  0.40936  0.31883  1.0000
  H   H306      1.0  0.31243  0.43392  0.09119  1.0000
  C   C178      1.0  0.13111  0.58175  0.27123  1.0000
  H   H307      1.0  0.15116  0.53679  0.17005  1.0000
  H   H308      1.0  0.10356  0.57703  0.13203  1.0000
  H   H309      1.0  0.30416  0.51978  0.33023  1.0000
  H   H310      1.0  0.99741  0.58242  0.23907  1.0000
  C   C179      1.0  0.44747  0.61822  0.05905  1.0000
  H   H311      1.0  0.47237  0.38987  0.03024  1.0000
  C   C180      1.0  0.32665  0.40862  0.04497  1.0000
  H   H312      1.0  0.99867  0.34196  0.36527  1.0000
  C   C181      1.0  0.29880  0.37580  0.06217  1.0000
  H   H313      1.0  0.10509  0.63978  0.09600  1.0000
  H   H314      1.0  0.15363  0.50116  0.12781  1.0000
  C   C182      1.0  0.13564  0.54532  0.15627  1.0000
  H   H315      1.0  0.11143  0.58473  0.27416  1.0000
  C   C183      1.0  0.29363  0.51692  0.35786  1.0000
  H   H316      1.0  0.09442  0.36184  0.36166  1.0000
  H   H317      1.0  0.27075  0.49083  0.33351  1.0000
  H   H318      1.0  0.23229  0.52343  0.25647  1.0000
  H   H319      1.0  0.05268  0.34773  0.24468  1.0000
  H   H320      1.0  0.21081  0.56979  0.29366  1.0000
  H   H321      1.0  0.13664  0.57122  0.29644  1.0000
  Fe  Fe21      1.0  0.29228  0.48568  0.01494  1.0000
  H   H322      1.0  0.12797  0.57739  0.09778  1.0000
  C   C184      1.0  0.10631  0.61997  0.09457  1.0000
  C   C185      1.0  0.22482  0.55962  0.27606  1.0000
  C   C186      1.0  0.22238  0.49627  0.31919  1.0000
  C   C187      1.0  0.16361  0.57934  0.15263  1.0000
  H   H323      1.0  0.28920  0.36138  0.04672  1.0000
  C   C188      1.0  0.22168  0.53235  0.28101  1.0000
  C   C189      1.0  0.01753  0.33809  0.30846  1.0000
  H   H324      1.0  0.48775  0.41784  0.03387  1.0000
  H   H325      1.0  0.45271  0.61092  0.02954  1.0000
  H   H326      1.0  0.15768  0.56574  0.23169  1.0000
  S   S41       1.0  0.00050  0.63458  0.21315  1.0000
  H   H327      1.0  0.21708  0.50910  0.39828  1.0000
  H   H328      1.0  0.21618  0.55475  0.35052  1.0000
  H   H329      1.0  0.23599  0.53483  0.40195  1.0000
  H   H330      1.0  0.16543  0.59886  0.15795  1.0000
  H   H331      1.0  0.07539  0.37530  0.28159  1.0000
  S   S42       1.0  0.01635  0.32738  0.17597  1.0000
  H   H332      1.0  0.28946  0.43073  0.02012  1.0000
  H   H333      1.0  0.23638  0.42458  0.06323  1.0000
  H   H334      1.0  0.19521  0.48951  0.45939  1.0000
  H   H335      1.0  0.38093  0.61721  0.01033  1.0000
  H   H336      1.0  0.41024  0.61142  0.05378  1.0000
  S   S43       1.0  0.00365  0.33015  0.06279  1.0000
  H   H337      1.0  0.01092  0.57080  0.28158  1.0000
  H   H338      1.0  0.34562  0.59334  0.02809  1.0000
  H   H339      1.0  0.27207  0.36458  0.15400  1.0000
  H   H340      1.0  0.45954  0.63299  0.06671  1.0000
  C   C190      1.0  0.99594  0.34630  0.33437  1.0000
  H   H341      1.0  0.34539  0.37634  0.98906  1.0000
  H   H342      1.0  0.25525  0.38834  0.02862  1.0000
  H   H343      1.0  0.36324  0.59866  0.06989  1.0000
  C   C191      1.0  0.99517  0.56960  0.26309  1.0000
  C   C192      1.0  0.99332  0.54422  0.24647  1.0000
  H   H344      1.0  0.02757  0.53326  0.11520  1.0000
  H   H345      1.0  0.37124  0.43140  0.00068  1.0000
  C   C193      1.0  0.35163  0.60737  0.04873  1.0000
  H   H346      1.0  0.32630  0.35300  0.00614  1.0000
  H   H347      1.0  0.30213  0.35666  0.13699  1.0000
  C   C194      1.0  0.36550  0.62620  0.02611  1.0000
  C   C195      1.0  0.99470  0.54502  0.14685  1.0000
  C   C196      1.0  0.42145  0.62699  0.06064  1.0000
  C   C197      1.0  0.25994  0.40652  0.01909  1.0000
  H   H348      1.0  0.04974  0.64235  0.45259  1.0000
  H   H349      1.0  0.41889  0.63850  0.00172  1.0000
  S   S44       1.0  0.42787  0.36316  0.99801  1.0000
  H   H350      1.0  0.00472  0.55560  0.16824  1.0000
  C   C198      1.0  0.37365  0.64689  0.05317  1.0000
  H   H351      1.0  0.35365  0.63338  0.00381  1.0000
  C   C199      1.0  0.48741  0.40043  0.01789  1.0000
  H   H352      1.0  0.24293  0.44184  0.02032  1.0000
  H   H353      1.0  0.37795  0.63941  0.08167  1.0000
  H   H354      1.0  0.07011  0.32973  0.17960  1.0000
  H   H355      1.0  0.09650  0.33899  0.23300  1.0000
  H   H356      1.0  0.99285  0.53196  0.27146  1.0000
  C   C200      1.0  0.39583  0.40107  0.99893  1.0000
  H   H357      1.0  0.40807  0.56055  0.00389  1.0000
  H   H358      1.0  0.02329  0.34534  0.98875  1.0000
  H   H359      1.0  0.07607  0.32758  0.35716  1.0000
  H   H360      1.0  0.99230  0.41270  0.10102  1.0000
  H   H361      1.0  0.01608  0.65720  0.41595  1.0000
  C   C201      1.0  0.03720  0.65597  0.46632  1.0000
  H   H362      1.0  0.18119  0.48862  0.52909  1.0000
  H   H363      1.0  0.07050  0.41076  0.61011  1.0000
  H   H364      1.0  0.23984  0.55226  0.65666  1.0000
  C   C202      1.0  0.04553  0.61583  0.83407  1.0000
  C   C203      1.0  0.00893  0.59511  0.96249  1.0000
  S   S45       1.0  0.32673  0.49616  0.91447  1.0000
  H   H365      1.0  0.07862  0.62669  0.86217  1.0000
  H   H366      1.0  0.99408  0.55843  0.78213  1.0000
  H   H367      1.0  0.03307  0.45826  0.55621  1.0000
  H   H368      1.0  0.43216  0.41129  0.85690  1.0000
  H   H369      1.0  0.01914  0.45117  0.62120  1.0000
  Fe  Fe22      1.0  0.28680  0.49866  0.92882  1.0000
  S   S46       1.0  0.25456  0.50847  0.89195  1.0000
  H   H370      1.0  0.23783  0.51458  0.61863  1.0000
  C   C204      1.0  0.42845  0.45820  0.95297  1.0000
  S   S47       1.0  0.36255  0.54062  0.98676  1.0000
  H   H371      1.0  0.29034  0.53757  0.75648  1.0000
  H   H372      1.0  0.48431  0.45184  0.93459  1.0000
  Fe  Fe23      1.0  0.01229  0.35171  0.76204  1.0000
  S   S48       1.0  0.05131  0.35844  0.74575  1.0000
  Fe  Fe24      1.0  0.13918  0.52796  0.69280  1.0000
  S   S49       1.0  0.17064  0.51557  0.65378  1.0000
  S   S50       1.0  0.13011  0.56600  0.71288  1.0000
  Fe  Fe25      1.0  0.12399  0.47716  0.71083  1.0000
  S   S51       1.0  0.15401  0.46060  0.67321  1.0000
  S   S52       1.0  0.09414  0.46263  0.74996  1.0000
  Fe  Fe26      1.0  0.17699  0.48879  0.70102  1.0000
  S   S53       1.0  0.21359  0.48012  0.72583  1.0000
  Fe  Fe27      1.0  0.14548  0.48847  0.62859  1.0000
  S   S54       1.0  0.13346  0.47974  0.56622  1.0000
  S   S55       1.0  0.14741  0.50322  0.74083  1.0000
  S   S56       1.0  0.11388  0.50298  0.66530  1.0000
  C   C205      1.0  0.01330  0.55317  0.77865  1.0000
  S   S57       1.0  0.02278  0.60188  0.69649  1.0000
  C   C206      1.0  0.10009  0.57585  0.70944  1.0000
  C   C207      1.0  0.09209  0.59727  0.72824  1.0000
  C   C208      1.0  0.06834  0.60555  0.72487  1.0000
  C   C209      1.0  0.05255  0.59241  0.70267  1.0000
  C   C210      1.0  0.06057  0.57106  0.68406  1.0000
  C   C211      1.0  0.08416  0.56281  0.68749  1.0000
  H   H373      1.0  0.10439  0.60765  0.74488  1.0000
  H   H374      1.0  0.06241  0.62234  0.73845  1.0000
  H   H375      1.0  0.04862  0.56100  0.66632  1.0000
  H   H376      1.0  0.09016  0.54673  0.67208  1.0000
  C   C212      1.0  0.08262  0.43354  0.74801  1.0000
  C   C213      1.0  0.05922  0.42989  0.76285  1.0000
  C   C214      1.0  0.04925  0.40704  0.76171  1.0000
  C   C215      1.0  0.06288  0.38754  0.74669  1.0000
  C   C216      1.0  0.08641  0.39115  0.73236  1.0000
  C   C217      1.0  0.09620  0.41412  0.73266  1.0000
  H   H377      1.0  0.04866  0.44484  0.77499  1.0000
  H   H378      1.0  0.03115  0.40443  0.77296  1.0000
  H   H379      1.0  0.09704  0.37608  0.72084  1.0000
  H   H380      1.0  0.11425  0.41674  0.72129  1.0000
  C   C218      1.0  0.99569  0.55267  0.65008  1.0000
  C   C219      1.0  0.40652  0.47299  0.94245  1.0000
  H   H381      1.0  0.44563  0.38871  0.91744  1.0000
  C   C220      1.0  0.36962  0.41135  0.94672  1.0000
  H   H382      1.0  0.01046  0.57030  0.91422  1.0000
  H   H383      1.0  0.10117  0.54727  0.85520  1.0000
  H   H384      1.0  0.02841  0.62494  0.82718  1.0000
  C   C221      1.0  0.04520  0.47138  0.56948  1.0000
  C   C222      1.0  0.24270  0.49774  0.84743  1.0000
  C   C223      1.0  0.25624  0.48394  0.81972  1.0000
  C   C224      1.0  0.24684  0.47818  0.78313  1.0000
  C   C225      1.0  0.22375  0.48595  0.77373  1.0000
  C   C226      1.0  0.20995  0.49907  0.80187  1.0000
  C   C227      1.0  0.21936  0.50492  0.83836  1.0000
  H   H385      1.0  0.27424  0.47832  0.82602  1.0000
  H   H386      1.0  0.25775  0.46801  0.76167  1.0000
  H   H387      1.0  0.19233  0.50539  0.79499  1.0000
  H   H388      1.0  0.20872  0.51566  0.85942  1.0000
  H   H389      1.0  0.09305  0.55070  0.90674  1.0000
  C   C228      1.0  0.06193  0.63492  0.85193  1.0000
  C   C229      1.0  0.46177  0.41897  0.96699  1.0000
  H   H390      1.0  0.01655  0.53629  0.79406  1.0000
  H   H391      1.0  0.07660  0.58341  0.83747  1.0000
  H   H392      1.0  0.27034  0.53815  0.70339  1.0000
  Fe  Fe28      1.0  0.33137  0.51577  0.97190  1.0000
  S   S58       1.0  0.42181  0.62785  0.91431  1.0000
  C   C230      1.0  0.06415  0.58089  0.86326  1.0000
  H   H393      1.0  0.02522  0.48142  0.66197  1.0000
  C   C231      1.0  0.02260  0.57921  0.83785  1.0000
  C   C232      1.0  0.06309  0.55344  0.86836  1.0000
  C   C233      1.0  0.02891  0.57301  0.79430  1.0000
  H   H394      1.0  0.40950  0.48123  0.91358  1.0000
  S   S59       1.0  0.28627  0.46391  0.96015  1.0000
  H   H395      1.0  0.01918  0.56230  0.85302  1.0000
  H   H396      1.0  0.05804  0.54443  0.84087  1.0000
  H   H397      1.0  0.04991  0.54845  0.89152  1.0000
  H   H398      1.0  0.04799  0.56757  0.78945  1.0000
  C   C234      1.0  0.37079  0.57731  0.93371  1.0000
  H   H399      1.0  0.43479  0.36682  0.85829  1.0000
  H   H400      1.0  0.48958  0.48272  0.83848  1.0000
  H   H401      1.0  0.05426  0.61043  0.80549  1.0000
  C   C235      1.0  0.38412  0.59654  0.91869  1.0000
  H   H402      1.0  0.25024  0.62715  0.70366  1.0000
  C   C236      1.0  0.48457  0.40380  0.97425  1.0000
  H   H403      1.0  0.00866  0.34459  0.92129  1.0000
  H   H404      1.0  0.48344  0.38566  0.96094  1.0000
  N   N11       1.0  0.14943  0.43703  0.82996  1.0000
  C   C237      1.0  0.14833  0.46361  0.82366  1.0000
  C   C238      1.0  0.15767  0.42387  0.79264  1.0000
  C   C239      1.0  0.12421  0.42928  0.84041  1.0000
  C   C240      1.0  0.16506  0.43067  0.86308  1.0000
  C   C241      1.0  0.19128  0.43919  0.86006  1.0000
  C   C242      1.0  0.14055  0.47946  0.85981  1.0000
  C   C243      1.0  0.12020  0.40191  0.84179  1.0000
  C   C244      1.0  0.17693  0.43579  0.76613  1.0000
  C   C245      1.0  0.18626  0.41863  0.73347  1.0000
  C   C246      1.0  0.20347  0.43672  0.89880  1.0000
  C   C247      1.0  0.14056  0.50592  0.84995  1.0000
  C   C248      1.0  0.09395  0.39657  0.85159  1.0000
  H   H405      1.0  0.13582  0.46749  0.80013  1.0000
  H   H406      1.0  0.16580  0.47041  0.81289  1.0000
  H   H407      1.0  0.16427  0.40558  0.79916  1.0000
  H   H408      1.0  0.14229  0.42137  0.77344  1.0000
  H   H409      1.0  0.11153  0.43658  0.81926  1.0000
  H   H410      1.0  0.11804  0.43668  0.86950  1.0000
  H   H411      1.0  0.15674  0.43738  0.89136  1.0000
  H   H412      1.0  0.16622  0.41097  0.86607  1.0000
  H   H413      1.0  0.19256  0.45815  0.85198  1.0000
  H   H414      1.0  0.20172  0.42793  0.83819  1.0000
  H   H415      1.0  0.12217  0.47531  0.87057  1.0000
  H   H416      1.0  0.15302  0.47698  0.88373  1.0000
  H   H417      1.0  0.13104  0.39364  0.86435  1.0000
  H   H418      1.0  0.12490  0.39294  0.81326  1.0000
  H   H419      1.0  0.16897  0.45158  0.75231  1.0000
  H   H420      1.0  0.19241  0.44196  0.78224  1.0000
  H   H421      1.0  0.17134  0.41241  0.71569  1.0000
  H   H422      1.0  0.19928  0.42794  0.71406  1.0000
  H   H423      1.0  0.19550  0.40299  0.74575  1.0000
  H   H424      1.0  0.19432  0.44827  0.92180  1.0000
  H   H425      1.0  0.20341  0.41787  0.90814  1.0000
  H   H426      1.0  0.22235  0.44249  0.89536  1.0000
  C   C249      1.0  0.16859  0.48624  0.50637  1.0000
  H   H427      1.0  0.15868  0.51141  0.83970  1.0000
  H   H428      1.0  0.12766  0.50962  0.82701  1.0000
  C   C250      1.0  0.37949  0.39176  0.92473  1.0000
  C   C251      1.0  0.23783  0.53542  0.67269  1.0000
  H   H429      1.0  0.09143  0.37695  0.85192  1.0000
  N   N12       1.0  0.05723  0.44583  0.62902  1.0000
  C   C252      1.0  0.43319  0.43681  0.92395  1.0000
  C   C253      1.0  0.06481  0.45802  0.59159  1.0000
  C   C254      1.0  0.07374  0.42446  0.63328  1.0000
  C   C255      1.0  0.05986  0.46232  0.66377  1.0000
  C   C256      1.0  0.04434  0.48541  0.66525  1.0000
  C   C257      1.0  0.06885  0.65370  0.82209  1.0000
  C   C258      1.0  0.10100  0.42959  0.63201  1.0000
  H   H430      1.0  0.03421  0.48368  0.58879  1.0000
  H   H431      1.0  0.07348  0.58869  0.88845  1.0000
  C   C259      1.0  0.04644  0.49904  0.70403  1.0000
  H   H432      1.0  0.07279  0.44479  0.56973  1.0000
  C   C260      1.0  0.11584  0.40642  0.62921  1.0000
  H   H433      1.0  0.02017  0.43740  0.68937  1.0000
  H   H434      1.0  0.38586  0.65454  0.97603  1.0000
  H   H435      1.0  0.07944  0.47083  0.59711  1.0000
  H   H436      1.0  0.39042  0.46167  0.94168  1.0000
  H   H437      1.0  0.08232  0.40404  0.82926  1.0000
  H   H438      1.0  0.07005  0.41565  0.66149  1.0000
  H   H439      1.0  0.05641  0.45266  0.69117  1.0000
  H   H440      1.0  0.07860  0.46816  0.66527  1.0000
  H   H441      1.0  0.35382  0.57288  0.92170  1.0000
  C   C261      1.0  0.41487  0.58942  0.96439  1.0000
  H   H442      1.0  0.32888  0.37250  0.92288  1.0000
  H   H443      1.0  0.00489  0.58867  0.83904  1.0000
  H   H444      1.0  0.10579  0.43934  0.65895  1.0000
  H   H445      1.0  0.10666  0.44040  0.60675  1.0000
  C   C262      1.0  0.37922  0.56417  0.96466  1.0000
  H   H446      1.0  0.44407  0.47011  0.95366  1.0000
  H   H447      1.0  0.02568  0.58899  0.77671  1.0000
  C   C263      1.0  0.47171  0.45835  0.87785  1.0000
  H   H448      1.0  0.05059  0.49751  0.64194  1.0000
  H   H449      1.0  0.00824  0.54200  0.63041  1.0000
  H   H450      1.0  0.06521  0.50444  0.70797  1.0000
  H   H451      1.0  0.03504  0.51546  0.70440  1.0000
  H   H452      1.0  0.28727  0.52811  0.82634  1.0000
  C   C264      1.0  0.45753  0.40157  0.90207  1.0000
  C   C265      1.0  0.02239  0.58372  0.92686  1.0000
  H   H453      1.0  0.13514  0.41059  0.63039  1.0000
  H   H454      1.0  0.11100  0.39460  0.65370  1.0000
  H   H455      1.0  0.11297  0.39681  0.60118  1.0000
  H   H456      1.0  0.42949  0.44299  0.89434  1.0000
  H   H457      1.0  0.13527  0.51681  0.87642  1.0000
  H   H458      1.0  0.45963  0.47291  0.88979  1.0000
  S   S60       1.0  0.34602  0.42851  0.92727  1.0000
  C   C266      1.0  0.08748  0.54318  0.87839  1.0000
  H   H459      1.0  0.28506  0.55955  0.83938  1.0000
  C   C267      1.0  0.02169  0.42446  0.66438  1.0000
  N   N13       1.0  0.45758  0.42491  0.92505  1.0000
  H   H460      1.0  0.01362  0.61421  0.89226  1.0000
  C   C268      1.0  0.32751  0.35791  0.94422  1.0000
  H   H461      1.0  0.37301  0.38786  0.89607  1.0000
  H   H462      1.0  0.00404  0.55577  0.67844  1.0000
  H   H463      1.0  0.02030  0.60829  0.97730  1.0000
  H   H464      1.0  0.04067  0.48783  0.72888  1.0000
  H   H465      1.0  0.46355  0.41186  0.84130  1.0000
  H   H466      1.0  0.34308  0.34554  0.93872  1.0000
  Fe  Fe29      1.0  0.45670  0.33669  0.97258  1.0000
  C   C269      1.0  0.39746  0.37695  0.93964  1.0000
  H   H467      1.0  0.03857  0.57470  0.93751  1.0000
  H   H468      1.0  0.03288  0.40904  0.67271  1.0000
  H   H469      1.0  0.40469  0.36186  0.92247  1.0000
  C   C270      1.0  0.00574  0.33846  0.98349  1.0000
  H   H470      1.0  0.31086  0.34790  0.93968  1.0000
  N   N14       1.0  0.24280  0.55580  0.74081  1.0000
  C   C271      1.0  0.25475  0.55089  0.77852  1.0000
  C   C272      1.0  0.21585  0.55443  0.74663  1.0000
  C   C273      1.0  0.24995  0.57945  0.72419  1.0000
  C   C274      1.0  0.24488  0.60186  0.75058  1.0000
  C   C275      1.0  0.28249  0.55139  0.77707  1.0000
  C   C276      1.0  0.20448  0.56343  0.78651  1.0000
  C   C277      1.0  0.17722  0.56486  0.78554  1.0000
  C   C278      1.0  0.25676  0.62381  0.73321  1.0000
  C   C279      1.0  0.29221  0.54631  0.81707  1.0000
  H   H471      1.0  0.24939  0.53307  0.78910  1.0000
  H   H472      1.0  0.24861  0.56364  0.80215  1.0000
  H   H473      1.0  0.20683  0.56403  0.72307  1.0000
  H   H474      1.0  0.21006  0.53554  0.74384  1.0000
  H   H475      1.0  0.24928  0.51852  0.72494  1.0000
  H   H476      1.0  0.24042  0.58280  0.69704  1.0000
  H   H477      1.0  0.25168  0.59973  0.78015  1.0000
  H   H478      1.0  0.22536  0.60576  0.75274  1.0000
  H   H479      1.0  0.28896  0.56917  0.76831  1.0000
  H   H480      1.0  0.21848  0.53220  0.67789  1.0000
  H   H481      1.0  0.20904  0.55087  0.80969  1.0000
  H   H482      1.0  0.21082  0.58120  0.79543  1.0000
  H   H483      1.0  0.16949  0.57034  0.81477  1.0000
  H   H484      1.0  0.17162  0.57824  0.76419  1.0000
  H   H485      1.0  0.16990  0.54723  0.77739  1.0000
  H   H486      1.0  0.27653  0.62137  0.73132  1.0000
  C   C280      1.0  0.05628  0.48598  0.53647  1.0000
  C   C281      1.0  0.44992  0.40252  0.85928  1.0000
  H   H487      1.0  0.25232  0.63976  0.75213  1.0000
  H   H488      1.0  0.31203  0.54729  0.81563  1.0000
  H   H489      1.0  0.42489  0.45148  0.98285  1.0000
  H   H490      1.0  0.26705  0.51794  0.63811  1.0000
  N   N15       1.0  0.04071  0.59410  0.85835  1.0000
  C   C282      1.0  0.24785  0.51516  0.64587  1.0000
  Fe  Fe30      1.0  0.32641  0.46272  0.95018  1.0000
  Fe  Fe31      1.0  0.45738  0.64691  0.92447  1.0000
  H   H491      1.0  0.04229  0.61454  0.91268  1.0000
  H   H492      1.0  0.41906  0.42359  0.93031  1.0000
  C   C283      1.0  0.25103  0.53640  0.71163  1.0000
  C   C284      1.0  0.40625  0.60280  0.93385  1.0000
  C   C285      1.0  0.37824  0.41616  0.98370  1.0000
  C   C286      1.0  0.02976  0.60289  0.89715  1.0000
  C   C287      1.0  0.14453  0.48206  0.51656  1.0000
  H   H493      1.0  0.08827  0.40424  0.88071  1.0000
  H   H494      1.0  0.26927  0.57903  0.71497  1.0000
  H   H495      1.0  0.24584  0.49769  0.66020  1.0000
  H   H496      1.0  0.46271  0.44970  0.85339  1.0000
  H   H497      1.0  0.03106  0.42367  0.60215  1.0000
  H   H498      1.0  0.44232  0.37850  0.81098  1.0000
  C   C288      1.0  0.03204  0.43662  0.62716  1.0000
  H   H499      1.0  0.01781  0.55012  0.74710  1.0000
  H   H500      1.0  0.46578  0.36800  0.84089  1.0000
  H   H501      1.0  0.08643  0.52347  0.88063  1.0000
  Fe  Fe32      1.0  0.00206  0.63034  0.73225  1.0000
  C   C289      1.0  0.44812  0.37739  0.84143  1.0000
  C   C290      1.0  0.99664  0.41497  0.65813  1.0000
  H   H502      1.0  0.37721  0.60667  0.89506  1.0000
  S   S61       1.0  0.47434  0.33861  0.91278  1.0000
  C   C291      1.0  0.47760  0.44061  0.91035  1.0000
  H   H503      1.0  0.40297  0.48752  0.96464  1.0000
  H   H504      1.0  0.47569  0.39308  0.90050  1.0000
  C   C292      1.0  0.40561  0.38139  0.97703  1.0000
  S   S62       1.0  0.29137  0.52082  0.98436  1.0000
  C   C293      1.0  0.40132  0.57048  0.97993  1.0000
  C   C294      1.0  0.99748  0.33805  0.94506  1.0000
  H   H505      1.0  0.43190  0.59374  0.97616  1.0000
  H   H506      1.0  0.44623  0.40931  0.97974  1.0000
  H   H507      1.0  0.06847  0.49961  0.54819  1.0000
  H   H508      1.0  0.04197  0.49530  0.52095  1.0000
  S   S63       1.0  0.47516  0.64846  0.98184  1.0000
  H   H509      1.0  0.99619  0.48531  0.72891  1.0000
  H   H510      1.0  0.29059  0.37752  0.98485  1.0000
  H   H511      1.0  0.05255  0.64457  0.87686  1.0000
  H   H512      1.0  0.30978  0.40159  0.97329  1.0000
  H   H513      1.0  0.26170  0.40623  0.98670  1.0000
  H   H514      1.0  0.00395  0.58115  0.98363  1.0000
  H   H515      1.0  0.06656  0.47416  0.51515  1.0000
  H   H516      1.0  0.10997  0.47547  0.49346  1.0000
  H   H517      1.0  0.99226  0.60427  0.95382  1.0000
  H   H518      1.0  0.99735  0.40060  0.63525  1.0000
  H   H519      1.0  0.07919  0.64540  0.79680  1.0000
  S   S64       1.0  0.49201  0.64136  0.88839  1.0000
  C   C295      1.0  0.32773  0.36810  0.98588  1.0000
  H   H520      1.0  0.99250  0.57029  0.63685  1.0000
  H   H521      1.0  0.46305  0.43554  0.98516  1.0000
  H   H522      1.0  0.30972  0.91155  0.17665  1.0000
  C   C296      1.0  0.27975  0.92211  0.32936  1.0000
  S   S65       1.0  0.03755  0.85934  0.41414  1.0000
  H   H523      1.0  0.21385  0.88382  0.36071  1.0000
  H   H524      1.0  0.03271  0.70890  0.14052  1.0000
  S   S66       1.0  0.18692  0.98528  0.34324  1.0000
  C   C297      1.0  0.07121  0.87181  0.46877  1.0000
  C   C298      1.0  0.01723  0.72108  0.40607  1.0000
  H   H525      1.0  0.44528  0.98777  0.16996  1.0000
  S   S67       1.0  0.01061  0.79254  0.43505  1.0000
  S   S68       1.0  0.47219  0.86116  0.26926  1.0000
  H   H526      1.0  0.21319  0.85605  0.30276  1.0000
  H   H527      1.0  0.01373  0.74666  0.08522  1.0000
  H   H528      1.0  0.45779  0.77917  0.45626  1.0000
  H   H529      1.0  0.43913  0.83075  0.46421  1.0000
  C   C299      1.0  0.15469  0.92680  0.34461  1.0000
  Fe  Fe33      1.0  0.44405  0.84008  0.24020  1.0000
  S   S69       1.0  0.40605  0.85467  0.23663  1.0000
  S   S70       1.0  0.45420  0.80567  0.26912  1.0000
  Fe  Fe34      1.0  0.35901  0.97804  0.15865  1.0000
  S   S71       1.0  0.39389  0.96016  0.17480  1.0000
  S   S72       1.0  0.32121  0.96611  0.15098  1.0000
  C   C300      1.0  0.00704  0.68866  0.45278  1.0000
  C   C301      1.0  0.48039  0.72526  0.13129  1.0000
  H   H530      1.0  0.41166  0.69459  0.04989  1.0000
  H   H531      1.0  0.27738  0.92975  0.24621  1.0000
  S   S73       1.0  0.18091  0.95963  0.44943  1.0000
  C   C302      1.0  0.40584  0.70248  0.12760  1.0000
  C   C303      1.0  0.47510  0.76930  0.45243  1.0000
  C   C304      1.0  0.40280  0.88365  0.21784  1.0000
  C   C305      1.0  0.38018  0.89201  0.20735  1.0000
  C   C306      1.0  0.37711  0.91540  0.19386  1.0000
  C   C307      1.0  0.39669  0.93053  0.19077  1.0000
  C   C308      1.0  0.41932  0.92205  0.20076  1.0000
  C   C309      1.0  0.42239  0.89870  0.21408  1.0000
  H   H532      1.0  0.36506  0.88029  0.20946  1.0000
  H   H533      1.0  0.35971  0.92167  0.18555  1.0000
  H   H534      1.0  0.43461  0.93354  0.19804  1.0000
  H   H535      1.0  0.43990  0.89235  0.22153  1.0000
  C   C310      1.0  0.09778  0.90612  0.46172  1.0000
  C   C311      1.0  0.06044  0.87719  0.43391  1.0000
  C   C312      1.0  0.06827  0.89731  0.41339  1.0000
  C   C313      1.0  0.08653  0.91189  0.42744  1.0000
  H   H536      1.0  0.38054  0.69451  0.06357  1.0000
  C   C314      1.0  0.35920  0.98800  0.29530  1.0000
  H   H537      1.0  0.45240  0.82839  0.39408  1.0000
  S   S74       1.0  0.46546  0.71929  0.01527  1.0000
  H   H538      1.0  0.48857  0.97659  0.17935  1.0000
  C   C315      1.0  0.46550  0.82964  0.41627  1.0000
  C   C316      1.0  0.02537  0.67018  0.43465  1.0000
  N   N16       1.0  0.16155  0.88813  0.38377  1.0000
  H   H539      1.0  0.48553  0.91678  0.30829  1.0000
  Fe  Fe35      1.0  0.14121  0.95754  0.46400  1.0000
  H   H540      1.0  0.22810  0.88362  0.29229  1.0000
  C   C317      1.0  0.47660  0.71553  0.09373  1.0000
  H   H541      1.0  0.16526  0.87349  0.32492  1.0000
  C   C318      1.0  0.47471  0.83246  0.48577  1.0000
  H   H542      1.0  0.46863  0.78377  0.11500  1.0000
  H   H543      1.0  0.00881  0.76629  0.32318  1.0000
  C   C319      1.0  0.35564  0.93161  0.98819  1.0000
  H   H544      1.0  0.30099  0.94597  0.22273  1.0000
  C   C320      1.0  0.20041  0.88679  0.33840  1.0000
  H   H545      1.0  0.01495  0.69768  0.47838  1.0000
  H   H546      1.0  0.14280  0.95884  0.31617  1.0000
  H   H547      1.0  0.16474  0.92011  0.31796  1.0000
  C   C321      1.0  0.47040  0.73042  0.06344  1.0000
  H   H548      1.0  0.12312  0.94984  0.35582  1.0000
  C   C322      1.0  0.38655  0.66990  0.99718  1.0000
  H   H549      1.0  0.40068  0.70624  0.99294  1.0000
  H   H550      1.0  0.13203  0.89680  0.34733  1.0000
  C   C323      1.0  0.23888  0.98776  0.25521  1.0000
  C   C324      1.0  0.03123  0.72733  0.12956  1.0000
  H   H551      1.0  0.47091  0.94078  0.25399  1.0000
  H   H552      1.0  0.46939  0.98915  0.23933  1.0000
  S   S75       1.0  0.30524  0.98067  0.04071  1.0000
  H   H553      1.0  0.41146  0.69899  0.15761  1.0000
  C   C325      1.0  0.48988  0.82944  0.40525  1.0000
  C   C326      1.0  0.45803  0.83102  0.45619  1.0000
  H   H554      1.0  0.11084  0.84179  0.43581  1.0000
  H   H555      1.0  0.02791  0.71002  0.38435  1.0000
  Fe  Fe36      1.0  0.17169  0.98801  0.40706  1.0000
  H   H556      1.0  0.47852  0.91058  0.23879  1.0000
  H   H557      1.0  0.46246  0.74793  0.40370  1.0000
  H   H558      1.0  0.99958  0.93288  0.44321  1.0000
  C   C327      1.0  0.14407  0.90582  0.36770  1.0000
  H   H559      1.0  0.02720  0.74510  0.45469  1.0000
  H   H560      1.0  0.01112  0.67577  0.36115  1.0000
  C   C328      1.0  0.47766  0.74997  0.13941  1.0000
  H   H561      1.0  0.06734  0.75410  0.42997  1.0000
  C   C329      1.0  0.17617  0.87547  0.35117  1.0000
  H   H562      1.0  0.46213  0.76676  0.04880  1.0000
  H   H563      1.0  0.10230  0.82829  0.39055  1.0000
  C   C330      1.0  0.29822  0.94066  0.31491  1.0000
  C   C331      1.0  0.00292  0.91516  0.45606  1.0000
  H   H564      1.0  0.27918  0.92205  0.17544  1.0000
  H   H565      1.0  0.28597  0.89500  0.20062  1.0000
  H   H566      1.0  0.02094  0.71606  0.07266  1.0000
  C   C332      1.0  0.99784  0.75301  0.30964  1.0000
  H   H567      1.0  0.19897  0.90629  0.33457  1.0000
  H   H568      1.0  0.33574  0.97081  0.33597  1.0000
  C   C333      1.0  0.05495  0.74542  0.40979  1.0000
  S   S76       1.0  0.01523  0.65817  0.12929  1.0000
  C   C334      1.0  0.17674  0.90096  0.41256  1.0000
  C   C335      1.0  0.19253  0.88469  0.43739  1.0000
  H   H569      1.0  0.12369  0.93361  0.30971  1.0000
  H   H570      1.0  0.16510  0.91173  0.43362  1.0000
  H   H571      1.0  0.18835  0.91423  0.39805  1.0000
  H   H572      1.0  0.01856  0.90712  0.43908  1.0000
  C   C336      1.0  0.01383  0.72829  0.09654  1.0000
  H   H573      1.0  0.20115  0.86994  0.41955  1.0000
  H   H574      1.0  0.36809  0.67778  0.99951  1.0000
  H   H575      1.0  0.47597  0.77571  0.39032  1.0000
  H   H576      1.0  0.42270  0.67061  0.10421  1.0000
  H   H577      1.0  0.06545  0.73280  0.39007  1.0000
  H   H578      1.0  0.02519  0.74202  0.26618  1.0000
  C   C337      1.0  0.46731  0.75504  0.07170  1.0000
  H   H579      1.0  0.28691  0.91206  0.35394  1.0000
  H   H580      1.0  0.05852  0.98412  0.47072  1.0000
  C   C338      1.0  0.31360  0.91604  0.25762  1.0000
  H   H581      1.0  0.28892  0.95401  0.29710  1.0000
  H   H582      1.0  0.00928  0.73573  0.38901  1.0000
  H   H583      1.0  0.03483  0.95107  0.44609  1.0000
  C   C339      1.0  0.29527  0.92793  0.23111  1.0000
  H   H584      1.0  0.27532  0.90914  0.30605  1.0000
  H   H585      1.0  0.04925  0.73281  0.11875  1.0000
  H   H586      1.0  0.99963  0.70169  0.33848  1.0000
  H   H587      1.0  0.04501  0.71822  0.44970  1.0000
  C   C340      1.0  0.29242  0.91312  0.19373  1.0000
  H   H588      1.0  0.20382  0.91297  0.47684  1.0000
  H   H589      1.0  0.02517  0.73960  0.15402  1.0000
  H   H590      1.0  0.24395  0.92101  0.35643  1.0000
  C   C341      1.0  0.33521  0.95128  0.27916  1.0000
  H   H591      1.0  0.30655  0.89839  0.26625  1.0000
  H   H592      1.0  0.32988  0.91164  0.23890  1.0000
  H   H593      1.0  0.18127  0.87661  0.46090  1.0000
  C   C342      1.0  0.33391  0.91491  0.31948  1.0000
  Fe  Fe37      1.0  0.48430  0.82657  0.29458  1.0000
  N   N17       1.0  0.32023  0.93066  0.29288  1.0000
  H   H594      1.0  0.35344  0.89008  0.27883  1.0000
  Fe  Fe38      1.0  0.47857  0.79898  0.21530  1.0000
  C   C343      1.0  0.39720  0.68325  0.06229  1.0000
  Fe  Fe39      1.0  0.00975  0.83288  0.43819  1.0000
  C   C344      1.0  0.47094  0.76478  0.10932  1.0000
  H   H595      1.0  0.13835  0.87839  0.43292  1.0000
  H   H596      1.0  0.39163  0.66742  0.12032  1.0000
  H   H597      1.0  0.13242  0.91365  0.39197  1.0000
  H   H598      1.0  0.33943  0.94317  0.99337  1.0000
  C   C345      1.0  0.03574  0.73219  0.43332  1.0000
  H   H599      1.0  0.25971  0.94799  0.36718  1.0000
  H   H600      1.0  0.09211  0.92739  0.41143  1.0000
  H   H601      1.0  0.41920  0.71441  0.11358  1.0000
  H   H602      1.0  0.13409  0.85076  0.35447  1.0000
  H   H603      1.0  0.22400  0.90725  0.43486  1.0000
  H   H604      1.0  0.18070  0.85682  0.35917  1.0000
  H   H605      1.0  0.36117  0.87682  0.34589  1.0000
  C   C346      1.0  0.40454  0.67889  0.10450  1.0000
  H   H606      1.0  0.47817  0.69651  0.08842  1.0000
  H   H607      1.0  0.35131  0.91306  0.99637  1.0000
  H   H608      1.0  0.19827  0.87913  0.27612  1.0000
  C   C347      1.0  0.21054  0.87563  0.30004  1.0000
  H   H609      1.0  0.20117  0.98015  0.26181  1.0000
  S   S77       1.0  0.00578  0.70525  0.21743  1.0000
  C   C348      1.0  0.11749  0.83602  0.40607  1.0000
  C   C349      1.0  0.14714  0.86994  0.40615  1.0000
  S   S78       1.0  0.46626  0.83196  0.18533  1.0000
  H   H610      1.0  0.01233  0.65924  0.01177  1.0000
  H   H611      1.0  0.15911  0.85562  0.41670  1.0000
  C   C350      1.0  0.21199  0.89885  0.45700  1.0000
  H   H612      1.0  0.99220  0.67798  0.46549  1.0000
  H   H613      1.0  0.11192  0.86976  0.38007  1.0000
  C   C351      1.0  0.00709  0.73919  0.27720  1.0000
  H   H614      1.0  0.48533  0.71357  0.15437  1.0000
  H   H615      1.0  0.24756  0.94323  0.31967  1.0000
  H   H616      1.0  0.04672  0.75947  0.39209  1.0000
  H   H617      1.0  0.23965  0.98487  0.22392  1.0000
  H   H618      1.0  0.13157  0.82198  0.40837  1.0000
  C   C352      1.0  0.47718  0.76030  0.41003  1.0000
  Fe  Fe40      1.0  0.99552  0.67031  0.18590  1.0000
  C   C353      1.0  0.12727  0.85728  0.38368  1.0000
  H   H619      1.0  0.06006  0.90171  0.38644  1.0000
  H   H620      1.0  0.32283  0.89960  0.32880  1.0000
  C   C354      1.0  0.25636  0.93439  0.34406  1.0000
  S   S79       1.0  0.48356  0.76128  0.18711  1.0000
  H   H621      1.0  0.38810  0.71174  0.12962  1.0000
  C   C355      1.0  0.13479  0.94321  0.33083  1.0000
  H   H622      1.0  0.16647  0.93771  0.36276  1.0000
  C   C356      1.0  0.31303  0.98850  0.99150  1.0000
  S   S80       1.0  0.13154  0.98409  0.41900  1.0000
  C   C357      1.0  0.21700  0.98508  0.27689  1.0000
  H   H623      1.0  0.03979  0.67869  0.41710  1.0000
  N   N18       1.0  0.99750  0.70698  0.42564  1.0000
  H   H624      1.0  0.36967  0.93826  0.00744  1.0000
  S   S81       1.0  0.12248  0.92238  0.47919  1.0000
  H   H625      1.0  0.32398  0.96440  0.26410  1.0000
  H   H626      1.0  0.48466  0.90826  0.42981  1.0000
  H   H627      1.0  0.07325  0.95605  0.47947  1.0000
  H   H628      1.0  0.99379  0.88738  0.38882  1.0000
  C   C358      1.0  0.03429  0.95444  0.47813  1.0000
  H   H629      1.0  0.43262  0.65954  0.03192  1.0000
  N   N19       1.0  0.39397  0.66142  0.03650  1.0000
  C   C359      1.0  0.37184  0.89113  0.33210  1.0000
  H   H630      1.0  0.34902  0.94535  0.25649  1.0000
  H   H631      1.0  0.37219  0.98363  0.27065  1.0000
  H   H632      1.0  0.22289  0.88674  0.47459  1.0000
  H   H633      1.0  0.48988  0.78189  0.45659  1.0000
  C   C360      1.0  0.48594  0.92772  0.24916  1.0000
  C   C361      1.0  0.99320  0.72177  0.25891  1.0000
  C   C362      1.0  0.35754  0.90370  0.30143  1.0000
  H   H634      1.0  0.35763  0.65860  0.05988  1.0000
  H   H635      1.0  0.38828  0.88282  0.31792  1.0000
  H   H636      1.0  0.33775  0.92476  0.34698  1.0000
  H   H637      1.0  0.30319  0.95090  0.34134  1.0000
  H   H638      1.0  0.37726  0.90410  0.35488  1.0000
  H   H639      1.0  0.42113  0.98804  0.10781  1.0000
  H   H640      1.0  0.47933  0.88642  0.39191  1.0000
  C   C363      1.0  0.47641  0.74833  0.48112  1.0000
  C   C364      1.0  0.99974  0.65800  0.98880  1.0000
  H   H641      1.0  0.36925  0.91720  0.28778  1.0000
  H   H642      1.0  0.46109  0.73644  0.47558  1.0000
  C   C365      1.0  0.34816  0.96532  0.31130  1.0000
  H   H643      1.0  0.36282  0.95429  0.32278  1.0000
  C   C366      1.0  0.08989  0.88604  0.48229  1.0000
  C   C367      1.0  0.21531  0.98892  0.31770  1.0000
  C   C368      1.0  0.99461  0.68626  0.35664  1.0000
  H   H644      1.0  0.06553  0.85637  0.48485  1.0000
  H   H645      1.0  0.04752  0.66798  0.48530  1.0000
  H   H646      1.0  0.01883  0.96646  0.48633  1.0000
  H   H647      1.0  0.38216  0.98858  0.88224  1.0000
  S   S82       1.0  0.45814  0.68702  0.91781  1.0000
  H   H648      1.0  0.47956  0.78306  0.91121  1.0000
  S   S83       1.0  0.99280  0.83388  0.49874  1.0000
  C   C369      1.0  0.45287  0.76791  0.53441  1.0000
  H   H649      1.0  0.38178  0.98713  0.62570  1.0000
  H   H650      1.0  0.99503  0.88399  0.51768  1.0000
  C   C370      1.0  0.48730  0.94649  0.63715  1.0000
  H   H651      1.0  0.40912  0.77318  0.57697  1.0000
  H   H652      1.0  0.41522  0.97388  0.71987  1.0000
  H   H653      1.0  0.39462  0.94628  0.88838  1.0000
  H   H654      1.0  0.05258  0.66276  0.81169  1.0000
  H   H655      1.0  0.29401  0.92021  0.80243  1.0000
  H   H656      1.0  0.05741  0.97228  0.51906  1.0000
  H   H657      1.0  0.02640  0.66349  0.94251  1.0000
  Fe  Fe41      1.0  0.46994  0.86669  0.67178  1.0000
  S   S84       1.0  0.45594  0.89984  0.70508  1.0000
  S   S85       1.0  0.45280  0.83371  0.64833  1.0000
  C   C371      1.0  0.49161  0.95379  0.76583  1.0000
  H   H658      1.0  0.00168  0.86450  0.57940  1.0000
  N   N20       1.0  0.47639  0.75515  0.52399  1.0000
  S   S86       1.0  0.00320  0.76441  0.53521  1.0000
  H   H659      1.0  0.36941  0.95119  0.93985  1.0000
  H   H660      1.0  0.48468  0.73772  0.57772  1.0000
  Fe  Fe42      1.0  0.33233  0.96026  0.73756  1.0000
  S   S87       1.0  0.34479  0.92179  0.73013  1.0000
  S   S88       1.0  0.29990  0.97007  0.77581  1.0000
  C   C372      1.0  0.42498  0.90509  0.71243  1.0000
  C   C373      1.0  0.40823  0.88990  0.69646  1.0000
  C   C374      1.0  0.38363  0.89514  0.70214  1.0000
  C   C375      1.0  0.37572  0.91585  0.72293  1.0000
  C   C376      1.0  0.39254  0.93092  0.73907  1.0000
  C   C377      1.0  0.41707  0.92532  0.73439  1.0000
  H   H661      1.0  0.41419  0.87417  0.67968  1.0000
  H   H662      1.0  0.37070  0.88328  0.68991  1.0000
  H   H663      1.0  0.38661  0.94652  0.75604  1.0000
  H   H664      1.0  0.43000  0.93680  0.74745  1.0000
  H   H665      1.0  0.48761  0.89330  0.80986  1.0000
  H   H666      1.0  0.26225  0.98908  0.56301  1.0000
  H   H667      1.0  0.45070  0.93593  0.63872  1.0000
  H   H668      1.0  0.43767  0.75688  0.52491  1.0000
  C   C378      1.0  0.45219  0.97216  0.66449  1.0000
  C   C379      1.0  0.01216  0.89356  0.51533  1.0000
  C   C380      1.0  0.00504  0.73015  0.59189  1.0000
  H   H669      1.0  0.45393  0.96337  0.69311  1.0000
  H   H670      1.0  0.48772  0.86190  0.86146  1.0000
  H   H671      1.0  0.28373  0.96916  0.96801  1.0000
  H   H672      1.0  0.45939  0.72610  0.55494  1.0000
  H   H673      1.0  0.42415  0.98733  0.57889  1.0000
  Fe  Fe43      1.0  0.48113  0.81249  0.67855  1.0000
  H   H674      1.0  0.47796  0.68619  0.57382  1.0000
  H   H675      1.0  0.40700  0.70695  0.92255  1.0000
  Fe  Fe44      1.0  0.47954  0.83602  0.59693  1.0000
  H   H676      1.0  0.02982  0.85466  0.55570  1.0000
  H   H677      1.0  0.46106  0.78804  0.58814  1.0000
  H   H678      1.0  0.46240  0.84845  0.84012  1.0000
  N   N21       1.0  0.42715  0.98253  0.66134  1.0000
  H   H679      1.0  0.46555  0.98667  0.66387  1.0000
  C   C381      1.0  0.02087  0.86883  0.57456  1.0000
  H   H680      1.0  0.02372  0.88208  0.49515  1.0000
  H   H681      1.0  0.42132  0.80246  0.56839  1.0000
  C   C382      1.0  0.47308  0.73269  0.80476  1.0000
  C   C383      1.0  0.46475  0.75019  0.77925  1.0000
  H   H682      1.0  0.09844  0.88134  0.50881  1.0000
  C   C384      1.0  0.38397  0.97100  0.64339  1.0000
  H   H683      1.0  0.46078  0.72466  0.82559  1.0000
  H   H684      1.0  0.44601  0.75537  0.78077  1.0000
  N   N22       1.0  0.35201  0.92208  0.87496  1.0000
  C   C385      1.0  0.37099  0.90271  0.86876  1.0000
  C   C386      1.0  0.34500  0.92438  0.91790  1.0000
  C   C387      1.0  0.33025  0.91390  0.85397  1.0000
  C   C388      1.0  0.35974  0.94587  0.85920  1.0000
  C   C389      1.0  0.44805  0.77471  0.57828  1.0000
  C   C390      1.0  0.37718  0.89564  0.82544  1.0000
  C   C391      1.0  0.30740  0.92989  0.85954  1.0000
  C   C392      1.0  0.36463  0.93239  0.94555  1.0000
  S   S89       1.0  0.46847  0.78293  0.72019  1.0000
  S   S90       1.0  0.46409  0.83228  0.53576  1.0000
  C   C393      1.0  0.40185  0.88365  0.81991  1.0000
  C   C394      1.0  0.28771  0.92098  0.83358  1.0000
  H   H685      1.0  0.36523  0.88614  0.88360  1.0000
  H   H686      1.0  0.38777  0.90753  0.88272  1.0000
  H   H687      1.0  0.33049  0.93802  0.92309  1.0000
  H   H688      1.0  0.33767  0.90719  0.92844  1.0000
  H   H689      1.0  0.32536  0.89553  0.86286  1.0000
  H   H690      1.0  0.33426  0.91272  0.82189  1.0000
  H   H691      1.0  0.35526  0.94750  0.82801  1.0000
  H   H692      1.0  0.45796  0.95815  0.60363  1.0000
  H   H693      1.0  0.02940  0.86906  0.60318  1.0000
  H   H694      1.0  0.39910  0.67607  0.91734  1.0000
  H   H695      1.0  0.36374  0.88297  0.81465  1.0000
  H   H696      1.0  0.37679  0.91144  0.80680  1.0000
  H   H697      1.0  0.31136  0.94862  0.85214  1.0000
  H   H698      1.0  0.29994  0.92951  0.88997  1.0000
  H   H699      1.0  0.38085  0.92079  0.94234  1.0000
  C   C395      1.0  0.48033  0.76099  0.75178  1.0000
  C   C396      1.0  0.05726  0.96744  0.48751  1.0000
  H   H700      1.0  0.42176  0.68285  0.97754  1.0000
  C   C397      1.0  0.47767  0.73309  0.54862  1.0000
  H   H701      1.0  0.37559  0.97444  0.67288  1.0000
  H   H702      1.0  0.44922  0.75895  0.59710  1.0000
  H   H703      1.0  0.41597  0.89635  0.82774  1.0000
  H   H704      1.0  0.40302  0.86755  0.83806  1.0000
  H   H705      1.0  0.40503  0.87812  0.78879  1.0000
  C   C398      1.0  0.42310  0.78591  0.58535  1.0000
  Fe  Fe45      1.0  0.47785  0.68808  0.97382  1.0000
  H   H706      1.0  0.27195  0.93332  0.83664  1.0000
  H   H707      1.0  0.41679  0.95730  0.61627  1.0000
  H   H708      1.0  0.45144  0.78487  0.51853  1.0000
  H   H709      1.0  0.03696  0.93451  0.53061  1.0000
  C   C399      1.0  0.36995  0.95095  0.62449  1.0000
  H   H710      1.0  0.48270  0.81724  0.86583  1.0000
  C   C400      1.0  0.38677  0.95177  0.86094  1.0000
  H   H711      1.0  0.37079  0.93456  0.64203  1.0000
  H   H712      1.0  0.41143  0.94767  0.66425  1.0000
  C   C401      1.0  0.02349  0.89316  0.55579  1.0000
  H   H713      1.0  0.34922  0.96051  0.87455  1.0000
  H   H714      1.0  0.28203  0.90289  0.84225  1.0000
  N   N23       1.0  0.00879  0.91796  0.49845  1.0000
  C   C402      1.0  0.03248  0.93053  0.49988  1.0000
  S   S91       1.0  0.01108  0.66707  0.75457  1.0000
  C   C403      1.0  0.46074  0.95264  0.63384  1.0000
  C   C404      1.0  0.00768  0.66041  0.94936  1.0000
  S   S92       1.0  0.14320  0.98523  0.51226  1.0000
  H   H715      1.0  0.42018  0.79072  0.61679  1.0000
  C   C405      1.0  0.41072  0.96374  0.64586  1.0000
  H   H716      1.0  0.37715  0.94684  0.59440  1.0000
  H   H717      1.0  0.39703  0.94235  0.83663  1.0000
  H   H718      1.0  0.04297  0.89665  0.55252  1.0000
  H   H719      1.0  0.37680  0.69814  0.93433  1.0000
  S   S93       1.0  0.00275  0.66315  0.86961  1.0000
  H   H720      1.0  0.46178  0.87947  0.78955  1.0000
  C   C406      1.0  0.48459  0.77204  0.88474  1.0000
  C   C407      1.0  0.30452  0.98565  0.92168  1.0000
  C   C408      1.0  0.39592  0.69262  0.93537  1.0000
  H   H721      1.0  0.45981  0.89248  0.83819  1.0000
  Fe  Fe46      1.0  0.18198  0.98942  0.49465  1.0000
  H   H722      1.0  0.02181  0.72481  0.57714  1.0000
  C   C409      1.0  0.29905  0.98003  0.96102  1.0000
  C   C410      1.0  0.39107  0.97849  0.85726  1.0000
  H   H723      1.0  0.99783  0.94338  0.54488  1.0000
  C   C411      1.0  0.40275  0.68867  0.97743  1.0000
  H   H724      1.0  0.01517  0.90699  0.57592  1.0000
  H   H725      1.0  0.08010  0.66740  0.83583  1.0000
  H   H726      1.0  0.35088  0.95652  0.62291  1.0000
  H   H727      1.0  0.49066  0.93926  0.66629  1.0000
  H   H728      1.0  0.47475  0.96313  0.77605  1.0000
  C   C412      1.0  0.99727  0.71815  0.62587  1.0000
  H   H729      1.0  0.00805  0.70379  0.63686  1.0000
  H   H730      1.0  0.47863  0.80154  0.82091  1.0000
  S   S94       1.0  0.32097  0.98263  0.68799  1.0000
  H   H731      1.0  0.41055  0.98195  0.85724  1.0000
  C   C413      1.0  0.41782  0.98990  0.70187  1.0000
  H   H732      1.0  0.38406  0.98514  0.82976  1.0000
  H   H733      1.0  0.48959  0.94642  0.73589  1.0000
  H   H734      1.0  0.29328  0.97931  0.89894  1.0000
  H   H735      1.0  0.48254  0.70288  0.50708  1.0000
  C   C414      1.0  0.47903  0.85845  0.83352  1.0000
  H   H736      1.0  0.48344  0.83629  0.78199  1.0000
  H   H737      1.0  0.46831  0.76844  0.86829  1.0000
  C   C415      1.0  0.47164  0.88237  0.81667  1.0000
  S   S95       1.0  0.35542  0.98822  0.76284  1.0000
  H   H738      1.0  0.49200  0.75461  0.89391  1.0000
  H   H739      1.0  0.04723  0.91863  0.48766  1.0000
  S   S96       1.0  0.96393  0.30494  0.15959  1.0000
  C   C416      1.0  0.86587  0.07610  0.46840  1.0000
  H   H740      1.0  0.55415  0.10986  0.30900  1.0000
  Fe  Fe47      1.0  0.97340  0.18695  0.43378  1.0000
  H   H741      1.0  0.96967  0.26107  0.44741  1.0000
  S   S97       1.0  0.96059  0.21122  0.38504  1.0000
  Fe  Fe48      1.0  0.77941  0.99392  0.44335  1.0000
  C   C417      1.0  0.58101  0.07486  0.33106  1.0000
  S   S98       1.0  0.97479  0.14649  0.43064  1.0000
  C   C418      1.0  0.89524  0.02206  0.39392  1.0000
  C   C419      1.0  0.87770  0.09244  0.44396  1.0000
  H   H742      1.0  0.63544  0.08994  0.04467  1.0000
  C   C420      1.0  0.99165  0.26144  0.29033  1.0000
  H   H743      1.0  0.53260  0.05893  0.34019  1.0000
  Fe  Fe49      1.0  0.51794  0.14013  0.23388  1.0000
  S   S99       1.0  0.55341  0.12499  0.20992  1.0000
  S   S100      1.0  0.51536  0.17782  0.25783  1.0000
  C   C421      1.0  0.57812  0.03883  0.10758  1.0000
  S   S101      1.0  0.57892  0.01666  0.23998  1.0000
  S   S102      1.0  0.64488  0.01820  0.18332  1.0000
  C   C422      1.0  0.57076  0.08430  0.37148  1.0000
  H   H744      1.0  0.92522  0.31940  0.07962  1.0000
  C   C423      1.0  0.56035  0.09515  0.22042  1.0000
  C   C424      1.0  0.54245  0.07921  0.23114  1.0000
  C   C425      1.0  0.54839  0.05523  0.23780  1.0000
  C   C426      1.0  0.57219  0.04699  0.23291  1.0000
  C   C427      1.0  0.59011  0.06300  0.22258  1.0000
  C   C428      1.0  0.58421  0.08709  0.21683  1.0000
  H   H745      1.0  0.52402  0.08532  0.23408  1.0000
  H   H746      1.0  0.53448  0.04299  0.24623  1.0000
  H   H747      1.0  0.60856  0.05689  0.21971  1.0000
  H   H748      1.0  0.59818  0.09956  0.20978  1.0000
  H   H749      1.0  0.61231  0.09746  0.01173  1.0000
  H   H750      1.0  0.57124  0.12642  0.41018  1.0000
  C   C429      1.0  0.62119  0.08259  0.02665  1.0000
  H   H751      1.0  0.55087  0.10750  0.12138  1.0000
  C   C430      1.0  0.93308  0.99508  0.44416  1.0000
  H   H752      1.0  0.54070  0.13480  0.40694  1.0000
  S   S103      1.0  0.50506  0.26716  0.03785  1.0000
  H   H753      1.0  0.52739  0.00118  0.22613  1.0000
  C   C431      1.0  0.55440  0.11994  0.33716  1.0000
  H   H754      1.0  0.94516  0.00201  0.42053  1.0000
  C   C432      1.0  0.98069  0.25516  0.47167  1.0000
  H   H755      1.0  0.91306  0.05289  0.46074  1.0000
  H   H756      1.0  0.57616  0.12653  0.12636  1.0000
  H   H757      1.0  0.76308  0.01001  0.33745  1.0000
  H   H758      1.0  0.89667  0.04182  0.39292  1.0000
  H   H759      1.0  0.56681  0.07039  0.31095  1.0000
  C   C433      1.0  0.96704  0.25743  0.29443  1.0000
  C   C434      1.0  0.95790  0.24241  0.32392  1.0000
  C   C435      1.0  0.97307  0.23140  0.35019  1.0000
  H   H760      1.0  0.95510  0.26541  0.27424  1.0000
  H   H761      1.0  0.93892  0.23900  0.32598  1.0000
  H   H762      1.0  0.61872  0.05860  0.14776  1.0000
  H   H763      1.0  0.63972  0.09229  0.17811  1.0000
  C   C436      1.0  0.51031  0.16771  0.45186  1.0000
  C   C437      1.0  0.49494  0.16434  0.42074  1.0000
  H   H764      1.0  0.94694  0.16281  0.27372  1.0000
  H   H765      1.0  0.53878  0.13249  0.33657  1.0000
  S   S104      1.0  0.84130  0.05975  0.45019  1.0000
  H   H766      1.0  0.58572  0.03760  0.34658  1.0000
  C   C438      1.0  0.62977  0.00267  0.98982  1.0000
  H   H767      1.0  0.66021  0.06868  0.16170  1.0000
  H   H768      1.0  0.59290  0.12576  0.34609  1.0000
  C   C439      1.0  0.98173  0.17813  0.28470  1.0000
  H   H769      1.0  0.57651  0.12054  0.48022  1.0000
  H   H770      1.0  0.97663  0.06948  0.48456  1.0000
  C   C440      1.0  0.52177  0.07556  0.33776  1.0000
  C   C441      1.0  0.57693  0.13575  0.33676  1.0000
  S   S105      1.0  0.81797  0.99741  0.42365  1.0000
  H   H771      1.0  0.58652  0.09050  0.38744  1.0000
  C   C442      1.0  0.63345  0.06647  0.99502  1.0000
  C   C443      1.0  0.74620  0.00181  0.33172  1.0000
  H   H772      1.0  0.54023  0.14938  0.11092  1.0000
  H   H773      1.0  0.91152  0.01399  0.37909  1.0000
  N   N24       1.0  0.91531  0.01418  0.45898  1.0000
  S   S106      1.0  0.49895  0.12488  0.28574  1.0000
  H   H774      1.0  0.58762  0.13077  0.27534  1.0000
  S   S107      1.0  0.70236  0.99753  0.23899  1.0000
  H   H775      1.0  0.65809  0.09533  0.13376  1.0000
  H   H776      1.0  0.63729  0.06101  0.10369  1.0000
  H   H777      1.0  0.93108  0.27613  0.46812  1.0000
  H   H778      1.0  0.57374  0.15128  0.35719  1.0000
  Fe  Fe50      1.0  0.82095  0.02635  0.46987  1.0000
  H   H779      1.0  0.52738  0.10550  0.45212  1.0000
  H   H780      1.0  0.54972  0.13915  0.48276  1.0000
  H   H781      1.0  0.88377  0.99667  0.43758  1.0000
  H   H782      1.0  0.59231  0.08850  0.31678  1.0000
  H   H783      1.0  0.56274  0.15122  0.07206  1.0000
  H   H784      1.0  0.51304  0.10784  0.37242  1.0000
  H   H785      1.0  0.52597  0.23062  0.08398  1.0000
  S   S108      1.0  0.63557  0.00596  0.06941  1.0000
  C   C444      1.0  0.89252  0.01427  0.43696  1.0000
  C   C445      1.0  0.55025  0.13900  0.08734  1.0000
  H   H786      1.0  0.69701  0.00023  0.47618  1.0000
  H   H787      1.0  0.87121  0.99547  0.37112  1.0000
  H   H788      1.0  0.55558  0.06836  0.09504  1.0000
  H   H789      1.0  0.57805  0.03135  0.07735  1.0000
  H   H790      1.0  0.54114  0.17408  0.01536  1.0000
  H   H791      1.0  0.50058  0.04360  0.18641  1.0000
  N   N25       1.0  0.59166  0.08170  0.08714  1.0000
  C   C446      1.0  0.60270  0.06858  0.05172  1.0000
  C   C447      1.0  0.57340  0.06625  0.10803  1.0000
  C   C448      1.0  0.57857  0.10352  0.07317  1.0000
  C   C449      1.0  0.61032  0.09016  0.11449  1.0000
  C   C450      1.0  0.62818  0.07111  0.12833  1.0000
  N   N26       1.0  0.55156  0.10368  0.37147  1.0000
  C   C451      1.0  0.56406  0.11848  0.10512  1.0000
  H   H792      1.0  0.59551  0.03411  0.11971  1.0000
  Fe  Fe51      1.0  0.98883  0.30620  0.21037  1.0000
  C   C452      1.0  0.64767  0.08267  0.15189  1.0000
  H   H793      1.0  0.96078  0.02806  0.47979  1.0000
  H   H794      1.0  0.61149  0.05604  0.35464  1.0000
  H   H795      1.0  0.58840  0.06272  0.03218  1.0000
  H   H796      1.0  0.61185  0.05186  0.06002  1.0000
  H   H797      1.0  0.57064  0.07230  0.13907  1.0000
  C   C453      1.0  0.55848  0.02622  0.13119  1.0000
  H   H798      1.0  0.56603  0.09823  0.05021  1.0000
  H   H799      1.0  0.59129  0.11612  0.05926  1.0000
  H   H800      1.0  0.62078  0.10490  0.10139  1.0000
  H   H801      1.0  0.60162  0.09827  0.14136  1.0000
  H   H802      1.0  0.55653  0.03387  0.16119  1.0000
  Fe  Fe52      1.0  0.61289  0.00058  0.21107  1.0000
  H   H803      1.0  0.54108  0.02791  0.11702  1.0000
  H   H804      1.0  0.97676  0.23621  0.47757  1.0000
  C   C454      1.0  0.94831  0.04365  0.47943  1.0000
  C   C455      1.0  0.52686  0.09317  0.37167  1.0000
  H   H805      1.0  0.93270  0.04081  0.42329  1.0000
  S   S109      1.0  0.50616  0.16927  0.37181  1.0000
  H   H806      1.0  0.94678  0.18381  0.31459  1.0000
  H   H807      1.0  0.90580  0.11849  0.43783  1.0000
  C   C456      1.0  0.59660  0.05247  0.33504  1.0000
  C   C457      1.0  0.92656  0.03838  0.45418  1.0000
  H   H808      1.0  0.56406  0.06874  0.38805  1.0000
  H   H809      1.0  0.59775  0.15799  0.29758  1.0000
  H   H810      1.0  0.64380  0.05191  0.00839  1.0000
  H   H811      1.0  0.87171  0.09479  0.41473  1.0000
  C   C458      1.0  0.89710  0.10594  0.45699  1.0000
  H   H812      1.0  0.87906  0.02656  0.45178  1.0000
  C   C459      1.0  0.73625  0.00398  0.29470  1.0000
  H   H813      1.0  0.94892  0.19444  0.26558  1.0000
  H   H814      1.0  0.95039  0.08088  0.46227  1.0000
  H   H815      1.0  0.56320  0.00701  0.13336  1.0000
  H   H816      1.0  0.52324  0.08282  0.39840  1.0000
  H   H817      1.0  0.54427  0.20468  0.03220  1.0000
  H   H818      1.0  0.72415  0.01692  0.47234  1.0000
  C   C460      1.0  0.96234  0.06497  0.46427  1.0000
  C   C461      1.0  0.55301  0.11901  0.40812  1.0000
  C   C462      1.0  0.95442  0.17979  0.28472  1.0000
  H   H819      1.0  0.60443  0.04677  0.30593  1.0000
  C   C463      1.0  0.58256  0.14555  0.29633  1.0000
  H   H820      1.0  0.98001  0.16036  0.34028  1.0000
  H   H821      1.0  0.56680  0.15543  0.28575  1.0000
  H   H822      1.0  0.87632  0.02061  0.34010  1.0000
  C   C464      1.0  0.54711  0.10654  0.44725  1.0000
  H   H823      1.0  0.52849  0.17316  0.44562  1.0000
  H   H824      1.0  0.50262  0.08086  0.15187  1.0000
  H   H825      1.0  0.85724  0.02430  0.38340  1.0000
  C   C465      1.0  0.87363  0.01510  0.37080  1.0000
  C   C466      1.0  0.50814  0.23405  0.09635  1.0000
  C   C467      1.0  0.50011  0.22130  0.12945  1.0000
  H   H826      1.0  0.98374  0.14144  0.29799  1.0000
  H   H827      1.0  0.55489  0.08821  0.44731  1.0000
  C   C468      1.0  0.49548  0.06841  0.33882  1.0000
  H   H828      1.0  0.99195  0.11057  0.33287  1.0000
  H   H829      1.0  0.61493  0.01501  0.99566  1.0000
  H   H830      1.0  0.74580  0.01369  0.27224  1.0000
  H   H831      1.0  0.52588  0.08343  0.30913  1.0000
  C   C469      1.0  0.71394  0.99407  0.28656  1.0000
  H   H832      1.0  0.51173  0.20819  0.14197  1.0000
  H   H833      1.0  0.81048  0.00526  0.31534  1.0000
  H   H834      1.0  0.94971  0.30060  0.47648  1.0000
  C   C470      1.0  0.55665  0.12046  0.48195  1.0000
  Fe  Fe53      1.0  0.49401  0.16245  0.30884  1.0000
  C   C471      1.0  0.96912  0.32086  0.00749  1.0000
  C   C472      1.0  0.55020  0.19119  0.00944  1.0000
  C   C473      1.0  0.90193  0.31399  0.47156  1.0000
  C   C474      1.0  0.49357  0.25153  0.07963  1.0000
  H   H835      1.0  0.97083  0.06075  0.43504  1.0000
  H   H836      1.0  0.56980  0.18828  0.01120  1.0000
  H   H837      1.0  0.89443  0.29904  0.45439  1.0000
  H   H838      1.0  0.95823  0.31378  0.03111  1.0000
  Fe  Fe54      1.0  0.64079  0.99271  0.13186  1.0000
  H   H839      1.0  0.53721  0.13207  0.06656  1.0000
  H   H840      1.0  0.50177  0.00494  0.17021  1.0000
  C   C475      1.0  0.99014  0.15816  0.31165  1.0000
  H   H841      1.0  0.98813  0.17411  0.25419  1.0000
  H   H842      1.0  0.98815  0.19587  0.29382  1.0000
  H   H843      1.0  0.90074  0.32188  0.11519  1.0000
  C   C476      1.0  0.49588  0.99280  0.19352  1.0000
  C   C477      1.0  0.64280  0.99432  0.02116  1.0000
  S   S110      1.0  0.78137  0.02483  0.48647  1.0000
  H   H844      1.0  0.49230  0.05614  0.31378  1.0000
  H   H845      1.0  0.91404  0.32443  0.45224  1.0000
  H   H846      1.0  0.51303  0.21929  0.98747  1.0000
  S   S111      1.0  0.51261  0.29815  0.93942  1.0000
  H   H847      1.0  0.92150  0.32005  0.52300  1.0000
  C   C478      1.0  0.51927  0.03475  0.73034  1.0000
  C   C479      1.0  0.55001  0.01607  0.84188  1.0000
  S   S112      1.0  0.95885  0.28504  0.70627  1.0000
  H   H848      1.0  0.54003  0.22633  0.85877  1.0000
  H   H849      1.0  0.91176  0.25722  0.57341  1.0000
  H   H850      1.0  0.94115  0.27640  0.86730  1.0000
  H   H851      1.0  0.51647  0.01613  0.81342  1.0000
  H   H852      1.0  0.76530  0.05562  0.55728  1.0000
  H   H853      1.0  0.87706  0.00257  0.56426  1.0000
  Fe  Fe55      1.0  0.51738  0.12322  0.65929  1.0000
  S   S113      1.0  0.51679  0.15981  0.63324  1.0000
  S   S114      1.0  0.54772  0.09598  0.64957  1.0000
  H   H854      1.0  0.53402  0.17985  0.82120  1.0000
  H   H855      1.0  0.51037  0.27173  0.81988  1.0000
  H   H856      1.0  0.72006  0.00338  0.70776  1.0000
  N   N27       1.0  0.94963  0.27431  0.52212  1.0000
  C   C480      1.0  0.72339  0.99635  0.67839  1.0000
  H   H857      1.0  0.65326  0.04808  0.65269  1.0000
  Fe  Fe56      1.0  0.62183  0.01638  0.78559  1.0000
  S   S115      1.0  0.60318  0.05261  0.79022  1.0000
  S   S116      1.0  0.66126  0.00914  0.79260  1.0000
  C   C481      1.0  0.56259  0.08385  0.68914  1.0000
  C   C482      1.0  0.57854  0.06442  0.68228  1.0000
  C   C483      1.0  0.59089  0.05448  0.71306  1.0000
  C   C484      1.0  0.58755  0.06409  0.75090  1.0000
  C   C485      1.0  0.57151  0.08342  0.75779  1.0000
  C   C486      1.0  0.55896  0.09319  0.72709  1.0000
  H   H858      1.0  0.58146  0.05715  0.65298  1.0000
  H   H859      1.0  0.60332  0.03971  0.70737  1.0000
  H   H860      1.0  0.56888  0.09097  0.78697  1.0000
  H   H861      1.0  0.54681  0.10820  0.73268  1.0000
  H   H862      1.0  0.50148  0.07743  0.70123  1.0000
  H   H863      1.0  0.74302  0.04387  0.61660  1.0000
  H   H864      1.0  0.68895  0.07404  0.64494  1.0000
  C   C487      1.0  0.69167  0.05456  0.64847  1.0000
  N   N28       1.0  0.71382  0.05409  0.58060  1.0000
  H   H865      1.0  0.67380  0.11676  0.55514  1.0000
  Fe  Fe57      1.0  0.49678  0.17196  0.68950  1.0000
  H   H866      1.0  0.88780  0.22190  0.56324  1.0000
  C   C488      1.0  0.73613  0.05998  0.60204  1.0000
  C   C489      1.0  0.89314  0.08704  0.51931  1.0000
  C   C490      1.0  0.70322  0.07700  0.56568  1.0000
  C   C491      1.0  0.97073  0.26655  0.66653  1.0000
  C   C492      1.0  0.95728  0.24713  0.65333  1.0000
  C   C493      1.0  0.96587  0.23198  0.62205  1.0000
  C   C494      1.0  0.53502  0.02203  0.80715  1.0000
  H   H867      1.0  0.94006  0.24374  0.66746  1.0000
  H   H868      1.0  0.95531  0.21713  0.61250  1.0000
  H   H869      1.0  0.71190  0.08129  0.53693  1.0000
  H   H870      1.0  0.94358  0.31295  0.96365  1.0000
  H   H871      1.0  0.55795  0.26566  0.91356  1.0000
  H   H872      1.0  0.53182  0.00313  0.67254  1.0000
  H   H873      1.0  0.50332  0.19694  0.56402  1.0000
  H   H874      1.0  0.96911  0.27596  0.90849  1.0000
  C   C495      1.0  0.87387  0.07339  0.50617  1.0000
  H   H875      1.0  0.51450  0.15618  0.83746  1.0000
  H   H876      1.0  0.62007  0.05857  0.97574  1.0000
  H   H877      1.0  0.73302  0.04627  0.52541  1.0000
  H   H878      1.0  0.50662  0.22614  0.54370  1.0000
  C   C496      1.0  0.98792  0.26064  0.85521  1.0000
  N   N29       1.0  0.52906  0.00969  0.73515  1.0000
  S   S117      1.0  0.99136  0.14870  0.52221  1.0000
  C   C497      1.0  0.70118  0.02605  0.52358  1.0000
  H   H879      1.0  0.92012  0.23797  0.86964  1.0000
  Fe  Fe58      1.0  0.79183  0.99725  0.52980  1.0000
  H   H880      1.0  0.56207  0.02062  0.76047  1.0000
  H   H881      1.0  0.89687  0.02629  0.51257  1.0000
  H   H882      1.0  0.54066  0.27044  0.87092  1.0000
  H   H883      1.0  0.98597  0.26296  0.53264  1.0000
  H   H884      1.0  0.53414  0.04772  0.72857  1.0000
  H   H885      1.0  0.93026  0.29106  0.57217  1.0000
  H   H886      1.0  0.92675  0.19379  0.87110  1.0000
  H   H887      1.0  0.89889  0.08499  0.54875  1.0000
  H   H888      1.0  0.56819  0.02349  0.83775  1.0000
  H   H889      1.0  0.51552  0.03971  0.66760  1.0000
  H   H890      1.0  0.98116  0.24610  0.91329  1.0000
  C   C498      1.0  0.91536  0.30442  0.50594  1.0000
  H   H891      1.0  0.95652  0.29104  0.82946  1.0000
  H   H892      1.0  0.54613  0.23003  0.57307  1.0000
  H   H893      1.0  0.91858  0.21297  0.56825  1.0000
  H   H894      1.0  0.55146  0.99644  0.84541  1.0000
  H   H895      1.0  0.55747  0.01627  0.69240  1.0000
  Fe  Fe59      1.0  0.97271  0.31773  0.74030  1.0000
  H   H896      1.0  0.55072  0.11195  0.50956  1.0000
  H   H897      1.0  0.96119  0.32128  0.53932  1.0000
  H   H898      1.0  0.94843  0.22037  0.82127  1.0000
  H   H899      1.0  0.70448  0.02358  0.61495  1.0000
  C   C499      1.0  0.66944  0.04478  0.66960  1.0000
  C   C500      1.0  0.54333  0.00284  0.69812  1.0000
  H   H900      1.0  0.70701  0.05190  0.66757  1.0000
  C   C501      1.0  0.51478  0.19038  0.89777  1.0000
  H   H901      1.0  0.62603  0.00258  0.92713  1.0000
  S   S118      1.0  0.50761  0.20696  0.72025  1.0000
  C   C502      1.0  0.72131  0.03716  0.54721  1.0000
  C   C503      1.0  0.51513  0.17485  0.82730  1.0000
  C   C504      1.0  0.50891  0.24280  0.77697  1.0000
  H   H902      1.0  0.57015  0.25704  0.86577  1.0000
  C   C505      1.0  0.95680  0.32421  0.60200  1.0000
  H   H903      1.0  0.50081  0.21227  0.63038  1.0000
  H   H904      1.0  0.75135  0.08495  0.55908  1.0000
  S   S119      1.0  0.92896  0.12041  0.51363  1.0000
  C   C506      1.0  0.75729  0.06987  0.57694  1.0000
  H   H905      1.0  0.79234  0.08500  0.58368  1.0000
  C   C507      1.0  0.67567  0.07811  0.56155  1.0000
  C   C508      1.0  0.98426  0.26372  0.90003  1.0000
  H   H906      1.0  0.73198  0.07343  0.62584  1.0000
  N   N30       1.0  0.50875  0.21081  0.92618  1.0000
  C   C509      1.0  0.77724  0.07858  0.60248  1.0000
  H   H907      1.0  0.98397  0.28845  0.50330  1.0000
  C   C510      1.0  0.96367  0.30977  0.56475  1.0000
  H   H908      1.0  0.54257  0.20148  0.59601  1.0000
  C   C511      1.0  0.54574  0.01044  0.76861  1.0000
  C   C512      1.0  0.94800  0.27379  0.83671  1.0000
  H   H909      1.0  0.93137  0.27741  0.78048  1.0000
  H   H910      1.0  0.51121  0.24074  0.61672  1.0000
  C   C513      1.0  0.92627  0.27147  0.81030  1.0000
  C   C514      1.0  0.69702  0.04151  0.60857  1.0000
  C   C515      1.0  0.49562  0.22381  0.76185  1.0000
  H   H911      1.0  0.66669  0.05378  0.69866  1.0000
  C   C516      1.0  0.93262  0.20579  0.89494  1.0000
  C   C517      1.0  0.90512  0.28712  0.82562  1.0000
  S   S120      1.0  0.50070  0.13602  0.71669  1.0000
  C   C518      1.0  0.53773  0.21227  0.57068  1.0000
  H   H912      1.0  0.51463  0.16670  0.51431  1.0000
  H   H913      1.0  0.77072  0.09353  0.62216  1.0000
  C   C519      1.0  0.49934  0.22607  0.60761  1.0000
  H   H914      1.0  0.54498  0.20304  0.54362  1.0000
  H   H915      1.0  0.68818  0.01643  0.54242  1.0000
  C   C520      1.0  0.91340  0.24839  0.54419  1.0000
  H   H916      1.0  0.72126  0.99327  0.50714  1.0000
  S   S121      1.0  0.77680  0.00106  0.59354  1.0000
  H   H917      1.0  0.86493  0.06110  0.52552  1.0000
  H   H918      1.0  0.92024  0.25277  0.80776  1.0000
  H   H919      1.0  0.95898  0.24624  0.77217  1.0000
  H   H920      1.0  0.66896  0.06232  0.54587  1.0000
  H   H921      1.0  0.95569  0.27440  0.58380  1.0000
  C   C521      1.0  0.71159  0.00803  0.49307  1.0000
  C   C522      1.0  0.50244  0.16418  0.49104  1.0000
  H   H922      1.0  0.67972  0.03774  0.59536  1.0000
  C   C523      1.0  0.98815  0.23601  0.60340  1.0000
  C   C524      1.0  0.96092  0.32029  0.96902  1.0000
  H   H923      1.0  0.78400  0.06373  0.62016  1.0000
  H   H924      1.0  0.55155  0.18625  0.94746  1.0000
  H   H925      1.0  0.54154  0.02421  0.86895  1.0000
  H   H926      1.0  0.66633  0.07905  0.59074  1.0000
  H   H927      1.0  0.91058  0.30602  0.82884  1.0000
  H   H928      1.0  0.89050  0.28624  0.80479  1.0000
  C   C525      1.0  0.74961  0.99293  0.61892  1.0000
  C   C526      1.0  0.94887  0.28669  0.56171  1.0000
  C   C527      1.0  0.90606  0.22244  0.54934  1.0000
  C   C528      1.0  0.93731  0.23079  0.87980  1.0000
  N   N31       1.0  0.96634  0.25372  0.83276  1.0000
  H   H929      1.0  0.50794  0.04047  0.75642  1.0000
  C   C529      1.0  0.51735  0.20454  0.96586  1.0000
  C   C530      1.0  0.90902  0.01134  0.50181  1.0000
  C   C531      1.0  0.51894  0.23434  0.91327  1.0000
  C   C532      1.0  0.54292  0.23336  0.88864  1.0000
  H   H930      1.0  0.90585  0.21292  0.52062  1.0000
  C   C533      1.0  0.54454  0.19995  0.96895  1.0000
  C   C534      1.0  0.50380  0.03864  0.69445  1.0000
  C   C535      1.0  0.55350  0.25818  0.88457  1.0000
  H   H931      1.0  0.95936  0.31325  0.62812  1.0000
  H   H932      1.0  0.50562  0.17578  0.79959  1.0000
  H   H933      1.0  0.94198  0.04822  0.50988  1.0000
  H   H934      1.0  0.98301  0.30502  0.56574  1.0000
  H   H935      1.0  0.53435  0.18828  0.89219  1.0000
  C   C536      1.0  0.49995  0.25714  0.80901  1.0000
  C   C537      1.0  0.51057  0.21503  0.56905  1.0000
  H   H936      1.0  0.91828  0.20674  0.91834  1.0000
  H   H937      1.0  0.52125  0.24631  0.93914  1.0000
  H   H938      1.0  0.93850  0.24064  0.49691  1.0000
  H   H939      1.0  0.55655  0.22175  0.90141  1.0000
  H   H940      1.0  0.73232  0.02218  0.55814  1.0000
  C   C538      1.0  0.95667  0.23006  0.84591  1.0000
  H   H941      1.0  0.50911  0.17315  0.91055  1.0000
  H   H942      1.0  0.55427  0.21685  0.96477  1.0000
  H   H943      1.0  0.67158  0.02531  0.67399  1.0000
  Fe  Fe60      1.0  0.98799  0.18898  0.51923  1.0000
  H   H944      1.0  0.53465  0.04180  0.80481  1.0000
  H   H945      1.0  0.69184  0.04006  0.50746  1.0000
  H   H946      1.0  0.70729  0.09245  0.58519  1.0000
  H   H947      1.0  0.98177  0.22312  0.72236  1.0000
  C   C539      1.0  0.66811  0.10029  0.53972  1.0000
  H   H948      1.0  0.94903  0.19814  0.90729  1.0000
  S   S122      1.0  0.83180  0.00076  0.51562  1.0000
  H   H949      1.0  0.52628  0.24653  0.76367  1.0000
  H   H950      1.0  0.67609  0.09976  0.50951  1.0000
  H   H951      1.0  0.89824  0.28084  0.85435  1.0000
  C   C540      1.0  0.97424  0.25145  0.79011  1.0000
  H   H952      1.0  0.75786  0.01290  0.67094  1.0000
  H   H953      1.0  0.97166  0.21819  0.85439  1.0000
  C   C541      1.0  0.74486  0.00169  0.65738  1.0000
  C   C542      1.0  0.50311  0.19200  0.85768  1.0000
  C   C543      1.0  0.97564  0.27092  0.50900  1.0000
  H   H954      1.0  0.90245  0.29486  0.52485  1.0000
  H   H955      1.0  0.50609  0.24419  0.89534  1.0000
  H   H956      1.0  0.95092  0.23837  0.54351  1.0000
  C   C544      1.0  0.90486  0.10352  0.49496  1.0000
  C   C545      1.0  0.93912  0.24976  0.52598  1.0000
  H   H957      1.0  0.94232  0.24219  0.90473  1.0000
  H   H958      1.0  0.90046  0.25649  0.52461  1.0000
  H   H959      1.0  0.64832  0.10095  0.53815  1.0000
  H   H960      1.0  0.92523  0.01255  0.51929  1.0000
  C   C546      1.0  0.50830  0.99308  0.74191  1.0000
  H   H961      1.0  0.50775  0.18858  0.97681  1.0000
  H   H962      1.0  0.49716  0.24974  0.67952  1.0000
  H   H963      1.0  0.50415  0.21031  0.84646  1.0000
  S   S123      1.0  0.95227  0.18782  0.49152  1.0000
  H   H964      1.0  0.98002  0.26904  0.77901  1.0000
  C   C547      1.0  0.93707  0.28839  0.49167  1.0000
  Fe  Fe61      1.0  0.95655  0.14750  0.49042  1.0000
  C   C548      1.0  0.63600  0.99559  0.95079  1.0000
  H   H965      1.0  0.99095  0.21547  0.79219  1.0000
  H   H966      1.0  0.49285  0.00279  0.75690  1.0000
  H   H967      1.0  0.64608  0.07704  0.97684  1.0000
  H   H968      1.0  0.55272  0.99238  0.77508  1.0000
  H   H969      1.0  0.59732  0.50265  0.04638  1.0000
  C   C549      1.0  0.95665  0.42323  0.08342  1.0000
  C   C550      1.0  0.79448  0.54912  0.34363  1.0000
  C   C551      1.0  0.91220  0.35575  0.09236  1.0000
  S   S124      1.0  0.70426  0.51357  0.02771  1.0000
  H   H970      1.0  0.72070  0.46435  0.04273  1.0000
  H   H971      1.0  0.65984  0.42774  0.01293  1.0000
  Fe  Fe62      1.0  0.82387  0.48613  0.27625  1.0000
  S   S125      1.0  0.85648  0.50260  0.24844  1.0000
  S   S126      1.0  0.83235  0.47662  0.33956  1.0000
  Fe  Fe63      1.0  0.79945  0.48481  0.19548  1.0000
  S   S127      1.0  0.83105  0.50128  0.16437  1.0000
  S   S128      1.0  0.76913  0.46932  0.15955  1.0000
  Fe  Fe64      1.0  0.85352  0.47658  0.19876  1.0000
  S   S129      1.0  0.88893  0.46050  0.17560  1.0000
  Fe  Fe65      1.0  0.83151  0.52584  0.21694  1.0000
  S   S130      1.0  0.83834  0.56528  0.21076  1.0000
  S   S131      1.0  0.82235  0.45837  0.22743  1.0000
  S   S132      1.0  0.79839  0.51120  0.24691  1.0000
  Fe  Fe66      1.0  0.94857  0.33963  0.18579  1.0000
  S   S133      1.0  0.90935  0.34987  0.19431  1.0000
  S   S134      1.0  0.97331  0.36296  0.15148  1.0000
  Fe  Fe67      1.0  0.96538  0.62529  0.18764  1.0000
  S   S135      1.0  0.94358  0.60263  0.22929  1.0000
  H   H972      1.0  0.86412  0.39963  0.45509  1.0000
  H   H973      1.0  0.86059  0.42983  0.43925  1.0000
  H   H974      1.0  0.80172  0.53095  0.33637  1.0000
  C   C552      1.0  0.82296  0.48465  0.38882  1.0000
  C   C553      1.0  0.80037  0.49466  0.39888  1.0000
  C   C554      1.0  0.83862  0.48011  0.41901  1.0000
  H   H975      1.0  0.78783  0.49781  0.37639  1.0000
  H   H976      1.0  0.85614  0.47242  0.41190  1.0000
  C   C555      1.0  0.86831  0.57443  0.21260  1.0000
  C   C556      1.0  0.88416  0.56289  0.23661  1.0000
  C   C557      1.0  0.90709  0.57187  0.24141  1.0000
  C   C558      1.0  0.91486  0.59181  0.22081  1.0000
  C   C559      1.0  0.89939  0.60298  0.19568  1.0000
  C   C560      1.0  0.87597  0.59456  0.19220  1.0000
  H   H977      1.0  0.87842  0.54760  0.25270  1.0000
  H   H978      1.0  0.91881  0.56340  0.26137  1.0000
  H   H979      1.0  0.90520  0.61848  0.17989  1.0000
  H   H980      1.0  0.86375  0.60366  0.17371  1.0000
  C   C561      1.0  0.89400  0.42975  0.18134  1.0000
  C   C562      1.0  0.87523  0.41359  0.18167  1.0000
  C   C563      1.0  0.87999  0.38905  0.18588  1.0000
  C   C564      1.0  0.90346  0.38068  0.19031  1.0000
  C   C565      1.0  0.92207  0.39698  0.19082  1.0000
  C   C566      1.0  0.91743  0.42132  0.18541  1.0000
  H   H981      1.0  0.85711  0.41995  0.17803  1.0000
  H   H982      1.0  0.86549  0.37653  0.18539  1.0000
  H   H983      1.0  0.94008  0.39092  0.19565  1.0000
  H   H984      1.0  0.93204  0.43366  0.18510  1.0000
  H   H985      1.0  0.52479  0.64548  0.04461  1.0000
  H   H986      1.0  0.55686  0.46877  0.00926  1.0000
  H   H987      1.0  0.90965  0.36206  0.03038  1.0000
  H   H988      1.0  0.63439  0.49444  0.07167  1.0000
  H   H989      1.0  0.73248  0.40906  0.11856  1.0000
  H   H990      1.0  0.96235  0.38494  0.07428  1.0000
  H   H991      1.0  0.88995  0.41559  0.43750  1.0000
  H   H992      1.0  0.85758  0.41003  0.10200  1.0000
  H   H993      1.0  0.57238  0.58864  0.00520  1.0000
  C   C567      1.0  0.72372  0.50084  0.06217  1.0000
  C   C568      1.0  0.73448  0.51602  0.08937  1.0000
  C   C569      1.0  0.74917  0.50683  0.11826  1.0000
  C   C570      1.0  0.75306  0.48217  0.12087  1.0000
  C   C571      1.0  0.74256  0.46700  0.09332  1.0000
  C   C572      1.0  0.72829  0.47624  0.06389  1.0000
  H   H994      1.0  0.73128  0.53508  0.08832  1.0000
  H   H995      1.0  0.75697  0.51881  0.13915  1.0000
  H   H996      1.0  0.74566  0.44797  0.09466  1.0000
  H   H997      1.0  0.52441  0.50227  0.99810  1.0000
  H   H998      1.0  0.68050  0.43558  0.12959  1.0000
  H   H999      1.0  0.56116  0.53884  0.01614  1.0000
  H   H1000     1.0  0.92260  0.45257  0.25255  1.0000
  H   H1001     1.0  0.64173  0.44818  0.11083  1.0000
  S   S136      1.0  0.96387  0.65344  0.04788  1.0000
  C   C573      1.0  0.56793  0.52023  0.01858  1.0000
  H   H1002     1.0  0.77606  0.50752  0.44572  1.0000
  H   H1003     1.0  0.97887  0.57466  0.28120  1.0000
  H   H1004     1.0  0.84699  0.40029  0.39070  1.0000
  H   H1005     1.0  0.94137  0.39341  0.11235  1.0000
  H   H1006     1.0  0.90750  0.51596  0.12998  1.0000
  H   H1007     1.0  0.98181  0.47232  0.17174  1.0000
  C   C574      1.0  0.61225  0.38005  0.06774  1.0000
  C   C575      1.0  0.71779  0.40336  0.13885  1.0000
  N   N32       1.0  0.83657  0.56818  0.34630  1.0000
  C   C576      1.0  0.84846  0.54417  0.33770  1.0000
  H   H1008     1.0  0.97976  0.33693  0.32493  1.0000
  C   C577      1.0  0.85116  0.58657  0.32477  1.0000
  C   C578      1.0  0.83515  0.57476  0.38939  1.0000
  C   C579      1.0  0.83308  0.55391  0.41849  1.0000
  C   C580      1.0  0.87548  0.54253  0.34635  1.0000
  C   C581      1.0  0.84072  0.61239  0.32570  1.0000
  C   C582      1.0  0.97547  0.65459  0.99843  1.0000
  C   C583      1.0  0.88408  0.51669  0.34994  1.0000
  C   C584      1.0  0.85872  0.62964  0.30765  1.0000
  H   H1009     1.0  0.84683  0.53920  0.30637  1.0000
  H   H1010     1.0  0.83910  0.52981  0.35358  1.0000
  H   H1011     1.0  0.91636  0.43999  0.32010  1.0000
  H   H1012     1.0  0.81375  0.56674  0.29701  1.0000
  H   H1013     1.0  0.85379  0.58110  0.29350  1.0000
  H   H1014     1.0  0.86938  0.58772  0.33641  1.0000
  H   H1015     1.0  0.85129  0.58473  0.39772  1.0000
  H   H1016     1.0  0.81988  0.58743  0.39603  1.0000
  H   H1017     1.0  0.85022  0.54372  0.41907  1.0000
  C   C585      1.0  0.93268  0.40105  0.01456  1.0000
  H   H1018     1.0  0.88625  0.55051  0.32221  1.0000
  H   H1019     1.0  0.87942  0.55242  0.37360  1.0000
  H   H1020     1.0  0.83601  0.61861  0.35602  1.0000
  H   H1021     1.0  0.82450  0.61341  0.30822  1.0000
  H   H1022     1.0  0.84083  0.57560  0.46992  1.0000
  H   H1023     1.0  0.59673  0.37871  0.04875  1.0000
  C   C586      1.0  0.94705  0.39743  0.08187  1.0000
  H   H1024     1.0  0.88061  0.50622  0.32303  1.0000
  H   H1025     1.0  0.90360  0.51618  0.35447  1.0000
  H   H1026     1.0  0.87474  0.50832  0.37518  1.0000
  H   H1027     1.0  0.68750  0.43845  0.02775  1.0000
  H   H1028     1.0  0.88690  0.32586  0.48254  1.0000
  H   H1029     1.0  0.87665  0.38357  0.05052  1.0000
  N   N33       1.0  0.66514  0.42484  0.07480  1.0000
  H   H1030     1.0  0.86633  0.44566  0.28693  1.0000
  N   N34       1.0  0.97003  0.51939  0.19658  1.0000
  C   C587      1.0  0.65096  0.44791  0.08138  1.0000
  H   H1031     1.0  0.51285  0.64463  0.09406  1.0000
  H   H1032     1.0  0.71545  0.41676  0.16316  1.0000
  H   H1033     1.0  0.90195  0.40381  0.10327  1.0000
  C   C588      1.0  0.66547  0.47123  0.07776  1.0000
  C   C589      1.0  0.68558  0.42500  0.10247  1.0000
  C   C590      1.0  0.97527  0.49797  0.22108  1.0000
  H   H1034     1.0  0.92555  0.47739  0.28618  1.0000
  C   C591      1.0  0.90912  0.53260  0.14783  1.0000
  C   C592      1.0  0.65012  0.49312  0.09004  1.0000
  H   H1035     1.0  0.87520  0.63019  0.32458  1.0000
  C   C593      1.0  0.98272  0.45316  0.22520  1.0000
  H   H1036     1.0  0.70124  0.43430  0.08919  1.0000
  H   H1037     1.0  0.92385  0.40398  0.29476  1.0000
  H   H1038     1.0  0.95329  0.46934  0.19761  1.0000
  H   H1039     1.0  0.63663  0.44944  0.06000  1.0000
  H   H1040     1.0  0.82632  0.54781  0.48011  1.0000
  H   H1041     1.0  0.86364  0.62407  0.27699  1.0000
  C   C594      1.0  0.83193  0.48548  0.45851  1.0000
  H   H1042     1.0  0.68100  0.39330  0.13816  1.0000
  H   H1043     1.0  0.60409  0.53214  0.02860  1.0000
  H   H1044     1.0  0.93211  0.51412  0.20707  1.0000
  H   H1045     1.0  0.67183  0.47359  0.04708  1.0000
  H   H1046     1.0  0.68115  0.47124  0.09640  1.0000
  H   H1047     1.0  0.66083  0.50950  0.08622  1.0000
  H   H1048     1.0  0.83633  0.42413  0.32211  1.0000
  C   C595      1.0  0.62653  0.40229  0.05774  1.0000
  C   C596      1.0  0.80930  0.49538  0.46862  1.0000
  H   H1049     1.0  0.80493  0.41617  0.27573  1.0000
  H   H1050     1.0  0.64156  0.40623  0.11466  1.0000
  C   C597      1.0  0.69459  0.40061  0.11732  1.0000
  H   H1051     1.0  0.79049  0.55111  0.37538  1.0000
  C   C598      1.0  0.94509  0.51658  0.18194  1.0000
  H   H1052     1.0  0.89513  0.32552  0.06431  1.0000
  C   C599      1.0  0.97251  0.47314  0.20093  1.0000
  H   H1053     1.0  0.89882  0.47463  0.25920  1.0000
  H   H1054     1.0  0.64406  0.49221  0.12118  1.0000
  C   C600      1.0  0.64845  0.40458  0.08374  1.0000
  C   C601      1.0  0.68759  0.40061  0.01874  1.0000
  H   H1055     1.0  0.93609  0.55452  0.17190  1.0000
  H   H1056     1.0  0.89787  0.53106  0.17504  1.0000
  H   H1057     1.0  0.91988  0.35424  0.33000  1.0000
  H   H1058     1.0  0.84391  0.41383  0.05597  1.0000
  H   H1059     1.0  0.97859  0.55561  0.14034  1.0000
  H   H1060     1.0  0.97951  0.43560  0.21089  1.0000
  C   C602      1.0  0.87061  0.41273  0.43345  1.0000
  H   H1061     1.0  0.55446  0.50997  0.03545  1.0000
  H   H1062     1.0  0.96765  0.55782  0.20647  1.0000
  H   H1063     1.0  0.89373  0.42571  0.36840  1.0000
  H   H1064     1.0  0.95500  0.54123  0.24462  1.0000
  H   H1065     1.0  0.89495  0.36421  0.10265  1.0000
  C   C603      1.0  0.54133  0.46689  0.99053  1.0000
  C   C604      1.0  0.79366  0.49998  0.43841  1.0000
  H   H1066     1.0  0.84148  0.39310  0.32960  1.0000
  C   C605      1.0  0.82701  0.56310  0.46004  1.0000
  C   C606      1.0  0.93527  0.53686  0.15696  1.0000
  H   H1067     1.0  0.90208  0.54783  0.13132  1.0000
  H   H1068     1.0  0.52742  0.43811  0.02524  1.0000
  H   H1069     1.0  0.80789  0.38449  0.28403  1.0000
  H   H1070     1.0  0.94664  0.36859  0.31198  1.0000
  H   H1071     1.0  0.96346  0.49837  0.24810  1.0000
  H   H1072     1.0  0.89375  0.46261  0.32970  1.0000
  H   H1073     1.0  0.88681  0.38587  0.27791  1.0000
  H   H1074     1.0  0.91885  0.39768  0.34605  1.0000
  C   C607      1.0  0.81202  0.56844  0.32953  1.0000
  H   H1075     1.0  0.81060  0.39561  0.23517  1.0000
  H   H1076     1.0  0.80265  0.58579  0.33627  1.0000
  H   H1077     1.0  0.86458  0.43810  0.36658  1.0000
  Fe  Fe68      1.0  0.97923  0.64749  0.10842  1.0000
  H   H1078     1.0  0.87619  0.38588  0.38827  1.0000
  H   H1079     1.0  0.85005  0.38476  0.25982  1.0000
  H   H1080     1.0  0.88751  0.42590  0.26316  1.0000
  C   C608      1.0  0.92200  0.36661  0.05390  1.0000
  H   H1081     1.0  0.61419  0.41791  0.06214  1.0000
  H   H1082     1.0  0.84759  0.41599  0.24954  1.0000
  H   H1083     1.0  0.86423  0.43594  0.07328  1.0000
  H   H1084     1.0  0.88271  0.40884  0.02046  1.0000
  H   H1085     1.0  0.76150  0.56882  0.33294  1.0000
  C   C609      1.0  0.59015  0.52102  0.04275  1.0000
  H   H1086     1.0  0.67647  0.38474  0.02397  1.0000
  H   H1087     1.0  0.72310  0.38600  0.15116  1.0000
  H   H1088     1.0  0.81926  0.54108  0.41072  1.0000
  N   N35       1.0  0.87372  0.41343  0.31897  1.0000
  C   C610      1.0  0.87522  0.42124  0.36123  1.0000
  C   C611      1.0  0.88165  0.43334  0.29243  1.0000
  C   C612      1.0  0.84774  0.40842  0.31218  1.0000
  C   C613      1.0  0.88807  0.39086  0.30931  1.0000
  C   C614      1.0  0.91519  0.39179  0.31590  1.0000
  C   C615      1.0  0.86648  0.40325  0.39219  1.0000
  C   C616      1.0  0.84156  0.40201  0.26966  1.0000
  C   C617      1.0  0.90160  0.44994  0.30704  1.0000
  C   C618      1.0  0.91276  0.46452  0.27415  1.0000
  C   C619      1.0  0.92705  0.36724  0.30875  1.0000
  H   H1089     1.0  0.88044  0.37551  0.32528  1.0000
  C   C620      1.0  0.81458  0.39942  0.26610  1.0000
  H   H1090     1.0  0.51664  0.46735  0.04138  1.0000
  H   H1091     1.0  0.92399  0.36053  0.27868  1.0000
  H   H1092     1.0  0.94405  0.50026  0.16310  1.0000
  C   C621      1.0  0.86057  0.41651  0.07188  1.0000
  H   H1093     1.0  0.93885  0.35648  0.04599  1.0000
  H   H1094     1.0  0.85070  0.64791  0.30762  1.0000
  H   H1095     1.0  0.65801  0.38709  0.08143  1.0000
  H   H1096     1.0  0.63216  0.40070  0.02641  1.0000
  H   H1097     1.0  0.80922  0.57225  0.46174  1.0000
  H   H1098     1.0  0.54815  0.38463  0.99928  1.0000
  H   H1099     1.0  0.62353  0.36365  0.06278  1.0000
  C   C622      1.0  0.77052  0.55161  0.32411  1.0000
  H   H1100     1.0  0.70471  0.39863  0.03355  1.0000
  H   H1101     1.0  0.77309  0.55078  0.29185  1.0000
  C   C623      1.0  0.90505  0.40708  0.07158  1.0000
  H   H1102     1.0  0.58546  0.52896  0.07207  1.0000
  C   C624      1.0  0.51554  0.65621  0.06848  1.0000
  H   H1103     1.0  0.94251  0.43607  0.09449  1.0000
  N   N36       1.0  0.92666  0.39307  0.05542  1.0000
  H   H1104     1.0  0.96335  0.42889  0.05428  1.0000
  S   S137      1.0  0.98196  0.61027  0.13155  1.0000
  H   H1105     1.0  0.75869  0.53681  0.33313  1.0000
  S   S138      1.0  0.97112  0.33900  0.23779  1.0000
  C   C625      1.0  0.97038  0.54129  0.22296  1.0000
  H   H1106     1.0  0.90821  0.42658  0.06998  1.0000
  H   H1107     1.0  0.95560  0.37075  0.99291  1.0000
  C   C626      1.0  0.67452  0.42395  0.03294  1.0000
  H   H1108     1.0  0.57720  0.41501  0.02016  1.0000
  H   H1109     1.0  0.69797  0.38727  0.09340  1.0000
  C   C627      1.0  0.88134  0.40270  0.05095  1.0000
  H   H1110     1.0  0.94545  0.53729  0.12858  1.0000
  H   H1111     1.0  0.92523  0.35800  0.11543  1.0000
  C   C628      1.0  0.98848  0.52007  0.16309  1.0000
  H   H1112     1.0  0.60543  0.38100  0.09861  1.0000
  H   H1113     1.0  0.50518  0.45342  0.99805  1.0000
  H   H1114     1.0  0.93338  0.42088  0.01364  1.0000
  C   C629      1.0  0.52131  0.45585  0.01528  1.0000
  H   H1115     1.0  0.84422  0.48184  0.48121  1.0000
  H   H1116     1.0  0.50439  0.39056  0.02249  1.0000
  H   H1117     1.0  0.97395  0.45330  0.25484  1.0000
  Fe  Fe69      1.0  0.99006  0.32881  0.12734  1.0000
  H   H1118     1.0  0.97431  0.65374  0.34855  1.0000
  H   H1119     1.0  0.98284  0.50858  0.13834  1.0000
  H   H1120     1.0  0.97134  0.42046  0.14107  1.0000
  H   H1121     1.0  0.97203  0.39533  0.01198  1.0000
  C   C630      1.0  0.97737  0.42502  0.11093  1.0000
  H   H1122     1.0  0.91818  0.39603  0.99491  1.0000
  H   H1123     1.0  0.98415  0.44352  0.11142  1.0000
  C   C631      1.0  0.57583  0.41080  0.98948  1.0000
  C   C632      1.0  0.95626  0.39046  0.99520  1.0000
  C   C633      1.0  0.90809  0.32900  0.08730  1.0000
  C   C634      1.0  0.99166  0.32994  0.01510  1.0000
  Fe  Fe70      1.0  0.68168  0.48237  0.89255  1.0000
  S   S139      1.0  0.68400  0.51899  0.91984  1.0000
  S   S140      1.0  0.70344  0.46871  0.83756  1.0000
  Fe  Fe71      1.0  0.64358  0.51980  0.92238  1.0000
  S   S141      1.0  0.62100  0.54983  0.89663  1.0000
  S   S142      1.0  0.64126  0.48402  0.89146  1.0000
  C   C635      1.0  0.63908  0.55771  0.78644  1.0000
  H   H1124     1.0  0.67374  0.47691  0.76599  1.0000
  H   H1125     1.0  0.59171  0.47013  0.86003  1.0000
  Fe  Fe72      1.0  0.80536  0.50454  0.66795  1.0000
  S   S143      1.0  0.84354  0.49536  0.68185  1.0000
  S   S144      1.0  0.77928  0.51703  0.71878  1.0000
  Fe  Fe73      1.0  0.81642  0.49828  0.57806  1.0000
  S   S145      1.0  0.85470  0.48813  0.58686  1.0000
  S   S146      1.0  0.79961  0.50245  0.51808  1.0000
  Fe  Fe74      1.0  0.84099  0.46613  0.63667  1.0000
  S   S147      1.0  0.85492  0.42830  0.64536  1.0000
  Fe  Fe75      1.0  0.85448  0.51823  0.63157  1.0000
  S   S148      1.0  0.88803  0.54065  0.62920  1.0000
  S   S149      1.0  0.80218  0.47380  0.62507  1.0000
  S   S150      1.0  0.81680  0.52993  0.62032  1.0000
  H   H1126     1.0  0.96953  0.64004  0.56870  1.0000
  H   H1127     1.0  0.97123  0.46718  0.68196  1.0000
  Fe  Fe76      1.0  0.96144  0.37083  0.76124  1.0000
  S   S151      1.0  0.94125  0.40610  0.75467  1.0000
  H   H1128     1.0  0.64319  0.46944  0.75757  1.0000
  H   H1129     1.0  0.96108  0.45446  0.77607  1.0000
  Fe  Fe77      1.0  0.94944  0.63615  0.75711  1.0000
  S   S152      1.0  0.91296  0.61906  0.75730  1.0000
  C   C636      1.0  0.89404  0.56299  0.66440  1.0000
  C   C637      1.0  0.87809  0.56854  0.69587  1.0000
  C   C638      1.0  0.88409  0.58581  0.72410  1.0000
  C   C639      1.0  0.90611  0.59749  0.72126  1.0000
  C   C640      1.0  0.92197  0.59200  0.68962  1.0000
  C   C641      1.0  0.91580  0.57503  0.66110  1.0000
  H   H1130     1.0  0.86122  0.55944  0.69860  1.0000
  H   H1131     1.0  0.87169  0.59002  0.74843  1.0000
  H   H1132     1.0  0.93895  0.60085  0.68705  1.0000
  H   H1133     1.0  0.92804  0.57107  0.63649  1.0000
  C   C642      1.0  0.91701  0.41142  0.72442  1.0000
  C   C643      1.0  0.90572  0.43401  0.72641  1.0000
  C   C644      1.0  0.88699  0.43952  0.70189  1.0000
  C   C645      1.0  0.87908  0.42230  0.67555  1.0000
  C   C646      1.0  0.88997  0.39948  0.67421  1.0000
  C   C647      1.0  0.90902  0.39409  0.69833  1.0000
  H   H1134     1.0  0.91155  0.44732  0.74705  1.0000
  H   H1135     1.0  0.87866  0.45706  0.70338  1.0000
  H   H1136     1.0  0.88377  0.38597  0.65420  1.0000
  H   H1137     1.0  0.91748  0.37656  0.69673  1.0000
  H   H1138     1.0  0.92923  0.46281  0.59112  1.0000
  H   H1139     1.0  0.66596  0.55175  0.72656  1.0000
  Fe  Fe78      1.0  0.97603  0.33695  0.82654  1.0000
  S   S153      1.0  0.68076  0.46331  0.95024  1.0000
  C   C648      1.0  0.63602  0.58499  0.78093  1.0000
  H   H1140     1.0  0.54632  0.45402  0.96635  1.0000
  C   C649      1.0  0.54224  0.52901  0.94269  1.0000
  C   C650      1.0  0.57154  0.39992  0.91065  1.0000
  C   C651      1.0  0.58835  0.41698  0.92245  1.0000
  H   H1141     1.0  0.57009  0.39572  0.87994  1.0000
  H   H1142     1.0  0.59961  0.42565  0.90086  1.0000
  C   C652      1.0  0.59802  0.56906  0.91803  1.0000
  N   N37       1.0  0.66449  0.54851  0.78969  1.0000
  Fe  Fe79      1.0  0.68147  0.50020  0.97758  1.0000
  C   C653      1.0  0.56528  0.59801  0.90906  1.0000
  C   C654      1.0  0.58365  0.58248  0.89353  1.0000
  H   H1143     1.0  0.55451  0.60828  0.88980  1.0000
  H   H1144     1.0  0.58677  0.58093  0.86229  1.0000
  C   C655      1.0  0.72574  0.48173  0.80603  1.0000
  C   C656      1.0  0.73132  0.47089  0.76922  1.0000
  C   C657      1.0  0.74814  0.48095  0.74268  1.0000
  C   C658      1.0  0.75975  0.50206  0.75254  1.0000
  C   C659      1.0  0.75457  0.51258  0.78969  1.0000
  C   C660      1.0  0.73794  0.50238  0.81639  1.0000
  H   H1145     1.0  0.72217  0.45484  0.76081  1.0000
  H   H1146     1.0  0.75150  0.47283  0.71407  1.0000
  H   H1147     1.0  0.76343  0.52885  0.79785  1.0000
  H   H1148     1.0  0.73461  0.51049  0.84502  1.0000
  H   H1149     1.0  0.72342  0.55863  0.71255  1.0000
  H   H1150     1.0  0.69712  0.56859  0.89305  1.0000
  H   H1151     1.0  0.75243  0.41785  0.82619  1.0000
  C   C661      1.0  0.67820  0.55212  0.75133  1.0000
  H   H1152     1.0  0.50564  0.52035  0.92687  1.0000
  C   C662      1.0  0.96039  0.39946  0.95383  1.0000
  C   C663      1.0  0.55916  0.39360  0.97770  1.0000
  C   C664      1.0  0.57534  0.58687  0.97392  1.0000
  S   S154      1.0  0.98940  0.37252  0.80667  1.0000
  H   H1153     1.0  0.97133  0.49611  0.75964  1.0000
  H   H1154     1.0  0.95975  0.55188  0.67406  1.0000
  C   C665      1.0  0.56045  0.49054  0.91663  1.0000
  H   H1155     1.0  0.90507  0.48777  0.66347  1.0000
  H   H1156     1.0  0.87799  0.62614  0.66080  1.0000
  H   H1157     1.0  0.63055  0.54876  0.76146  1.0000
  C   C666      1.0  0.57755  0.50326  0.88754  1.0000
  H   H1158     1.0  0.88850  0.52722  0.73956  1.0000
  H   H1159     1.0  0.60489  0.56162  0.97766  1.0000
  C   C667      1.0  0.59082  0.42239  0.96207  1.0000
  C   C668      1.0  0.88364  0.62872  0.62985  1.0000
  C   C669      1.0  0.58356  0.48738  0.85155  1.0000
  H   H1160     1.0  0.98488  0.52078  0.70430  1.0000
  H   H1161     1.0  0.97453  0.65593  0.61373  1.0000
  H   H1162     1.0  0.77220  0.41768  0.86657  1.0000
  C   C670      1.0  0.69377  0.40102  0.97496  1.0000
  H   H1163     1.0  0.92719  0.64265  0.65637  1.0000
  H   H1164     1.0  0.94559  0.39395  0.93517  1.0000
  H   H1165     1.0  0.60883  0.61109  0.76668  1.0000
  Fe  Fe80      1.0  0.50911  0.33853  0.94423  1.0000
  H   H1166     1.0  0.90134  0.61986  0.62423  1.0000
  H   H1167     1.0  0.92971  0.49488  0.76426  1.0000
  S   S155      1.0  0.64115  0.50406  0.98188  1.0000
  H   H1168     1.0  0.87109  0.61682  0.57342  1.0000
  H   H1169     1.0  0.59447  0.50729  0.90159  1.0000
  H   H1170     1.0  0.56971  0.52018  0.87731  1.0000
  H   H1171     1.0  0.55662  0.54065  0.93097  1.0000
  C   C671      1.0  0.59374  0.57140  0.95839  1.0000
  H   H1172     1.0  0.86575  0.59639  0.61245  1.0000
  H   H1173     1.0  0.90897  0.48841  0.59136  1.0000
  H   H1174     1.0  0.60728  0.58313  0.73997  1.0000
  H   H1175     1.0  0.94063  0.65077  0.97474  1.0000
  H   H1176     1.0  0.67729  0.40319  0.95830  1.0000
  C   C672      1.0  0.56102  0.60038  0.94945  1.0000
  H   H1177     1.0  0.92578  0.52899  0.69549  1.0000
  C   C673      1.0  0.97581  0.51594  0.67707  1.0000
  H   H1178     1.0  0.57010  0.47396  0.92490  1.0000
  H   H1179     1.0  0.96831  0.34010  0.60413  1.0000
  H   H1180     1.0  0.56721  0.48381  0.83529  1.0000
  Fe  Fe81      1.0  0.50997  0.64476  0.94578  1.0000
  C   C674      1.0  0.66318  0.52260  0.80063  1.0000
  C   C675      1.0  0.67535  0.56261  0.82234  1.0000
  C   C676      1.0  0.69859  0.53377  0.73972  1.0000
  C   C677      1.0  0.70105  0.55544  0.83262  1.0000
  C   C678      1.0  0.70938  0.57048  0.86704  1.0000
  C   C679      1.0  0.71383  0.54210  0.70481  1.0000
  H   H1181     1.0  0.65517  0.52111  0.83076  1.0000
  H   H1182     1.0  0.68127  0.51435  0.80221  1.0000
  H   H1183     1.0  0.67625  0.58184  0.81530  1.0000
  H   H1184     1.0  0.66376  0.56158  0.84948  1.0000
  H   H1185     1.0  0.69110  0.51626  0.73143  1.0000
  H   H1186     1.0  0.71064  0.53062  0.76373  1.0000
  H   H1187     1.0  0.70200  0.53653  0.84097  1.0000
  H   H1188     1.0  0.71380  0.55856  0.80774  1.0000
  H   H1189     1.0  0.72756  0.56439  0.87465  1.0000
  H   H1190     1.0  0.71015  0.58962  0.85943  1.0000
  H   H1191     1.0  0.87262  0.38313  0.76221  1.0000
  H   H1192     1.0  0.72742  0.52808  0.69605  1.0000
  H   H1193     1.0  0.65244  0.47427  0.80669  1.0000
  H   H1194     1.0  0.63882  0.59476  0.80886  1.0000
  H   H1195     1.0  0.96188  0.62635  0.61447  1.0000
  H   H1196     1.0  0.89871  0.46002  0.60877  1.0000
  C   C680      1.0  0.64826  0.50668  0.77346  1.0000
  H   H1197     1.0  0.62797  0.55311  0.81287  1.0000
  C   C681      1.0  0.96745  0.65529  0.92839  1.0000
  H   H1198     1.0  0.65071  0.51173  0.74252  1.0000
  H   H1199     1.0  0.90999  0.53603  0.77489  1.0000
  C   C682      1.0  0.51443  0.55445  0.90376  1.0000
  S   S156      1.0  0.61212  0.44337  0.97916  1.0000
  C   C683      1.0  0.65485  0.48024  0.77621  1.0000
  H   H1200     1.0  0.70281  0.38397  0.96536  1.0000
  Fe  Fe82      1.0  0.64035  0.46809  0.95095  1.0000
  H   H1201     1.0  0.58384  0.49173  0.98090  1.0000
  H   H1202     1.0  0.68599  0.57029  0.75088  1.0000
  H   H1203     1.0  0.70258  0.54543  0.67954  1.0000
  H   H1204     1.0  0.92539  0.46212  0.66298  1.0000
  H   H1205     1.0  0.64894  0.59147  0.75833  1.0000
  C   C684      1.0  0.55698  0.38784  0.93809  1.0000
  H   H1206     1.0  0.62894  0.50894  0.78193  1.0000
  S   S157      1.0  0.53640  0.36610  0.92099  1.0000
  C   C685      1.0  0.61077  0.59140  0.76884  1.0000
  H   H1207     1.0  0.90975  0.48934  0.72590  1.0000
  C   C686      1.0  0.86587  0.61558  0.60487  1.0000
  C   C687      1.0  0.52169  0.52896  0.91380  1.0000
  S   S158      1.0  0.96990  0.64327  0.70168  1.0000
  C   C688      1.0  0.49434  0.46994  0.86128  1.0000
  H   H1208     1.0  0.58670  0.52059  0.96258  1.0000
  N   N38       1.0  0.81634  0.43516  0.76752  1.0000
  C   C689      1.0  0.83319  0.41386  0.76220  1.0000
  C   C690      1.0  0.80419  0.43899  0.72962  1.0000
  C   C691      1.0  0.83124  0.45687  0.77542  1.0000
  C   C692      1.0  0.79809  0.43280  0.80096  1.0000
  C   C693      1.0  0.78938  0.40731  0.81025  1.0000
  C   C694      1.0  0.85126  0.41040  0.79473  1.0000
  C   C695      1.0  0.81748  0.48113  0.77854  1.0000
  C   C696      1.0  0.78806  0.41865  0.71541  1.0000
  C   C697      1.0  0.78015  0.42282  0.67405  1.0000
  C   C698      1.0  0.76773  0.40833  0.83900  1.0000
  C   C699      1.0  0.86345  0.38578  0.79138  1.0000
  C   C700      1.0  0.83327  0.50117  0.79293  1.0000
  H   H1209     1.0  0.84397  0.41516  0.73431  1.0000
  H   H1210     1.0  0.82333  0.39702  0.75891  1.0000
  H   H1211     1.0  0.79229  0.45506  0.73171  1.0000
  H   H1212     1.0  0.81784  0.44257  0.70594  1.0000
  H   H1213     1.0  0.84572  0.45837  0.75234  1.0000
  H   H1214     1.0  0.84030  0.45514  0.80345  1.0000
  H   H1215     1.0  0.80517  0.43993  0.82869  1.0000
  H   H1216     1.0  0.78202  0.44422  0.79598  1.0000
  H   H1217     1.0  0.80378  0.39691  0.82376  1.0000
  H   H1218     1.0  0.78424  0.39723  0.78397  1.0000
  H   H1219     1.0  0.86563  0.42379  0.79199  1.0000
  H   H1220     1.0  0.84233  0.41258  0.82411  1.0000
  H   H1221     1.0  0.80146  0.48041  0.79862  1.0000
  H   H1222     1.0  0.81179  0.48616  0.74944  1.0000
  H   H1223     1.0  0.79734  0.40104  0.71485  1.0000
  H   H1224     1.0  0.77158  0.41807  0.73454  1.0000
  H   H1225     1.0  0.77034  0.44014  0.67255  1.0000
  H   H1226     1.0  0.79593  0.42266  0.65323  1.0000
  H   H1227     1.0  0.76806  0.40837  0.66508  1.0000
  H   H1228     1.0  0.87711  0.38429  0.81380  1.0000
  C   C701      1.0  0.97890  0.45836  0.76239  1.0000
  H   H1229     1.0  0.59660  0.49653  0.83199  1.0000
  H   H1230     1.0  0.89081  0.51111  0.78411  1.0000
  H   H1231     1.0  0.52702  0.51941  0.88607  1.0000
  H   H1232     1.0  0.85017  0.37150  0.79596  1.0000
  H   H1233     1.0  0.84907  0.50308  0.77268  1.0000
  H   H1234     1.0  0.82291  0.51829  0.79383  1.0000
  H   H1235     1.0  0.83925  0.49762  0.82271  1.0000
  N   N39       1.0  0.95356  0.50183  0.68627  1.0000
  C   C702      1.0  0.96135  0.47876  0.70424  1.0000
  C   C703      1.0  0.94227  0.49634  0.64792  1.0000
  H   H1236     1.0  0.52949  0.56339  0.88821  1.0000
  C   C704      1.0  0.93682  0.51685  0.71295  1.0000
  C   C705      1.0  0.91958  0.50344  0.74107  1.0000
  H   H1237     1.0  0.96465  0.53712  0.62698  1.0000
  C   C706      1.0  0.97201  0.53987  0.65618  1.0000
  C   C707      1.0  0.92103  0.47902  0.64868  1.0000
  C   C708      1.0  0.91415  0.47223  0.60735  1.0000
  C   C709      1.0  0.90114  0.52058  0.76109  1.0000
  H   H1238     1.0  0.76211  0.38993  0.84590  1.0000
  H   H1239     1.0  0.50332  0.47985  0.88465  1.0000
  H   H1240     1.0  0.54487  0.48421  0.90051  1.0000
  H   H1241     1.0  0.94576  0.46810  0.71382  1.0000
  H   H1242     1.0  0.93516  0.51293  0.63507  1.0000
  H   H1243     1.0  0.95609  0.48887  0.62643  1.0000
  H   H1244     1.0  0.98930  0.40736  0.68568  1.0000
  H   H1245     1.0  0.97734  0.39156  0.94082  1.0000
  H   H1246     1.0  0.94707  0.52903  0.73191  1.0000
  N   N40       1.0  0.55235  0.50488  0.95267  1.0000
  C   C710      1.0  0.57363  0.50874  0.97751  1.0000
  S   S159      1.0  0.98539  0.35238  0.71510  1.0000
  H   H1247     1.0  0.59723  0.58525  0.79082  1.0000
  S   S160      1.0  0.53833  0.61990  0.97106  1.0000
  S   S161      1.0  0.94654  0.33654  0.78342  1.0000
  S   S162      1.0  0.98087  0.62027  0.78623  1.0000
  H   H1248     1.0  0.51841  0.48697  0.95440  1.0000
  H   H1249     1.0  0.50913  0.56510  0.93057  1.0000
  H   H1250     1.0  0.53504  0.53864  0.96948  1.0000
  C   C711      1.0  0.95946  0.65327  0.96785  1.0000
  H   H1251     1.0  0.84750  0.62308  0.61035  1.0000
  C   C712      1.0  0.97769  0.48137  0.73946  1.0000
  H   H1252     1.0  0.98431  0.42946  0.64952  1.0000
  H   H1253     1.0  0.93783  0.33039  0.60191  1.0000
  H   H1254     1.0  0.50086  0.41240  0.96196  1.0000
  C   C713      1.0  0.97501  0.32883  0.93743  1.0000
  C   C714      1.0  0.53314  0.49115  0.97407  1.0000
  H   H1255     1.0  0.98892  0.50491  0.65881  1.0000
  C   C715      1.0  0.93719  0.65463  0.59809  1.0000
  S   S163      1.0  0.96385  0.32679  0.88926  1.0000
  H   H1256     1.0  0.89447  0.65304  0.69790  1.0000
  H   H1257     1.0  0.70607  0.41587  0.96815  1.0000
  H   H1258     1.0  0.96176  0.41921  0.95409  1.0000
  H   H1259     1.0  0.95479  0.65435  0.90548  1.0000
  H   H1260     1.0  0.98482  0.44302  0.74304  1.0000
  H   H1261     1.0  0.92607  0.64211  0.58156  1.0000
  C   C716      1.0  0.96230  0.64355  0.59895  1.0000
  H   H1262     1.0  0.50689  0.45619  0.84787  1.0000
  H   H1263     1.0  0.88819  0.65725  0.58834  1.0000
  C   C717      1.0  0.88440  0.65569  0.62026  1.0000
  H   H1264     1.0  0.49900  0.55412  0.88446  1.0000
  H   H1265     1.0  0.49335  0.42938  0.89994  1.0000
  H   H1266     1.0  0.99183  0.46028  0.78587  1.0000
  Fe  Fe83      1.0  0.98788  0.65762  0.80813  1.0000
  H   H1267     1.0  0.75003  0.91181  0.38755  1.0000
  C   C718      1.0  0.67910  0.92051  0.08317  1.0000
  C   C719      1.0  0.95960  0.71394  0.47131  1.0000
  C   C720      1.0  0.57137  0.84432  0.28546  1.0000
  H   H1268     1.0  0.52095  0.73643  0.07806  1.0000
  H   H1269     1.0  0.55719  0.76492  0.06636  1.0000
  H   H1270     1.0  0.61762  0.71038  0.09868  1.0000
  H   H1271     1.0  0.53120  0.91266  0.25515  1.0000
  H   H1272     1.0  0.77492  0.91572  0.46527  1.0000
  H   H1273     1.0  0.72861  0.91417  0.30050  1.0000
  S   S164      1.0  0.97458  0.83508  0.40803  1.0000
  H   H1274     1.0  0.49840  0.93430  0.22596  1.0000
  H   H1275     1.0  0.57003  0.88858  0.09564  1.0000
  Fe  Fe84      1.0  0.82749  0.97153  0.47012  1.0000
  S   S165      1.0  0.85524  0.94395  0.44364  1.0000
  H   H1276     1.0  0.53314  0.93984  0.33883  1.0000
  S   S166      1.0  0.51378  0.88128  0.18456  1.0000
  S   S167      1.0  0.50962  0.81753  0.24266  1.0000
  H   H1277     1.0  0.52223  0.77662  0.10977  1.0000
  C   C721      1.0  0.76458  0.89984  0.30827  1.0000
  H   H1278     1.0  0.76159  0.93737  0.32617  1.0000
  H   H1279     1.0  0.94944  0.94782  0.44982  1.0000
  H   H1280     1.0  0.51514  0.70146  0.03910  1.0000
  H   H1281     1.0  0.75896  0.89018  0.33472  1.0000
  Fe  Fe85      1.0  0.63112  0.95102  0.18665  1.0000
  S   S168      1.0  0.62251  0.91162  0.18731  1.0000
  S   S169      1.0  0.66478  0.96476  0.15713  1.0000
  H   H1282     1.0  0.56489  0.84587  0.08516  1.0000
  H   H1283     1.0  0.77444  0.89291  0.40268  1.0000
  H   H1284     1.0  0.59325  0.91472  0.00487  1.0000
  H   H1285     1.0  0.79850  0.93274  0.40935  1.0000
  H   H1286     1.0  0.59666  0.95748  0.02805  1.0000
  C   C722      1.0  0.54413  0.88900  0.18615  1.0000
  C   C723      1.0  0.56226  0.87208  0.19159  1.0000
  C   C724      1.0  0.58627  0.87921  0.19202  1.0000
  C   C725      1.0  0.59219  0.90331  0.18797  1.0000
  C   C726      1.0  0.57397  0.92019  0.18309  1.0000
  C   C727      1.0  0.55015  0.91298  0.18123  1.0000
  H   H1287     1.0  0.55781  0.85349  0.19480  1.0000
  H   H1288     1.0  0.60031  0.86602  0.19554  1.0000
  H   H1289     1.0  0.57818  0.93878  0.18030  1.0000
  H   H1290     1.0  0.53621  0.92614  0.17680  1.0000
  H   H1291     1.0  0.77760  0.88818  0.29105  1.0000
  C   C728      1.0  0.97809  0.67056  0.33314  1.0000
  H   H1292     1.0  0.74742  0.91231  0.25630  1.0000
  H   H1293     1.0  0.82367  0.90208  0.40523  1.0000
  H   H1294     1.0  0.84416  0.91336  0.36838  1.0000
  H   H1295     1.0  0.91620  0.68758  0.14155  1.0000
  C   C729      1.0  0.90688  0.89100  0.44109  1.0000
  C   C730      1.0  0.89014  0.90872  0.43061  1.0000
  C   C731      1.0  0.87664  0.92231  0.45911  1.0000
  C   C732      1.0  0.52887  0.74102  0.99942  1.0000
  H   H1296     1.0  0.57386  0.92341  0.06437  1.0000
  C   C733      1.0  0.58312  0.87917  0.07508  1.0000
  H   H1297     1.0  0.90609  0.71031  0.17666  1.0000
  H   H1298     1.0  0.65690  0.89170  0.06755  1.0000
  N   N41       1.0  0.96856  0.72849  0.08420  1.0000
  H   H1299     1.0  0.79823  0.88597  0.35156  1.0000
  C   C734      1.0  0.98828  0.72055  0.10992  1.0000
  H   H1300     1.0  0.57853  0.92896  0.28674  1.0000
  H   H1301     1.0  0.63701  0.94296  0.06158  1.0000
  Fe  Fe86      1.0  0.97443  0.79469  0.40954  1.0000
  H   H1302     1.0  0.96217  0.76055  0.14985  1.0000
  H   H1303     1.0  0.62187  0.92768  0.00270  1.0000
  H   H1304     1.0  0.96172  0.88788  0.39650  1.0000
  H   H1305     1.0  0.94825  0.71676  0.16020  1.0000
  H   H1306     1.0  0.91674  0.88053  0.41875  1.0000
  C   C735      1.0  0.74257  0.90327  0.28393  1.0000
  C   C736      1.0  0.77619  0.92417  0.31767  1.0000
  H   H1307     1.0  0.58238  0.96065  0.33824  1.0000
  H   H1308     1.0  0.58374  0.85136  0.26255  1.0000
  H   H1309     1.0  0.95870  0.70542  0.25971  1.0000
  H   H1310     1.0  0.98876  0.70072  0.11127  1.0000
  H   H1311     1.0  0.96095  0.68011  0.32836  1.0000
  H   H1312     1.0  0.60581  0.96638  0.07562  1.0000
  H   H1313     1.0  0.96547  0.80425  0.15062  1.0000
  H   H1314     1.0  0.67646  0.91737  0.11490  1.0000
  C   C737      1.0  0.59121  0.93044  0.07379  1.0000
  H   H1315     1.0  0.94219  0.72995  0.31626  1.0000
  H   H1316     1.0  0.97726  0.91540  0.38909  1.0000
  Fe  Fe87      1.0  0.95760  0.83556  0.46862  1.0000
  H   H1317     1.0  0.63948  0.88388  0.00572  1.0000
  H   H1318     1.0  0.63522  0.71897  0.05627  1.0000
  C   C738      1.0  0.61173  0.91249  0.01532  1.0000
  C   C739      1.0  0.80972  0.90153  0.34589  1.0000
  H   H1319     1.0  0.53506  0.76088  0.14950  1.0000
  H   H1320     1.0  0.94856  0.70351  0.45122  1.0000
  H   H1321     1.0  0.79179  0.97662  0.35885  1.0000
  H   H1322     1.0  0.93606  0.74506  0.46760  1.0000
  H   H1323     1.0  0.51335  0.97365  0.23968  1.0000
  N   N42       1.0  0.79530  0.92460  0.34768  1.0000
  C   C740      1.0  0.83042  0.89975  0.37450  1.0000
  C   C741      1.0  0.97433  0.74989  0.32402  1.0000
  H   H1324     1.0  0.55411  0.96149  0.05045  1.0000
  N   N43       1.0  0.61161  0.91408  0.05939  1.0000
  H   H1325     1.0  0.69584  0.91111  0.07255  1.0000
  N   N44       1.0  0.53611  0.90357  0.31503  1.0000
  H   H1326     1.0  0.59987  0.71819  0.01617  1.0000
  C   C742      1.0  0.52226  0.89239  0.34869  1.0000
  C   C743      1.0  0.55640  0.88662  0.30213  1.0000
  C   C744      1.0  0.52043  0.90690  0.28090  1.0000
  C   C745      1.0  0.49877  0.92427  0.28717  1.0000
  H   H1327     1.0  0.57726  0.68723  0.04647  1.0000
  C   C746      1.0  0.54929  0.86059  0.29184  1.0000
  C   C747      1.0  0.50975  0.90947  0.37978  1.0000
  C   C748      1.0  0.59692  0.71934  0.04840  1.0000
  S   S170      1.0  0.96133  0.76695  0.36462  1.0000
  H   H1328     1.0  0.57667  0.88069  0.04510  1.0000
  H   H1329     1.0  0.50430  0.94209  0.29766  1.0000
  C   C749      1.0  0.62179  0.88911  0.99522  1.0000
  H   H1330     1.0  0.98138  0.70122  0.04209  1.0000
  H   H1331     1.0  0.50851  0.88011  0.33744  1.0000
  H   H1332     1.0  0.53427  0.88084  0.36565  1.0000
  H   H1333     1.0  0.56984  0.88579  0.32517  1.0000
  H   H1334     1.0  0.56604  0.89307  0.27548  1.0000
  H   H1335     1.0  0.57468  0.70220  0.09264  1.0000
  H   H1336     1.0  0.51300  0.88959  0.27161  1.0000
  H   H1337     1.0  0.63344  0.92710  0.10552  1.0000
  H   H1338     1.0  0.54977  0.78648  0.12948  1.0000
  H   H1339     1.0  0.92992  0.74038  0.14105  1.0000
  S   S171      1.0  0.95427  0.79523  0.46826  1.0000
  H   H1340     1.0  0.53930  0.86008  0.26466  1.0000
  H   H1341     1.0  0.53796  0.85268  0.31517  1.0000
  H   H1342     1.0  0.52340  0.91841  0.39733  1.0000
  S   S172      1.0  0.50065  0.82664  0.35543  1.0000
  C   C750      1.0  0.92270  0.97167  0.42710  1.0000
  C   C751      1.0  0.80047  0.96944  0.33135  1.0000
  H   H1343     1.0  0.53866  0.72148  0.11124  1.0000
  H   H1344     1.0  0.61133  0.89199  0.11028  1.0000
  H   H1345     1.0  0.96426  0.90875  0.45878  1.0000
  H   H1346     1.0  0.62198  0.68987  0.05728  1.0000
  C   C752      1.0  0.97833  0.89762  0.40255  1.0000
  C   C753      1.0  0.91264  0.70702  0.14597  1.0000
  H   H1347     1.0  0.94869  0.69614  0.09278  1.0000
  C   C754      1.0  0.76662  0.91121  0.40412  1.0000
  H   H1348     1.0  0.81759  0.89841  0.31578  1.0000
  S   S173      1.0  0.63447  0.97300  0.24165  1.0000
  C   C755      1.0  0.65798  0.91093  0.06121  1.0000
  C   C756      1.0  0.60819  0.89028  0.07852  1.0000
  H   H1349     1.0  0.96878  0.80430  0.09815  1.0000
  C   C757      1.0  0.81911  0.98736  0.31759  1.0000
  C   C758      1.0  0.51813  0.98524  0.21487  1.0000
  H   H1350     1.0  0.97577  0.76381  0.06189  1.0000
  H   H1351     1.0  0.59539  0.73843  0.05720  1.0000
  C   C759      1.0  0.57147  0.96353  0.31242  1.0000
  H   H1352     1.0  0.68120  0.93991  0.07849  1.0000
  H   H1353     1.0  0.50400  0.88232  0.42359  1.0000
  H   H1354     1.0  0.83030  0.86087  0.37763  1.0000
  H   H1355     1.0  0.56997  0.98858  0.05995  1.0000
  C   C760      1.0  0.98206  0.69545  0.39550  1.0000
  H   H1356     1.0  0.82328  0.93968  0.31087  1.0000
  C   C761      1.0  0.56824  0.96960  0.06798  1.0000
  H   H1357     1.0  0.53082  0.97523  0.19447  1.0000
  H   H1358     1.0  0.66218  0.91310  0.02958  1.0000
  C   C762      1.0  0.63449  0.92476  0.07312  1.0000
  C   C763      1.0  0.81223  0.94455  0.33778  1.0000
  H   H1359     1.0  0.60943  0.87418  0.00091  1.0000
  H   H1360     1.0  0.98683  0.66597  0.30419  1.0000
  H   H1361     1.0  0.58289  0.97211  0.28967  1.0000
  H   H1362     1.0  0.59000  0.93112  0.10630  1.0000
  C   C764      1.0  0.55353  0.75437  0.09277  1.0000
  C   C765      1.0  0.73414  0.98935  0.36125  1.0000
  C   C766      1.0  0.70185  0.98166  0.31615  1.0000
  H   H1363     1.0  0.78368  0.93004  0.28888  1.0000
  H   H1364     1.0  0.51462  0.72798  0.99479  1.0000
  H   H1365     1.0  0.59508  0.84220  0.06499  1.0000
  C   C767      1.0  0.55210  0.72862  0.01259  1.0000
  H   H1366     1.0  0.88746  0.91173  0.40010  1.0000
  H   H1367     1.0  0.90819  0.96440  0.44592  1.0000
  H   H1368     1.0  0.89834  0.71254  0.12641  1.0000
  H   H1369     1.0  0.94305  0.70860  0.01543  1.0000
  N   N45       1.0  0.55017  0.71558  0.05063  1.0000
  H   H1370     1.0  0.58971  0.85079  0.11588  1.0000
  C   C768      1.0  0.56249  0.93980  0.29639  1.0000
  C   C769      1.0  0.50656  0.83109  0.43482  1.0000
  H   H1371     1.0  0.56577  0.82623  0.27609  1.0000
  H   H1372     1.0  0.78676  0.96881  0.30900  1.0000
  H   H1373     1.0  0.74589  0.90363  0.45709  1.0000
  C   C770      1.0  0.78438  0.92978  0.38796  1.0000
  H   H1374     1.0  0.82502  0.94736  0.36138  1.0000
  H   H1375     1.0  0.62171  0.87687  0.06740  1.0000
  H   H1376     1.0  0.58095  0.84274  0.31299  1.0000
  C   C771      1.0  0.84303  0.87533  0.37081  1.0000
  H   H1377     1.0  0.54800  0.67063  0.08869  1.0000
  H   H1378     1.0  0.85759  0.87449  0.39180  1.0000
  H   H1379     1.0  0.52547  0.83103  0.42682  1.0000
  H   H1380     1.0  0.77419  0.94688  0.38838  1.0000
  H   H1381     1.0  0.98239  0.88178  0.45800  1.0000
  H   H1382     1.0  0.55205  0.94387  0.27054  1.0000
  H   H1383     1.0  0.56284  0.96878  0.09943  1.0000
  Fe  Fe88      1.0  0.66655  0.98893  0.21093  1.0000
  C   C772      1.0  0.98184  0.72452  0.44972  1.0000
  H   H1384     1.0  0.52214  0.75470  0.02125  1.0000
  C   C773      1.0  0.49345  0.89573  0.40790  1.0000
  C   C774      1.0  0.94585  0.71584  0.09608  1.0000
  C   C775      1.0  0.98090  0.90005  0.44662  1.0000
  H   H1385     1.0  0.53955  0.68402  0.01861  1.0000
  H   H1386     1.0  0.55856  0.92355  0.35300  1.0000
  H   H1387     1.0  0.93428  0.93590  0.40867  1.0000
  C   C776      1.0  0.53924  0.77050  0.12214  1.0000
  H   H1388     1.0  0.94090  0.79521  0.12177  1.0000
  H   H1389     1.0  0.56556  0.74286  0.01355  1.0000
  C   C777      1.0  0.54706  0.92678  0.32783  1.0000
  S   S174      1.0  0.60730  0.97728  0.15856  1.0000
  C   C778      1.0  0.57428  0.70522  0.06069  1.0000
  C   C779      1.0  0.53347  0.69495  0.04489  1.0000
  H   H1390     1.0  0.93124  0.72043  0.07648  1.0000
  H   H1391     1.0  0.55623  0.97588  0.32054  1.0000
  H   H1392     1.0  0.73493  0.88563  0.27664  1.0000
  C   C780      1.0  0.66182  0.97818  0.01288  1.0000
  H   H1393     1.0  0.67236  0.97193  0.03634  1.0000
  C   C781      1.0  0.49907  0.83283  0.47471  1.0000
  H   H1394     1.0  0.94581  0.75968  0.07794  1.0000
  C   C782      1.0  0.94208  0.95229  0.42135  1.0000
  C   C783      1.0  0.95619  0.72318  0.01233  1.0000
  H   H1395     1.0  0.97210  0.68031  0.40841  1.0000
  C   C784      1.0  0.96974  0.71856  0.27344  1.0000
  C   C785      1.0  0.96069  0.79476  0.12334  1.0000
  H   H1396     1.0  0.68474  0.97387  0.31058  1.0000
  H   H1397     1.0  0.82701  0.98189  0.28846  1.0000
  H   H1398     1.0  0.49879  0.92350  0.36661  1.0000
  C   C786      1.0  0.61924  0.70893  0.06633  1.0000
  C   C787      1.0  0.59216  0.95653  0.05974  1.0000
  H   H1399     1.0  0.85106  0.87234  0.34091  1.0000
  C   C788      1.0  0.53977  0.73136  0.08353  1.0000
  C   C789      1.0  0.58333  0.85287  0.08591  1.0000
  H   H1400     1.0  0.95673  0.95827  0.40122  1.0000
  H   H1401     1.0  0.97554  0.73923  0.43113  1.0000
  C   C790      1.0  0.96041  0.73256  0.30560  1.0000
  H   H1402     1.0  0.91516  0.97487  0.39826  1.0000
  H   H1403     1.0  0.94654  0.74060  0.01605  1.0000
  C   C791      1.0  0.96458  0.75529  0.08515  1.0000
  S   S175      1.0  0.95931  0.66183  0.16351  1.0000
  C   C792      1.0  0.97007  0.76899  0.12362  1.0000
  C   C793      1.0  0.75918  0.91680  0.44670  1.0000
  H   H1404     1.0  0.75079  0.93491  0.44980  1.0000
  H   H1405     1.0  0.52129  0.68683  0.10506  1.0000
  C   C794      1.0  0.97565  0.72038  0.04289  1.0000
  C   C795      1.0  0.53053  0.67768  0.07953  1.0000
  H   H1406     1.0  0.57063  0.74969  0.10618  1.0000
  C   C796      1.0  0.93531  0.72129  0.13780  1.0000
  H   H1407     1.0  0.98476  0.72653  0.14069  1.0000
  H   H1408     1.0  0.96805  0.70838  0.38638  1.0000
  H   H1409     1.0  0.83354  0.98874  0.33861  1.0000
  Fe  Fe89      1.0  0.49541  0.85092  0.21619  1.0000
  H   H1410     1.0  0.70230  0.96965  0.37553  1.0000
  S   S176      1.0  0.74577  0.98567  0.40873  1.0000
  C   C797      1.0  0.91050  0.88660  0.48042  1.0000
  H   H1411     1.0  0.49775  0.66209  0.05883  1.0000
  C   C798      1.0  0.71192  0.97928  0.35306  1.0000
  H   H1412     1.0  0.49469  0.75108  0.40372  1.0000
  H   H1413     1.0  0.94520  0.99022  0.46775  1.0000
  H   H1414     1.0  0.55864  0.71602  0.98866  1.0000
  H   H1415     1.0  0.99154  0.73027  0.03187  1.0000
  H   H1416     1.0  0.98966  0.76963  0.12725  1.0000
  H   H1417     1.0  0.99212  0.73333  0.47271  1.0000
  H   H1418     1.0  0.49262  0.73770  0.47182  1.0000
  S   S177      1.0  0.51392  0.68476  0.94215  1.0000
  C   C799      1.0  0.74418  0.89033  0.78392  1.0000
  H   H1419     1.0  0.72016  0.88103  0.73996  1.0000
  C   C800      1.0  0.52224  0.80958  0.78755  1.0000
  S   S178      1.0  0.61010  0.99016  0.83070  1.0000
  S   S179      1.0  0.95466  0.67301  0.78260  1.0000
  H   H1420     1.0  0.50159  0.98676  0.71345  1.0000
  S   S180      1.0  0.50900  0.70367  0.83487  1.0000
  C   C801      1.0  0.88323  0.73541  0.61545  1.0000
  Fe  Fe90      1.0  0.51979  0.84733  0.65107  1.0000
  S   S181      1.0  0.55834  0.85807  0.65685  1.0000
  S   S182      1.0  0.50676  0.81247  0.62563  1.0000
  Fe  Fe91      1.0  0.60987  0.96365  0.78075  1.0000
  S   S183      1.0  0.57659  0.94111  0.78094  1.0000
  S   S184      1.0  0.64811  0.95225  0.78715  1.0000
  C   C802      1.0  0.56328  0.88193  0.69013  1.0000
  C   C803      1.0  0.58618  0.89168  0.69230  1.0000
  C   C804      1.0  0.59050  0.91027  0.71937  1.0000
  C   C805      1.0  0.57200  0.91882  0.74496  1.0000
  C   C806      1.0  0.54916  0.90910  0.74271  1.0000
  C   C807      1.0  0.54473  0.89102  0.71508  1.0000
  H   H1421     1.0  0.60060  0.88484  0.67298  1.0000
  H   H1422     1.0  0.60817  0.91768  0.72087  1.0000
  H   H1423     1.0  0.53477  0.91558  0.76237  1.0000
  H   H1424     1.0  0.52696  0.88411  0.71332  1.0000
  H   H1425     1.0  0.57458  0.84831  0.86208  1.0000
  C   C808      1.0  0.51275  0.97072  0.76676  1.0000
  H   H1426     1.0  0.56542  0.81589  0.71191  1.0000
  H   H1427     1.0  0.88123  0.98388  0.49708  1.0000
  C   C809      1.0  0.55543  0.97777  0.69650  1.0000
  H   H1428     1.0  0.67238  0.92186  0.64997  1.0000
  H   H1429     1.0  0.78916  0.92709  0.66346  1.0000
  C   C810      1.0  0.51278  0.73625  0.77553  1.0000
  H   H1430     1.0  0.87372  0.67602  0.68830  1.0000
  H   H1431     1.0  0.93875  0.67145  0.58183  1.0000
  H   H1432     1.0  0.92846  0.72559  0.50711  1.0000
  S   S185      1.0  0.61865  0.99065  0.73538  1.0000
  H   H1433     1.0  0.93348  0.92695  0.56792  1.0000
  C   C811      1.0  0.50448  0.75385  0.75016  1.0000
  C   C812      1.0  0.90695  0.68777  0.71271  1.0000
  H   H1434     1.0  0.87053  0.92851  0.52080  1.0000
  C   C813      1.0  0.96847  0.91966  0.54021  1.0000
  H   H1435     1.0  0.95950  0.77062  0.58646  1.0000
  H   H1436     1.0  0.68211  0.89291  0.72290  1.0000
  H   H1437     1.0  0.72255  0.87823  0.83376  1.0000
  C   C814      1.0  0.97601  0.72525  0.64619  1.0000
  H   H1438     1.0  0.87664  0.69609  0.75317  1.0000
  H   H1439     1.0  0.75923  0.88284  0.76498  1.0000
  C   C815      1.0  0.71104  0.91531  0.69780  1.0000
  H   H1440     1.0  0.75762  0.90486  0.70248  1.0000
  C   C816      1.0  0.75713  0.94299  0.69270  1.0000
  H   H1441     1.0  0.55714  0.78899  0.73660  1.0000
  H   H1442     1.0  0.50868  0.80349  0.76682  1.0000
  H   H1443     1.0  0.86653  0.74631  0.61988  1.0000
  C   C817      1.0  0.53322  0.75358  0.96078  1.0000
  H   H1444     1.0  0.94050  0.94517  0.52671  1.0000
  H   H1445     1.0  0.54258  0.81916  0.85151  1.0000
  H   H1446     1.0  0.51940  0.83417  0.87943  1.0000
  S   S186      1.0  0.49458  0.87056  0.61907  1.0000
  H   H1447     1.0  0.73059  0.85506  0.79762  1.0000
  H   H1448     1.0  0.53625  0.79802  0.50672  1.0000
  H   H1449     1.0  0.53678  0.83967  0.75343  1.0000
  C   C818      1.0  0.53998  0.78316  0.52657  1.0000
  C   C819      1.0  0.75158  0.92141  0.71897  1.0000
  H   H1450     1.0  0.53145  0.73084  0.77374  1.0000
  H   H1451     1.0  0.95376  0.74484  0.51063  1.0000
  C   C820      1.0  0.65545  0.97997  0.94239  1.0000
  H   H1452     1.0  0.53569  0.80462  0.70793  1.0000
  C   C821      1.0  0.67151  0.90551  0.66768  1.0000
  H   H1453     1.0  0.68319  0.95909  0.96792  1.0000
  C   C822      1.0  0.66806  0.97108  0.97386  1.0000
  H   H1454     1.0  0.56102  0.97596  0.63317  1.0000
  H   H1455     1.0  0.86584  0.66282  0.62546  1.0000
  H   H1456     1.0  0.53090  0.79315  0.79811  1.0000
  C   C823      1.0  0.96236  0.74407  0.63119  1.0000
  H   H1457     1.0  0.67976  0.89024  0.65050  1.0000
  C   C824      1.0  0.98984  0.93300  0.52075  1.0000
  H   H1458     1.0  0.63741  0.90600  0.94365  1.0000
  H   H1459     1.0  0.76367  0.92303  0.74360  1.0000
  H   H1460     1.0  0.63122  0.87474  0.93717  1.0000
  H   H1461     1.0  0.74712  0.94218  0.66556  1.0000
  H   H1462     1.0  0.53859  0.74040  0.93717  1.0000
  H   H1463     1.0  0.52738  0.74851  0.54045  1.0000
  H   H1464     1.0  0.86446  0.70234  0.61770  1.0000
  C   C825      1.0  0.73695  0.87125  0.81305  1.0000
  H   H1465     1.0  0.49636  0.77592  0.56486  1.0000
  H   H1466     1.0  0.60695  0.89637  0.93876  1.0000
  H   H1467     1.0  0.51671  0.76163  0.72901  1.0000
  H   H1468     1.0  0.88783  0.73395  0.58367  1.0000
  H   H1469     1.0  0.51215  0.83417  0.49690  1.0000
  H   H1470     1.0  0.95255  0.72179  0.94957  1.0000
  C   C826      1.0  0.55062  0.80685  0.72796  1.0000
  H   H1471     1.0  0.73585  0.97145  0.57253  1.0000
  C   C827      1.0  0.89308  0.67112  0.68532  1.0000
  H   H1472     1.0  0.90664  0.69400  0.59450  1.0000
  H   H1473     1.0  0.55840  0.77622  0.51946  1.0000
  C   C828      1.0  0.70647  0.98166  0.66153  1.0000
  C   C829      1.0  0.56007  0.86186  0.86803  1.0000
  C   C830      1.0  0.73258  0.97841  0.60196  1.0000
  H   H1474     1.0  0.53918  0.79013  0.55716  1.0000
  H   H1475     1.0  0.55825  0.82424  0.78197  1.0000
  C   C831      1.0  0.57155  0.97424  0.65970  1.0000
  H   H1476     1.0  0.56747  0.87979  0.86228  1.0000
  Fe  Fe92      1.0  0.64885  0.98083  0.83492  1.0000
  H   H1477     1.0  0.56679  0.97506  0.72162  1.0000
  C   C832      1.0  0.89739  0.90057  0.50889  1.0000
  H   H1478     1.0  0.88152  0.97065  0.56439  1.0000
  H   H1479     1.0  0.52900  0.96056  0.75660  1.0000
  H   H1480     1.0  0.91039  0.97254  0.50841  1.0000
  C   C833      1.0  0.87957  0.71070  0.63248  1.0000
  C   C834      1.0  0.89740  0.98753  0.51354  1.0000
  N   N46       1.0  0.90162  0.67038  0.64301  1.0000
  H   H1481     1.0  0.96109  0.90587  0.52088  1.0000
  H   H1482     1.0  0.58607  0.98753  0.65912  1.0000
  H   H1483     1.0  0.78699  0.95914  0.66150  1.0000
  H   H1484     1.0  0.54613  0.85902  0.81111  1.0000
  H   H1485     1.0  0.55393  0.86133  0.89919  1.0000
  H   H1486     1.0  0.89492  0.67078  0.76646  1.0000
  C   C835      1.0  0.90264  0.69509  0.62649  1.0000
  H   H1487     1.0  0.89995  0.89740  0.53941  1.0000
  H   H1488     1.0  0.89782  0.74479  0.63022  1.0000
  C   C836      1.0  0.52783  0.83264  0.84946  1.0000
  H   H1489     1.0  0.87440  0.71335  0.66383  1.0000
  S   S187      1.0  0.96583  0.71180  0.69069  1.0000
  N   N47       1.0  0.50999  0.82381  0.82084  1.0000
  N   N48       1.0  0.72583  0.91901  0.73327  1.0000
  C   C837      1.0  0.72297  0.89730  0.75844  1.0000
  C   C838      1.0  0.49720  0.72553  0.80313  1.0000
  C   C839      1.0  0.71648  0.94124  0.75483  1.0000
  C   C840      1.0  0.72994  0.94923  0.79114  1.0000
  H   H1490     1.0  0.54731  0.76717  0.96333  1.0000
  C   C841      1.0  0.72013  0.97327  0.80732  1.0000
  H   H1491     1.0  0.75266  0.96002  0.70861  1.0000
  H   H1492     1.0  0.70651  0.89932  0.77782  1.0000
  C   C842      1.0  0.54244  0.82200  0.76384  1.0000
  H   H1493     1.0  0.50720  0.85627  0.78788  1.0000
  H   H1494     1.0  0.71582  0.95648  0.73481  1.0000
  H   H1495     1.0  0.69767  0.93892  0.76532  1.0000
  H   H1496     1.0  0.74932  0.95126  0.78434  1.0000
  H   H1497     1.0  0.72720  0.93620  0.81467  1.0000
  C   C843      1.0  0.94798  0.93690  0.55271  1.0000
  Fe  Fe93      1.0  0.97697  0.67950  0.72714  1.0000
  H   H1498     1.0  0.75100  0.90571  0.80056  1.0000
  H   H1499     1.0  0.75262  0.86611  0.83004  1.0000
  H   H1500     1.0  0.72998  0.97871  0.83340  1.0000
  H   H1501     1.0  0.72223  0.98732  0.78517  1.0000
  H   H1502     1.0  0.70089  0.97192  0.81630  1.0000
  C   C844      1.0  0.97004  0.75595  0.59702  1.0000
  H   H1503     1.0  0.49482  0.93857  0.78523  1.0000
  C   C845      1.0  0.49226  0.71122  0.53133  1.0000
  H   H1504     1.0  0.90774  0.70630  0.70223  1.0000
  C   C846      1.0  0.49551  0.84374  0.80404  1.0000
  C   C847      1.0  0.78367  0.94357  0.68037  1.0000
  S   S188      1.0  0.49618  0.84558  0.70482  1.0000
  H   H1505     1.0  0.91783  0.70520  0.63842  1.0000
  H   H1506     1.0  0.52598  0.87201  0.84728  1.0000
  H   H1507     1.0  0.90561  0.70070  0.77279  1.0000
  H   H1508     1.0  0.94593  0.74984  0.64657  1.0000
  H   H1509     1.0  0.92549  0.68091  0.71504  1.0000
  C   C848      1.0  0.53927  0.85732  0.84155  1.0000
  H   H1510     1.0  0.98249  0.94679  0.50149  1.0000
  C   C849      1.0  0.49251  0.80748  0.84133  1.0000
  S   S189      1.0  0.66509  0.97140  0.89345  1.0000
  C   C850      1.0  0.89521  0.68884  0.75374  1.0000
  H   H1511     1.0  0.97427  0.91051  0.56665  1.0000
  H   H1512     1.0  0.96522  0.70220  0.49500  1.0000
  H   H1513     1.0  0.54171  0.96373  0.69570  1.0000
  C   C851      1.0  0.50327  0.78465  0.85915  1.0000
  H   H1514     1.0  0.79480  0.94539  0.70626  1.0000
  H   H1515     1.0  0.97742  0.70452  0.96592  1.0000
  H   H1516     1.0  0.95422  0.95104  0.57287  1.0000
  H   H1517     1.0  0.50929  0.77163  0.83589  1.0000
  H   H1518     1.0  0.51507  0.97601  0.79768  1.0000
  H   H1519     1.0  0.69842  0.96132  0.60978  1.0000
  C   C852      1.0  0.62446  0.89179  0.95103  1.0000
  H   H1520     1.0  0.71911  0.90073  0.67859  1.0000
  H   H1521     1.0  0.57990  0.95608  0.65941  1.0000
  C   C853      1.0  0.68423  0.90935  0.70581  1.0000
  H   H1522     1.0  0.51869  0.78883  0.87722  1.0000
  H   H1523     1.0  0.97900  0.73669  0.96487  1.0000
  H   H1524     1.0  0.67462  0.92419  0.72196  1.0000
  H   H1525     1.0  0.65237  0.90162  0.67421  1.0000
  S   S190      1.0  0.93091  0.86400  0.49586  1.0000
  H   H1526     1.0  0.50601  0.69943  0.58636  1.0000
  C   C854      1.0  0.96703  0.72146  0.97070  1.0000
  Fe  Fe94      1.0  0.49383  0.68187  0.88648  1.0000
  H   H1527     1.0  0.71101  0.93151  0.67982  1.0000
  H   H1528     1.0  0.93917  0.67164  0.65442  1.0000
  C   C855      1.0  0.52205  0.76319  0.52131  1.0000
  H   H1529     1.0  0.51644  0.76270  0.95274  1.0000
  C   C856      1.0  0.89010  0.98780  0.55696  1.0000
  H   H1530     1.0  0.51019  0.71611  0.51969  1.0000
  H   H1531     1.0  0.90601  0.98997  0.57491  1.0000
  Fe  Fe95      1.0  0.65748  0.98135  0.74447  1.0000
  S   S191      1.0  0.67948  0.97321  0.68699  1.0000
  C   C857      1.0  0.71130  0.97271  0.62322  1.0000
  H   H1532     1.0  0.52377  0.75706  0.49041  1.0000
  H   H1533     1.0  0.49843  0.96245  0.63221  1.0000
  C   C858      1.0  0.88061  0.91827  0.49842  1.0000
  H   H1534     1.0  0.50551  0.67656  0.54864  1.0000
  C   C859      1.0  0.49632  0.77192  0.53305  1.0000
  S   S192      1.0  0.78849  0.96617  0.48757  1.0000
  C   C860      1.0  0.94354  0.73363  0.49029  1.0000
  C   C861      1.0  0.99166  0.74931  0.57735  1.0000
  H   H1535     1.0  0.49322  0.78953  0.51977  1.0000
  Fe  Fe96      1.0  0.99054  0.79364  0.49385  1.0000
  C   C862      1.0  0.99162  0.65917  0.91879  1.0000
  C   C863      1.0  0.49558  0.69224  0.56202  1.0000
  H   H1536     1.0  0.49279  0.93252  0.61490  1.0000
  C   C864      1.0  0.92648  0.65956  0.64003  1.0000
