data_image0
_chemical_formula_structural       FeS2FeS2FeSFeS3H2SFeS2CHFeSH2CSHFeHC2H2C3HC7H4CHCH2C6H4C6H3SC2H4CHFeHSH3CH2CSH5NH3C2HC3H2CH2CH4C2H7NC11H25CNC4HCH6CH5CH3CHCH2CH4C2SH6C2HCH4NH5C2HCHCH5NHCH2CH2CH3CHCH3FeCHC2HCHCHC2H3CH6FeS2FeS2FeSFeS3NCSFeS2HNFeSH2FeS2H3SCHC3HFeC6H4C2H3C6H4C6H4SH7CHSCHCHCH3CHC3HCH9C2H3CH2C2H2CH4SH12CH3C4H2C3HSCHC3HC2H2C2H7FeH2CH4CHCH3C2H2NH3CH3C2H2CNC12H17CHCH7CHCH2CHCHC2H2C2HCHNH3CH9CH3SCHC2H9CHFeS2FeS2FeSFeS3FeHSH2SCSH3SHSFeSC2H2C7H4C6H4C6H10CH3NC5HC5SH13NHCH6NC4H2CH10CHCH4NC4HC4H2CH2CH14CH2CHCH5C2HCFeHCH2C2HC5H2C2HSCFeH5CH3NH8SH3CHCHCH2FeNC7H3C2H16CH11SC3HCHCH3CH4CH3C2HCH2SC2H2FeS2FeS2FeSFeS3FeHSH4SFeSHSH2FeSC4SC6H4C6H4C6H4CH4C3H2NHC3H2CH3CHCH12CHC3HCH6C2NCH2NC11H21C2H4CH2NC9H24C2H3CSCHC2H2FeH4SHC2HCHCH2CSH3CH5C2H3CH4FeH2CH5C3HCH11SCSCFeSFeS2NCSCHFeS2CSHFeSFeCS2H2SFeS2FeCFeSCSHC7H2C4H6CH2C6H2CHC6H4CHCH2C6H4C6H7C4H3CHCH16SC2H3CH5NC11H29NC6HCNHCH3SHNH12SH7CHCHCH3SC2HCHCH5CH2C2H4FeC3FeH2C3H2C2H8CSCH5CSCHC2H2CH3C3H5SHCH2FeH3CH3C2H10NSH3C3H3S2H5CH2CFeCH6SCSCFeSFeS2C2SH2FeS2HSHFeSFeS2NCHSFeS2H2FeSCSC2H3CHC2HC4H2CSHCH2C7HCH2C6HCH2CH2CHC6H4C6H4CHFeC2HCHCH6C3FeSFeCH2NCHCH2C3HC3H11SH9NH3CHCH4C2HC2H6S2CH4SNC6HCH2C2H13CH6CH4C2H2NCH2C4HC2HCFeCFeH3CH4CH6CH3CH6CHCH4C2H3NH2CH2CH2NCH2C3H2C2H2CH5CH2CH4CH6FeCNC2H2SCH2CH12CHCH4FeSFeSFeSCS2H4SFeHSFeS2FeSHCS2FeHSFeS2FeSHS3C6H4C6HSH2C6SH2C6H4C6H6C2HSCH2CH4CH6CH4CH4CH4CH6CH5C3HC3H2CH4NH4SHCH3CH2C2H3CH2CH3NC2HSHFeCH2CH2NC3H2C3H2C2H7CH5SHCH2CHC2HFeCH4NHCH3CH14CH2C6H2CH6FeNC2HC3FeC3SH7SH2CHCHCH6CHCH3CH2C2H2C2H4CH3C2HCFeSFeSFeSHS2H2SFeSFeNCFeS2FeC2S3FeHSFeS2FeSCS3C6H4C7H3C7H2C6H4C6H4C3H2C5H2C3H5CHC2H2CH7C3H7NC12H28NC3H3CHCHCNHCH5C2HCH2SH4CSH4CH2CNCH2C2HFeH2CHNH5FeH5CHCH4FeH2CHCHCHCHSCHCH5CH2SH5CH3CHC3H6CH4SH3CH3CH6SH2C3H5CHCH3CHCHFeS2FeS2FeSFeS3FeS2HSCFeSFeS2HFeS2HS2CH6C3H2C6H4C3H2C6H4C6H5NCH3CH3CH2CH5C3FeH2CH5CHC3HC2HNHCH5CFeC6NCNC12H31C2H2CH2CHC3H7CH3CH12NH3SHCH6CH3C2H3C2HCSHCH2C2H4CH2C4HNHC3HFeH6CH3CH9CHFeS2FeS2FeSFeS3FeS2FeSHFeSFeS3FeHSHS2H2C3H2CH3C7H4CHCH2C6H4C6H4NC12H31SC3H2C2H15CHCH4C2HCH3C2HCH3NC11SH12CH8CH6NHC4HC3HCH24C5NHC3H5C2H2CH2CHCH8FeH3CH2FeS2FeS2FeSFeS3FeHSFeS2FeC2HS2FeHSHS2HCHCH4C6H4C6H4C6H5C3HC3H5CHCH2CHSH4CH2CH3SHNC12H31CH15CH2CH2CHCNH5C2HC2H4CHCHC2HCHC2HC3H2C2HNC8HC3H17C2H3CH4FeSH2CHCHC2H7FeH2C3H6NHSFeS2FeS2FeSFeS3FeHSFeS2FeH3S2FeS2CSH3NCH2C8H4C6H4C6H4C2H3C2H2C2H3C2HCHCH5CHCH4CH2CH5C3H3CH3NHC6H2CHC2H7FeHFeSH2CH3CHNH5NC12H31CHSH2CH2CH6CH2NC4HCHCHCH2CHCHCH3SHCHC2HCH4C3H6CSH5C2H3CH5
_chemical_formula_sum              "Fe128 S256 H2048 C1152 N64"
_cell_length_a       76.193
_cell_length_b       38.3598
_cell_length_c       47.3164
_cell_angle_alpha    91.1898
_cell_angle_beta     91.1279
_cell_angle_gamma    89.758

_space_group_name_H-M_alt    "P 1"
_space_group_IT_number       1

loop_
  _space_group_symop_operation_xyz
  'x, y, z'

loop_
  _atom_site_type_symbol
  _atom_site_label
  _atom_site_symmetry_multiplicity
  _atom_site_fract_x
  _atom_site_fract_y
  _atom_site_fract_z
  _atom_site_occupancy
  Fe  Fe1       1.0  0.14643  0.19597  0.24892  1.0000
  S   S1        1.0  0.17044  0.16503  0.23671  1.0000
  S   S2        1.0  0.12620  0.22386  0.21990  1.0000
  Fe  Fe2       1.0  0.15602  0.19374  0.31300  1.0000
  S   S3        1.0  0.18106  0.16394  0.30392  1.0000
  S   S4        1.0  0.15180  0.20663  0.36049  1.0000
  Fe  Fe3       1.0  0.18529  0.20000  0.26790  1.0000
  S   S5        1.0  0.20961  0.22839  0.25152  1.0000
  Fe  Fe4       1.0  0.16459  0.13051  0.27372  1.0000
  S   S6        1.0  0.17089  0.07132  0.27647  1.0000
  S   S7        1.0  0.16145  0.23215  0.27881  1.0000
  S   S8        1.0  0.13943  0.15917  0.28413  1.0000
  H   H1        1.0  0.14572  0.03000  0.33278  1.0000
  H   H2        1.0  0.20427  0.07848  0.36055  1.0000
  S   S9        1.0  0.09327  0.25296  0.45075  1.0000
  Fe  Fe5       1.0  0.06269  0.32106  0.03878  1.0000
  S   S10       1.0  0.08286  0.33968  0.07160  1.0000
  S   S11       1.0  0.03434  0.32608  0.05466  1.0000
  C   C1        1.0  0.01917  0.23196  0.05128  1.0000
  H   H3        1.0  0.13447  0.08562  0.30743  1.0000
  Fe  Fe6       1.0  0.09858  0.29237  0.05882  1.0000
  S   S12       1.0  0.11361  0.25403  0.08773  1.0000
  H   H4        1.0  0.99608  0.39140  0.02149  1.0000
  H   H5        1.0  0.11370  0.22128  0.35506  1.0000
  C   C2        1.0  0.00232  0.41679  0.01705  1.0000
  S   S13       1.0  0.28820  0.25438  0.29921  1.0000
  H   H6        1.0  0.15090  0.31370  0.10751  1.0000
  Fe  Fe7       1.0  0.31312  0.28574  0.28997  1.0000
  H   H7        1.0  0.07566  0.21637  0.08250  1.0000
  C   C3        1.0  0.06775  0.20546  0.09985  1.0000
  C   C4        1.0  0.08225  0.46792  0.04649  1.0000
  H   H8        1.0  0.26326  0.15442  0.28592  1.0000
  H   H9        1.0  0.07464  0.44602  0.05337  1.0000
  C   C5        1.0  0.00912  0.31144  0.01215  1.0000
  C   C6        1.0  0.01254  0.32168  0.04028  1.0000
  C   C7        1.0  0.99817  0.32790  0.05807  1.0000
  H   H10       1.0  0.03424  0.26489  0.09441  1.0000
  C   C8        1.0  0.03981  0.20076  0.18490  1.0000
  C   C9        1.0  0.23126  0.23616  0.26560  1.0000
  C   C10       1.0  0.24319  0.25543  0.24972  1.0000
  C   C11       1.0  0.26049  0.26204  0.25983  1.0000
  C   C12       1.0  0.26617  0.24929  0.28599  1.0000
  C   C13       1.0  0.25422  0.23012  0.30185  1.0000
  C   C14       1.0  0.23692  0.22360  0.29180  1.0000
  H   H11       1.0  0.23906  0.26525  0.22940  1.0000
  H   H12       1.0  0.26947  0.27671  0.24729  1.0000
  H   H13       1.0  0.25841  0.22005  0.32208  1.0000
  H   H14       1.0  0.22800  0.20877  0.30432  1.0000
  C   C15       1.0  0.16278  0.02733  0.27503  1.0000
  H   H15       1.0  0.29136  0.25373  0.17259  1.0000
  C   C16       1.0  0.14550  0.01899  0.26686  1.0000
  H   H16       1.0  0.06476  0.21262  0.16744  1.0000
  H   H17       1.0  0.13646  0.03966  0.26126  1.0000
  C   C17       1.0  0.12408  0.23314  0.18302  1.0000
  C   C18       1.0  0.11429  0.26260  0.17465  1.0000
  C   C19       1.0  0.11146  0.27014  0.14575  1.0000
  C   C20       1.0  0.11801  0.24782  0.12465  1.0000
  C   C21       1.0  0.12800  0.21863  0.13302  1.0000
  C   C22       1.0  0.13104  0.21134  0.16191  1.0000
  H   H18       1.0  0.10879  0.27967  0.19069  1.0000
  H   H19       1.0  0.10400  0.29292  0.13981  1.0000
  H   H20       1.0  0.13318  0.20109  0.11701  1.0000
  H   H21       1.0  0.13833  0.18827  0.16782  1.0000
  C   C23       1.0  0.13531  0.22041  0.38494  1.0000
  C   C24       1.0  0.14010  0.22590  0.41364  1.0000
  C   C25       1.0  0.12756  0.23586  0.43402  1.0000
  C   C26       1.0  0.10994  0.24078  0.42603  1.0000
  C   C27       1.0  0.10516  0.23542  0.39730  1.0000
  C   C28       1.0  0.11770  0.22536  0.37693  1.0000
  H   H22       1.0  0.15363  0.22202  0.42025  1.0000
  H   H23       1.0  0.13150  0.23905  0.45599  1.0000
  H   H24       1.0  0.09160  0.23895  0.39074  1.0000
  S   S14       1.0  0.07787  0.27195  0.02758  1.0000
  C   C29       1.0  0.30863  0.14997  0.20747  1.0000
  C   C30       1.0  0.06619  0.26411  0.12135  1.0000
  H   H25       1.0  0.07305  0.17216  0.13612  1.0000
  H   H26       1.0  0.01161  0.21089  0.04023  1.0000
  H   H27       1.0  0.10798  0.12644  0.30433  1.0000
  H   H28       1.0  0.12871  0.38133  0.98828  1.0000
  C   C31       1.0  0.14876  0.02516  0.35530  1.0000
  H   H29       1.0  0.02599  0.19955  0.08634  1.0000
  Fe  Fe8       1.0  0.09554  0.36714  0.03573  1.0000
  H   H30       1.0  0.28221  0.17505  0.30220  1.0000
  S   S15       1.0  0.10914  0.42039  0.03603  1.0000
  H   H31       1.0  0.00564  0.41735  0.99432  1.0000
  H   H32       1.0  0.12067  0.05566  0.32589  1.0000
  H   H33       1.0  0.14732  0.14124  0.38859  1.0000
  C   C32       1.0  0.14413  0.11387  0.39403  1.0000
  H   H34       1.0  0.07815  0.33115  0.13619  1.0000
  H   H35       1.0  0.05829  0.34646  0.15235  1.0000
  C   C33       1.0  0.09357  0.16429  0.10655  1.0000
  S   S16       1.0  0.11293  0.32114  0.02508  1.0000
  H   H36       1.0  0.18912  0.05710  0.33617  1.0000
  H   H37       1.0  0.29010  0.20644  0.20775  1.0000
  H   H38       1.0  0.04490  0.20408  0.20696  1.0000
  H   H39       1.0  0.02566  0.24779  0.03511  1.0000
  H   H40       1.0  0.11607  0.47254  0.47876  1.0000
  N   N1        1.0  0.31190  0.17974  0.22826  1.0000
  H   H41       1.0  0.00058  0.33579  0.07987  1.0000
  H   H42       1.0  0.16327  0.02445  0.35759  1.0000
  H   H43       1.0  0.04393  0.40220  0.98844  1.0000
  C   C34       1.0  0.12993  0.33363  0.40144  1.0000
  C   C35       1.0  0.09134  0.36006  0.42969  1.0000
  H   H44       1.0  0.19400  0.10278  0.33257  1.0000
  C   C36       1.0  0.06630  0.32290  0.14753  1.0000
  C   C37       1.0  0.14262  0.33280  0.37684  1.0000
  C   C38       1.0  0.07823  0.33129  0.42186  1.0000
  H   H45       1.0  0.05151  0.31109  0.10960  1.0000
  H   H46       1.0  0.01994  0.30643  0.99816  1.0000
  C   C39       1.0  0.15998  0.29129  0.10420  1.0000
  H   H47       1.0  0.30117  0.11171  0.15814  1.0000
  H   H48       1.0  0.12695  0.38906  0.40627  1.0000
  C   C40       1.0  0.30151  0.26553  0.18693  1.0000
  H   H49       1.0  0.11643  0.33181  0.39231  1.0000
  H   H50       1.0  0.15643  0.33282  0.38483  1.0000
  H   H51       1.0  0.14039  0.35556  0.36307  1.0000
  H   H52       1.0  0.09609  0.37117  0.40979  1.0000
  C   C41       1.0  0.05549  0.29738  0.12916  1.0000
  C   C42       1.0  0.08049  0.18843  0.12142  1.0000
  H   H53       1.0  0.06029  0.18323  0.09031  1.0000
  H   H54       1.0  0.14052  0.30854  0.36395  1.0000
  H   H55       1.0  0.13222  0.30970  0.41360  1.0000
  H   H56       1.0  0.00982  0.24873  0.06318  1.0000
  H   H57       1.0  0.07282  0.31977  0.44114  1.0000
  H   H58       1.0  0.06719  0.34221  0.40915  1.0000
  H   H59       1.0  0.01463  0.41871  0.02995  1.0000
  N   N2        1.0  0.17788  0.28383  0.18194  1.0000
  C   C43       1.0  0.16544  0.28958  0.15727  1.0000
  C   C44       1.0  0.16734  0.28173  0.20852  1.0000
  C   C45       1.0  0.19076  0.31361  0.18382  1.0000
  C   C46       1.0  0.18808  0.25026  0.17829  1.0000
  C   C47       1.0  0.17716  0.21727  0.17060  1.0000
  C   C48       1.0  0.17396  0.28994  0.12775  1.0000
  C   C49       1.0  0.20264  0.31512  0.21087  1.0000
  C   C50       1.0  0.15684  0.31509  0.21676  1.0000
  C   C51       1.0  0.14886  0.31210  0.24596  1.0000
  C   C52       1.0  0.18897  0.18508  0.16830  1.0000
  C   C53       1.0  0.21576  0.34507  0.20985  1.0000
  H   H60       1.0  0.15860  0.31510  0.15968  1.0000
  H   H61       1.0  0.15473  0.26993  0.15693  1.0000
  H   H62       1.0  0.15753  0.26051  0.20643  1.0000
  H   H63       1.0  0.17587  0.27407  0.22679  1.0000
  H   H64       1.0  0.18388  0.33912  0.18190  1.0000
  H   H65       1.0  0.19974  0.31234  0.16555  1.0000
  H   H66       1.0  0.19839  0.25285  0.16214  1.0000
  H   H67       1.0  0.19544  0.24431  0.19810  1.0000
  H   H68       1.0  0.17014  0.21989  0.14999  1.0000
  H   H69       1.0  0.16737  0.21229  0.18701  1.0000
  H   H70       1.0  0.18240  0.31328  0.12598  1.0000
  H   H71       1.0  0.18211  0.26642  0.12377  1.0000
  H   H72       1.0  0.21027  0.29067  0.21315  1.0000
  H   H73       1.0  0.19477  0.31922  0.23014  1.0000
  H   H74       1.0  0.16521  0.33863  0.21734  1.0000
  H   H75       1.0  0.14584  0.31917  0.20143  1.0000
  H   H76       1.0  0.13994  0.28931  0.24651  1.0000
  H   H77       1.0  0.15936  0.30934  0.26240  1.0000
  H   H78       1.0  0.14111  0.33594  0.25097  1.0000
  H   H79       1.0  0.19848  0.18797  0.15103  1.0000
  H   H80       1.0  0.19630  0.18100  0.18853  1.0000
  H   H81       1.0  0.18081  0.16165  0.16364  1.0000
  H   H82       1.0  0.22404  0.34540  0.22946  1.0000
  H   H83       1.0  0.22451  0.34162  0.19149  1.0000
  H   H84       1.0  0.20879  0.37048  0.20842  1.0000
  C   C54       1.0  0.12749  0.11547  0.41242  1.0000
  N   N3        1.0  0.14294  0.09114  0.36753  1.0000
  C   C55       1.0  0.15934  0.09742  0.35109  1.0000
  C   C56       1.0  0.14091  0.05341  0.37567  1.0000
  C   C57       1.0  0.28387  0.16617  0.25661  1.0000
  C   C58       1.0  0.17689  0.09129  0.36763  1.0000
  H   H85       1.0  0.11996  0.47667  0.44136  1.0000
  C   C59       1.0  0.19195  0.08186  0.34797  1.0000
  H   H86       1.0  0.15954  0.12481  0.34367  1.0000
  H   H87       1.0  0.15942  0.08145  0.33141  1.0000
  H   H88       1.0  0.15514  0.10510  0.40798  1.0000
  H   H89       1.0  0.14718  0.04868  0.39673  1.0000
  H   H90       1.0  0.12678  0.04735  0.37854  1.0000
  H   H91       1.0  0.10286  0.47958  0.09890  1.0000
  C   C60       1.0  0.31527  0.11828  0.16131  1.0000
  H   H92       1.0  0.18051  0.11550  0.37968  1.0000
  H   H93       1.0  0.17575  0.07012  0.38308  1.0000
  H   H94       1.0  0.10932  0.41644  0.43852  1.0000
  H   H95       1.0  0.13713  0.15831  0.43941  1.0000
  H   H96       1.0  0.04097  0.19089  0.12927  1.0000
  C   C61       1.0  0.09923  0.46243  0.03662  1.0000
  H   H97       1.0  0.16633  0.29411  0.08346  1.0000
  H   H98       1.0  0.15228  0.26677  0.10343  1.0000
  H   H99       1.0  0.14089  0.11540  0.45363  1.0000
  C   C62       1.0  0.12338  0.08350  0.32210  1.0000
  H   H100      1.0  0.09511  0.09281  0.32002  1.0000
  C   C63       1.0  0.12722  0.10329  0.35040  1.0000
  H   H101      1.0  0.12201  0.08908  0.41544  1.0000
  H   H102      1.0  0.08815  0.20805  0.13379  1.0000
  C   C64       1.0  0.11785  0.40561  0.45559  1.0000
  H   H103      1.0  0.31264  0.12479  0.21700  1.0000
  H   H104      1.0  0.04336  0.29099  0.14052  1.0000
  H   H105      1.0  0.12850  0.13162  0.34585  1.0000
  H   H106      1.0  0.15389  0.27572  0.98700  1.0000
  C   C65       1.0  0.13199  0.36766  0.41980  1.0000
  C   C66       1.0  0.10692  0.09793  0.30736  1.0000
  S   S17       1.0  0.07466  0.35141  0.00390  1.0000
  H   H107      1.0  0.10517  0.08497  0.28628  1.0000
  H   H108      1.0  0.03095  0.23217  0.13400  1.0000
  H   H109      1.0  0.11501  0.10070  0.36261  1.0000
  H   H110      1.0  0.10152  0.17908  0.09147  1.0000
  H   H111      1.0  0.10957  0.31918  0.44247  1.0000
  H   H112      1.0  0.13144  0.29988  0.46903  1.0000
  C   C67       1.0  0.04398  0.21882  0.13403  1.0000
  C   C68       1.0  0.99163  0.30702  0.00218  1.0000
  H   H113      1.0  0.27721  0.19102  0.25135  1.0000
  C   C69       1.0  0.17422  0.99973  0.28221  1.0000
  H   H114      1.0  0.11728  0.13205  0.40220  1.0000
  H   H115      1.0  0.30958  0.14469  0.26346  1.0000
  H   H116      1.0  0.14628  0.37315  0.42258  1.0000
  H   H117      1.0  0.14280  0.42999  0.44381  1.0000
  N   N4        1.0  0.12321  0.36853  0.44825  1.0000
  H   H118      1.0  0.04390  0.44025  0.01137  1.0000
  H   H119      1.0  0.15009  0.31463  0.44933  1.0000
  H   H120      1.0  0.08417  0.38101  0.44132  1.0000
  H   H121      1.0  0.08465  0.31039  0.40908  1.0000
  H   H122      1.0  0.07035  0.31076  0.16777  1.0000
  C   C70       1.0  0.10680  0.34664  0.44852  1.0000
  C   C71       1.0  0.05105  0.22182  0.16506  1.0000
  H   H123      1.0  0.18760  0.00562  0.28867  1.0000
  C   C72       1.0  0.14247  0.31857  0.46884  1.0000
  H   H124      1.0  0.11919  0.13438  0.45364  1.0000
  C   C73       1.0  0.03292  0.21615  0.07124  1.0000
  H   H125      1.0  0.05180  0.25816  0.07088  1.0000
  H   H126      1.0  0.02596  0.20992  0.18406  1.0000
  H   H127      1.0  0.04153  0.19942  0.05797  1.0000
  H   H128      1.0  0.05072  0.24934  0.17270  1.0000
  H   H129      1.0  0.29498  0.28073  0.20402  1.0000
  N   N5        1.0  0.05545  0.23312  0.11127  1.0000
  H   H130      1.0  0.08661  0.14285  0.09492  1.0000
  C   C74       1.0  0.04384  0.24494  0.08695  1.0000
  H   H131      1.0  0.10265  0.15272  0.12248  1.0000
  H   H132      1.0  0.07468  0.25748  0.13973  1.0000
  C   C75       1.0  0.13149  0.13186  0.44154  1.0000
  H   H133      1.0  0.07557  0.27165  0.10475  1.0000
  H   H134      1.0  0.04033  0.17258  0.17905  1.0000
  C   C76       1.0  0.27783  0.15562  0.28582  1.0000
  H   H135      1.0  0.29934  0.22960  0.23725  1.0000
  H   H136      1.0  0.27924  0.14575  0.24136  1.0000
  H   H137      1.0  0.29435  0.14722  0.20281  1.0000
  C   C77       1.0  0.30284  0.21278  0.21860  1.0000
  H   H138      1.0  0.30955  0.28367  0.17460  1.0000
  C   C78       1.0  0.13298  0.43204  0.46078  1.0000
  H   H139      1.0  0.10973  0.40623  0.47495  1.0000
  H   H140      1.0  0.28317  0.12959  0.29131  1.0000
  H   H141      1.0  0.31853  0.47799  0.24164  1.0000
  Fe  Fe9       1.0  0.09151  0.30386  0.99466  1.0000
  C   C79       1.0  0.31333  0.23723  0.19941  1.0000
  H   H142      1.0  0.14777  0.37285  0.47196  1.0000
  C   C80       1.0  0.12601  0.46948  0.46199  1.0000
  C   C81       1.0  0.13574  0.35657  0.47126  1.0000
  H   H143      1.0  0.10189  0.34517  0.47047  1.0000
  C   C82       1.0  0.31734  0.15242  0.17828  1.0000
  H   H144      1.0  0.30790  0.18980  0.27292  1.0000
  C   C83       1.0  0.04630  0.43076  0.98943  1.0000
  H   H145      1.0  0.31079  0.17301  0.16574  1.0000
  C   C84       1.0  0.99003  0.44701  0.02474  1.0000
  C   C85       1.0  0.30417  0.17001  0.25621  1.0000
  H   H146      1.0  0.02181  0.39075  0.48277  1.0000
  H   H147      1.0  0.99695  0.47176  0.02046  1.0000
  H   H148      1.0  0.07396  0.42648  0.99749  1.0000
  C   C86       1.0  0.14203  0.98878  0.36174  1.0000
  H   H149      1.0  0.13961  0.42723  0.48147  1.0000
  H   H150      1.0  0.98767  0.44628  0.04778  1.0000
  H   H151      1.0  0.31970  0.22320  0.18175  1.0000
  H   H152      1.0  0.98997  0.32363  0.48494  1.0000
  H   H153      1.0  0.12218  0.48739  0.02053  1.0000
  H   H154      1.0  0.13697  0.48775  0.46696  1.0000
  Fe  Fe10      1.0  0.14576  0.19241  0.75808  1.0000
  S   S18       1.0  0.17168  0.16613  0.75052  1.0000
  S   S19       1.0  0.12959  0.22460  0.72616  1.0000
  Fe  Fe11      1.0  0.14760  0.17803  0.82252  1.0000
  S   S20       1.0  0.17366  0.14987  0.81838  1.0000
  S   S21       1.0  0.13736  0.18360  0.86807  1.0000
  Fe  Fe12      1.0  0.18160  0.19369  0.79030  1.0000
  S   S22       1.0  0.20461  0.23160  0.79852  1.0000
  Fe  Fe13      1.0  0.16190  0.12365  0.77926  1.0000
  S   S23       1.0  0.16645  0.06672  0.76331  1.0000
  S   S24       1.0  0.15609  0.22255  0.79628  1.0000
  S   S25       1.0  0.13529  0.14904  0.78485  1.0000
  N   N6        1.0  0.03761  0.40458  0.58012  1.0000
  C   C87       1.0  0.08134  0.43842  0.51450  1.0000
  S   S26       1.0  0.09693  0.29570  0.94695  1.0000
  Fe  Fe14      1.0  0.06259  0.29166  0.54137  1.0000
  S   S27       1.0  0.08284  0.31374  0.57246  1.0000
  S   S28       1.0  0.03433  0.29012  0.55768  1.0000
  H   H155      1.0  0.15818  0.30404  0.81120  1.0000
  N   N7        1.0  0.08801  0.43096  0.94201  1.0000
  Fe  Fe15      1.0  0.09945  0.26699  0.56144  1.0000
  S   S29       1.0  0.11644  0.23315  0.59150  1.0000
  H   H156      1.0  0.08680  0.37965  0.61925  1.0000
  H   H157      1.0  0.11884  0.24983  0.85583  1.0000
  Fe  Fe16      1.0  0.30811  0.27970  0.77062  1.0000
  S   S30       1.0  0.28573  0.23972  0.76524  1.0000
  S   S31       1.0  0.11244  0.29411  0.52535  1.0000
  H   H158      1.0  0.20299  0.22984  0.87191  1.0000
  H   H159      1.0  0.12059  0.06173  0.61848  1.0000
  H   H160      1.0  0.19780  0.28689  0.87192  1.0000
  S   S32       1.0  0.10685  0.39367  0.53626  1.0000
  C   C88       1.0  0.21969  0.31149  0.91176  1.0000
  H   H161      1.0  0.18323  0.16200  0.88356  1.0000
  C   C89       1.0  0.99844  0.29649  0.56224  1.0000
  C   C90       1.0  0.01278  0.29886  0.54403  1.0000
  C   C91       1.0  0.00955  0.30845  0.51603  1.0000
  H   H162      1.0  0.00073  0.28879  0.58387  1.0000
  Fe  Fe17      1.0  0.09431  0.33942  0.53454  1.0000
  C   C92       1.0  0.22740  0.23238  0.79041  1.0000
  C   C93       1.0  0.23722  0.26248  0.79747  1.0000
  C   C94       1.0  0.25507  0.26520  0.79023  1.0000
  C   C95       1.0  0.26338  0.23773  0.77580  1.0000
  C   C96       1.0  0.25361  0.20744  0.76912  1.0000
  C   C97       1.0  0.23578  0.20471  0.77644  1.0000
  H   H163      1.0  0.23093  0.28408  0.80834  1.0000
  H   H164      1.0  0.26235  0.28868  0.79551  1.0000
  H   H165      1.0  0.25990  0.18591  0.75812  1.0000
  H   H166      1.0  0.22856  0.18119  0.77124  1.0000
  C   C98       1.0  0.16213  0.02266  0.77359  1.0000
  C   C99       1.0  0.15404  0.01459  0.79896  1.0000
  H   H167      1.0  0.09567  0.47154  0.97225  1.0000
  H   H168      1.0  0.15019  0.03546  0.81329  1.0000
  H   H169      1.0  0.03692  0.44399  0.97491  1.0000
  C   C100      1.0  0.12623  0.22622  0.68861  1.0000
  C   C101      1.0  0.11417  0.25062  0.67757  1.0000
  C   C102      1.0  0.11099  0.25316  0.64810  1.0000
  C   C103      1.0  0.11984  0.23122  0.62908  1.0000
  C   C104      1.0  0.13190  0.20673  0.64014  1.0000
  C   C105      1.0  0.13511  0.20426  0.66962  1.0000
  H   H170      1.0  0.10718  0.26775  0.69193  1.0000
  H   H171      1.0  0.10167  0.27207  0.64011  1.0000
  H   H172      1.0  0.13885  0.18963  0.62571  1.0000
  H   H173      1.0  0.14450  0.18553  0.67760  1.0000
  C   C106      1.0  0.12601  0.21531  0.88941  1.0000
  C   C107      1.0  0.12487  0.21004  0.91872  1.0000
  C   C108      1.0  0.11613  0.23420  0.93663  1.0000
  C   C109      1.0  0.10828  0.26414  0.92549  1.0000
  C   C110      1.0  0.10952  0.26956  0.89619  1.0000
  C   C111      1.0  0.11828  0.24541  0.87828  1.0000
  H   H174      1.0  0.13072  0.18691  0.92768  1.0000
  H   H175      1.0  0.11535  0.22948  0.95903  1.0000
  H   H176      1.0  0.10347  0.29247  0.88720  1.0000
  H   H177      1.0  0.14145  0.33400  0.82302  1.0000
  S   S33       1.0  0.07863  0.24315  0.53223  1.0000
  H   H178      1.0  0.20273  0.17768  0.90227  1.0000
  H   H179      1.0  0.22648  0.29556  0.63025  1.0000
  H   H180      1.0  0.10065  0.11005  0.65945  1.0000
  H   H181      1.0  0.13557  0.03117  0.71492  1.0000
  H   H182      1.0  0.13709  0.12463  0.69262  1.0000
  H   H183      1.0  0.17588  0.10775  0.70933  1.0000
  H   H184      1.0  0.01583  0.37965  0.53201  1.0000
  C   C112      1.0  0.09212  0.16003  0.72662  1.0000
  H   H185      1.0  0.07233  0.37744  0.90696  1.0000
  S   S34       1.0  0.31181  0.32046  0.80480  1.0000
  C   C113      1.0  0.19530  0.17796  0.88185  1.0000
  H   H186      1.0  0.15897  0.24057  0.94426  1.0000
  C   C114      1.0  0.09964  0.40544  0.95748  1.0000
  H   H187      1.0  0.14771  0.27670  0.90827  1.0000
  C   C115      1.0  0.03304  0.38955  0.49804  1.0000
  H   H188      1.0  0.02036  0.30999  0.50165  1.0000
  H   H189      1.0  0.06587  0.39768  0.95021  1.0000
  H   H190      1.0  0.10275  0.05294  0.67915  1.0000
  C   C116      1.0  0.10807  0.10208  0.71989  1.0000
  H   H191      1.0  0.23739  0.35471  0.73829  1.0000
  C   C117      1.0  0.02667  0.39789  0.52786  1.0000
  C   C118      1.0  0.13901  0.09972  0.70371  1.0000
  C   C119      1.0  0.10835  0.14188  0.71472  1.0000
  H   H192      1.0  0.09135  0.15601  0.74975  1.0000
  C   C120      1.0  0.16467  0.27296  0.86350  1.0000
  H   H193      1.0  0.09471  0.09234  0.71400  1.0000
  H   H194      1.0  0.05226  0.41529  0.61914  1.0000
  H   H195      1.0  0.09851  0.39187  0.85986  1.0000
  H   H196      1.0  0.13122  0.05800  0.74503  1.0000
  H   H197      1.0  0.11848  0.01046  0.77269  1.0000
  H   H198      1.0  0.20724  0.31622  0.61530  1.0000
  H   H199      1.0  0.08414  0.42602  0.62643  1.0000
  H   H200      1.0  0.13892  0.28952  0.95953  1.0000
  H   H201      1.0  0.28917  0.16934  0.83733  1.0000
  C   C121      1.0  0.15584  0.30861  0.85696  1.0000
  C   C122      1.0  0.05356  0.39951  0.59926  1.0000
  H   H202      1.0  0.09443  0.37843  0.95514  1.0000
  H   H203      1.0  0.24679  0.31177  0.74141  1.0000
  H   H204      1.0  0.10908  0.14814  0.69207  1.0000
  C   C123      1.0  0.19055  0.21528  0.87386  1.0000
  H   H205      1.0  0.18381  0.21396  0.85289  1.0000
  H   H206      1.0  0.17393  0.26740  0.84603  1.0000
  C   C124      1.0  0.16150  0.28324  0.91451  1.0000
  C   C125      1.0  0.17850  0.23251  0.89624  1.0000
  H   H207      1.0  0.17753  0.26779  0.95212  1.0000
  H   H208      1.0  0.09296  0.18851  0.72300  1.0000
  C   C126      1.0  0.20277  0.29160  0.91716  1.0000
  H   H209      1.0  0.13773  0.28774  0.82460  1.0000
  H   H210      1.0  0.05451  0.37178  0.60592  1.0000
  H   H211      1.0  0.16622  0.21688  0.89671  1.0000
  H   H212      1.0  0.00087  0.35959  0.65084  1.0000
  S   S35       1.0  0.07311  0.32050  0.50435  1.0000
  H   H213      1.0  0.09553  0.36862  0.90826  1.0000
  H   H214      1.0  0.99292  0.35758  0.61468  1.0000
  H   H215      1.0  0.27946  0.24755  0.86475  1.0000
  H   H216      1.0  0.14508  0.31454  0.87181  1.0000
  H   H217      1.0  0.14332  0.37667  0.95896  1.0000
  H   H218      1.0  0.02757  0.35276  0.58618  1.0000
  H   H219      1.0  0.15429  0.25267  0.86129  1.0000
  H   H220      1.0  0.29957  0.39437  0.83259  1.0000
  H   H221      1.0  0.05394  0.47501  0.58488  1.0000
  H   H222      1.0  0.16700  0.32612  0.49272  1.0000
  H   H223      1.0  0.12378  0.35043  0.95984  1.0000
  H   H224      1.0  0.29910  0.22071  0.82814  1.0000
  C   C127      1.0  0.10577  0.46549  0.53956  1.0000
  H   H225      1.0  0.16188  0.31222  0.91643  1.0000
  H   H226      1.0  0.14385  0.10744  0.72532  1.0000
  H   H227      1.0  0.04696  0.46392  0.54908  1.0000
  C   C128      1.0  0.03073  0.44146  0.58252  1.0000
  C   C129      1.0  0.15297  0.28854  0.96618  1.0000
  C   C130      1.0  0.08555  0.38377  0.86781  1.0000
  C   C131      1.0  0.30202  0.39316  0.85580  1.0000
  H   H228      1.0  0.02139  0.42487  0.52786  1.0000
  H   H229      1.0  0.01171  0.40988  0.62511  1.0000
  C   C132      1.0  0.14783  0.30846  0.82710  1.0000
  C   C133      1.0  0.16693  0.99478  0.75534  1.0000
  C   C134      1.0  0.08631  0.40585  0.60967  1.0000
  H   H230      1.0  0.15802  0.31555  0.96875  1.0000
  S   S36       1.0  0.31417  0.41212  0.77358  1.0000
  C   C135      1.0  0.12933  0.37654  0.96508  1.0000
  H   H231      1.0  0.07502  0.38764  0.57038  1.0000
  C   C136      1.0  0.09714  0.43508  0.52973  1.0000
  C   C137      1.0  0.00485  0.35604  0.62851  1.0000
  C   C138      1.0  0.08871  0.42479  0.91048  1.0000
  H   H232      1.0  0.18637  0.32086  0.88925  1.0000
  C   C139      1.0  0.31063  0.48401  0.77851  1.0000
  C   C140      1.0  0.02342  0.38032  0.58970  1.0000
  H   H233      1.0  0.21677  0.33919  0.90701  1.0000
  H   H234      1.0  0.12462  0.04609  0.66883  1.0000
  C   C141      1.0  0.10897  0.07711  0.62529  1.0000
  C   C142      1.0  0.04242  0.47042  0.57061  1.0000
  H   H235      1.0  0.08322  0.35624  0.86102  1.0000
  H   H236      1.0  0.05985  0.43859  0.93658  1.0000
  H   H237      1.0  0.16546  0.33018  0.85836  1.0000
  H   H238      1.0  0.15033  0.07437  0.66590  1.0000
  H   H239      1.0  0.02951  0.38158  0.63570  1.0000
  H   H240      1.0  0.19656  0.30430  0.93574  1.0000
  H   H241      1.0  0.22848  0.32487  0.76312  1.0000
  Fe  Fe18      1.0  0.09077  0.27338  0.49696  1.0000
  H   H242      1.0  0.29599  0.28081  0.87171  1.0000
  H   H243      1.0  0.01112  0.38365  0.57697  1.0000
  C   C143      1.0  0.29050  0.26211  0.85565  1.0000
  H   H244      1.0  0.17319  0.00042  0.73565  1.0000
  H   H245      1.0  0.01746  0.44330  0.57238  1.0000
  H   H246      1.0  0.18082  0.09002  0.67495  1.0000
  H   H247      1.0  0.07484  0.41533  0.50615  1.0000
  C   C144      1.0  0.99226  0.31605  0.50660  1.0000
  H   H248      1.0  0.10635  0.09761  0.60947  1.0000
  C   C145      1.0  0.11457  0.99787  0.75217  1.0000
  H   H249      1.0  0.10912  0.09994  0.74336  1.0000
  H   H250      1.0  0.20363  0.16600  0.86523  1.0000
  H   H251      1.0  0.05291  0.40923  0.54216  1.0000
  C   C146      1.0  0.01804  0.38420  0.62109  1.0000
  C   C147      1.0  0.07182  0.40741  0.58694  1.0000
  H   H252      1.0  0.04635  0.36635  0.54924  1.0000
  H   H253      1.0  0.20659  0.26453  0.92228  1.0000
  N   N8        1.0  0.17397  0.27042  0.89195  1.0000
  H   H254      1.0  0.10159  0.43316  0.90225  1.0000
  H   H255      1.0  0.04306  0.40873  0.49179  1.0000
  H   H256      1.0  0.16755  0.12896  0.67784  1.0000
  C   C148      1.0  0.30477  0.23698  0.84550  1.0000
  H   H257      1.0  0.07507  0.40025  0.85828  1.0000
  H   H258      1.0  0.09734  0.05977  0.62579  1.0000
  H   H259      1.0  0.29718  0.47837  0.78368  1.0000
  C   C149      1.0  0.17056  0.10343  0.68754  1.0000
  C   C150      1.0  0.08531  0.38669  0.90005  1.0000
  H   H260      1.0  0.22681  0.29933  0.89376  1.0000
  H   H261      1.0  0.18491  0.22839  0.91711  1.0000
  C   C151      1.0  0.16373  0.26795  0.94453  1.0000
  N   N9        1.0  0.20356  0.25851  0.70343  1.0000
  C   C152      1.0  0.18590  0.27586  0.70726  1.0000
  C   C153      1.0  0.20884  0.25991  0.67277  1.0000
  C   C154      1.0  0.20168  0.22065  0.71111  1.0000
  C   C155      1.0  0.21753  0.27437  0.72271  1.0000
  C   C156      1.0  0.22148  0.31347  0.71896  1.0000
  C   C157      1.0  0.17780  0.27364  0.73699  1.0000
  C   C158      1.0  0.21751  0.19634  0.70422  1.0000
  C   C159      1.0  0.20304  0.29246  0.65584  1.0000
  C   C160      1.0  0.21202  0.29331  0.62726  1.0000
  C   C161      1.0  0.23431  0.32690  0.74188  1.0000
  C   C162      1.0  0.16104  0.29559  0.73871  1.0000
  C   C163      1.0  0.21344  0.15851  0.71111  1.0000
  H   H262      1.0  0.17615  0.26413  0.69197  1.0000
  H   H263      1.0  0.18637  0.30389  0.70214  1.0000
  H   H264      1.0  0.22335  0.25692  0.67110  1.0000
  H   H265      1.0  0.20303  0.23751  0.66046  1.0000
  H   H266      1.0  0.18980  0.20927  0.70033  1.0000
  H   H267      1.0  0.19959  0.21834  0.73423  1.0000
  H   H268      1.0  0.21432  0.27035  0.74519  1.0000
  H   H269      1.0  0.23029  0.26070  0.71987  1.0000
  H   H270      1.0  0.20944  0.32968  0.72027  1.0000
  H   H271      1.0  0.22782  0.31732  0.69836  1.0000
  H   H272      1.0  0.17417  0.24636  0.74145  1.0000
  H   H273      1.0  0.18696  0.28328  0.75384  1.0000
  H   H274      1.0  0.22933  0.20407  0.71678  1.0000
  H   H275      1.0  0.22086  0.19679  0.68154  1.0000
  H   H276      1.0  0.18864  0.29165  0.65161  1.0000
  H   H277      1.0  0.20599  0.31723  0.66727  1.0000
  H   H278      1.0  0.20895  0.26934  0.61455  1.0000
  C   C164      1.0  0.11243  0.09423  0.65431  1.0000
  H   H279      1.0  0.03877  0.36291  0.49689  1.0000
  C   C165      1.0  0.04180  0.39406  0.55005  1.0000
  H   H280      1.0  0.16412  0.32375  0.73713  1.0000
  H   H281      1.0  0.15161  0.28802  0.72146  1.0000
  H   H282      1.0  0.15461  0.29130  0.75918  1.0000
  H   H283      1.0  0.20224  0.14879  0.69785  1.0000
  H   H284      1.0  0.22508  0.14185  0.70676  1.0000
  H   H285      1.0  0.21020  0.15610  0.73376  1.0000
  H   H286      1.0  0.29662  0.41706  0.86611  1.0000
  C   C166      1.0  0.19013  0.29299  0.89123  1.0000
  H   H287      1.0  0.09921  0.41080  0.59996  1.0000
  C   C167      1.0  0.06935  0.42586  0.95132  1.0000
  H   H288      1.0  0.30155  0.20679  0.88364  1.0000
  H   H289      1.0  0.02870  0.44891  0.60506  1.0000
  C   C168      1.0  0.10961  0.02543  0.73049  1.0000
  H   H290      1.0  0.28528  0.27708  0.83747  1.0000
  C   C169      1.0  0.09431  0.46744  0.94893  1.0000
  H   H291      1.0  0.07239  0.43325  0.57718  1.0000
  C   C170      1.0  0.30046  0.15209  0.83227  1.0000
  C   C171      1.0  0.11553  0.06647  0.67719  1.0000
  H   H292      1.0  0.22840  0.31076  0.93085  1.0000
  H   H293      1.0  0.29502  0.37015  0.86382  1.0000
  C   C172      1.0  0.12559  0.04888  0.72427  1.0000
  C   C173      1.0  0.15418  0.08065  0.68815  1.0000
  H   H294      1.0  0.12081  0.39955  0.92633  1.0000
  C   C174      1.0  0.11926  0.40485  0.94925  1.0000
  H   H295      1.0  0.12563  0.43005  0.95492  1.0000
  N   N10       1.0  0.12199  0.07984  0.70570  1.0000
  H   H296      1.0  0.09850  0.04081  0.73909  1.0000
  H   H297      1.0  0.12000  0.15341  0.72571  1.0000
  H   H298      1.0  0.01084  0.32970  0.62598  1.0000
  C   C175      1.0  0.07407  0.47175  0.50976  1.0000
  H   H299      1.0  0.15809  0.05624  0.69871  1.0000
  H   H300      1.0  0.11809  0.46324  0.55115  1.0000
  H   H301      1.0  0.12384  0.11177  0.65230  1.0000
  H   H302      1.0  0.08001  0.15002  0.71590  1.0000
  H   H303      1.0  0.28632  0.10597  0.84548  1.0000
  H   H304      1.0  0.31702  0.15826  0.91745  1.0000
  H   H305      1.0  0.14857  0.31480  0.51408  1.0000
  H   H306      1.0  0.10505  0.01141  0.71097  1.0000
  H   H307      1.0  0.06180  0.47402  0.49805  1.0000
  C   C176      1.0  0.31254  0.21548  0.87034  1.0000
  H   H308      1.0  0.07882  0.44147  0.89955  1.0000
  H   H309      1.0  0.28317  0.11670  0.80882  1.0000
  H   H310      1.0  0.09946  0.41111  0.98047  1.0000
  S   S37       1.0  0.31822  0.31494  0.73674  1.0000
  C   C177      1.0  0.29297  0.11567  0.82650  1.0000
  H   H311      1.0  0.30576  0.14618  0.87626  1.0000
  C   C178      1.0  0.15495  0.31000  0.49347  1.0000
  C   C179      1.0  0.06520  0.43897  0.98176  1.0000
  H   H312      1.0  0.98893  0.23092  0.51286  1.0000
  H   H313      1.0  0.10775  0.47135  0.94087  1.0000
  H   H314      1.0  0.31626  0.28412  0.57942  1.0000
  H   H315      1.0  0.31527  0.25279  0.83624  1.0000
  H   H316      1.0  0.30652  0.16058  0.81248  1.0000
  H   H317      1.0  0.30356  0.09716  0.82039  1.0000
  H   H318      1.0  0.98921  0.29865  0.98049  1.0000
  H   H319      1.0  0.12956  0.36004  0.49234  1.0000
  H   H320      1.0  0.15881  0.28207  0.49203  1.0000
  C   C180      1.0  0.31369  0.15206  0.85753  1.0000
  H   H321      1.0  0.06684  0.46761  0.98413  1.0000
  Fe  Fe19      1.0  0.18132  0.79744  0.28667  1.0000
  S   S38       1.0  0.16134  0.75420  0.28568  1.0000
  S   S39       1.0  0.21067  0.79228  0.29902  1.0000
  Fe  Fe20      1.0  0.15306  0.85483  0.27567  1.0000
  S   S40       1.0  0.13142  0.81433  0.27387  1.0000
  S   S41       1.0  0.14373  0.91191  0.26861  1.0000
  Fe  Fe21      1.0  0.14455  0.79023  0.31230  1.0000
  S   S42       1.0  0.12894  0.77994  0.35298  1.0000
  Fe  Fe22      1.0  0.14954  0.78116  0.24733  1.0000
  S   S43       1.0  0.14426  0.74976  0.20556  1.0000
  S   S44       1.0  0.16506  0.83254  0.31518  1.0000
  S   S45       1.0  0.17062  0.82254  0.24717  1.0000
  Fe  Fe23      1.0  0.08599  0.70276  0.05885  1.0000
  H   H322      1.0  0.16413  0.88739  0.12541  1.0000
  S   S46       1.0  0.08939  0.73516  0.10051  1.0000
  H   H323      1.0  0.20387  0.68574  0.40464  1.0000
  H   H324      1.0  0.03486  0.79168  0.09685  1.0000
  S   S47       1.0  0.02887  0.70132  0.99672  1.0000
  C   C181      1.0  0.03469  0.77080  0.08031  1.0000
  S   S48       1.0  0.11555  0.67185  0.45298  1.0000
  H   H325      1.0  0.12122  0.63773  0.22007  1.0000
  H   H326      1.0  0.18719  0.64623  0.28258  1.0000
  H   H327      1.0  0.05570  0.70714  0.45196  1.0000
  S   S49       1.0  0.06321  0.66547  0.05557  1.0000
  H   H328      1.0  0.06763  0.79666  0.47404  1.0000
  S   S50       1.0  0.10443  0.66513  0.03728  1.0000
  Fe  Fe24      1.0  0.30415  0.68411  0.28340  1.0000
  S   S51       1.0  0.27518  0.69016  0.26883  1.0000
  C   C182      1.0  0.00599  0.67886  0.03784  1.0000
  C   C183      1.0  0.00797  0.69066  0.01030  1.0000
  H   H329      1.0  0.31261  0.68234  0.18503  1.0000
  H   H330      1.0  0.01749  0.67385  0.05090  1.0000
  C   C184      1.0  0.19192  0.67265  0.32301  1.0000
  C   C185      1.0  0.22850  0.76419  0.28938  1.0000
  C   C186      1.0  0.22644  0.73573  0.27064  1.0000
  C   C187      1.0  0.24086  0.71358  0.26461  1.0000
  C   C188      1.0  0.25757  0.71951  0.27708  1.0000
  C   C189      1.0  0.25969  0.74831  0.29546  1.0000
  C   C190      1.0  0.24526  0.77039  0.30156  1.0000
  H   H331      1.0  0.21377  0.73079  0.26073  1.0000
  H   H332      1.0  0.23904  0.69159  0.25018  1.0000
  H   H333      1.0  0.27242  0.75341  0.30519  1.0000
  H   H334      1.0  0.24710  0.79235  0.31601  1.0000
  C   C191      1.0  0.12845  0.74509  0.17712  1.0000
  C   C192      1.0  0.13256  0.72380  0.15346  1.0000
  C   C193      1.0  0.12084  0.72024  0.12997  1.0000
  C   C194      1.0  0.10470  0.73784  0.12978  1.0000
  C   C195      1.0  0.10051  0.75882  0.15356  1.0000
  C   C196      1.0  0.11221  0.76228  0.17707  1.0000
  H   H335      1.0  0.14505  0.71029  0.15313  1.0000
  H   H336      1.0  0.12440  0.70425  0.11186  1.0000
  H   H337      1.0  0.08806  0.77246  0.15384  1.0000
  H   H338      1.0  0.10865  0.77823  0.19517  1.0000
  C   C197      1.0  0.12632  0.74979  0.38114  1.0000
  C   C198      1.0  0.11704  0.76056  0.40534  1.0000
  C   C199      1.0  0.11399  0.73750  0.42771  1.0000
  C   C200      1.0  0.11981  0.70287  0.42604  1.0000
  C   C201      1.0  0.12926  0.69218  0.40198  1.0000
  C   C202      1.0  0.13255  0.71539  0.37978  1.0000
  H   H339      1.0  0.11224  0.78711  0.40686  1.0000
  H   H340      1.0  0.10719  0.74652  0.44632  1.0000
  H   H341      1.0  0.13390  0.66554  0.40036  1.0000
  H   H342      1.0  0.13957  0.70645  0.36134  1.0000
  H   H343      1.0  0.03774  0.71432  0.07979  1.0000
  H   H344      1.0  0.18412  0.65320  0.33434  1.0000
  H   H345      1.0  0.12392  0.66838  0.19225  1.0000
  H   H346      1.0  0.01449  0.81757  0.00176  1.0000
  H   H347      1.0  0.01858  0.88529  0.11994  1.0000
  H   H348      1.0  0.19522  0.92333  0.21525  1.0000
  C   C203      1.0  0.15147  0.95610  0.27216  1.0000
  H   H349      1.0  0.09735  0.72569  0.34349  1.0000
  H   H350      1.0  0.17771  0.94387  0.28644  1.0000
  H   H351      1.0  0.99999  0.86176  0.08119  1.0000
  N   N11       1.0  0.05979  0.70490  0.40665  1.0000
  C   C204      1.0  0.06495  0.71702  0.43622  1.0000
  C   C205      1.0  0.06114  0.66560  0.40490  1.0000
  C   C206      1.0  0.07322  0.71929  0.38685  1.0000
  C   C207      1.0  0.04169  0.71736  0.39771  1.0000
  C   C208      1.0  0.02764  0.72065  0.42116  1.0000
  H   H352      1.0  0.18144  0.86817  0.19829  1.0000
  C   C209      1.0  0.07124  0.70849  0.35513  1.0000
  C   C210      1.0  0.04750  0.64483  0.42146  1.0000
  C   C211      1.0  0.00928  0.72600  0.40835  1.0000
  C   C212      1.0  0.06641  0.65178  0.13003  1.0000
  C   C213      1.0  0.08342  0.72986  0.33694  1.0000
  S   S52       1.0  0.31363  0.65638  0.32238  1.0000
  H   H353      1.0  0.30786  0.63973  0.39031  1.0000
  H   H354      1.0  0.05938  0.65598  0.38278  1.0000
  H   H355      1.0  0.07457  0.65711  0.41184  1.0000
  H   H356      1.0  0.08671  0.71156  0.39385  1.0000
  H   H357      1.0  0.07293  0.74827  0.38747  1.0000
  H   H358      1.0  0.04242  0.74364  0.38819  1.0000
  H   H359      1.0  0.03633  0.70000  0.38048  1.0000
  H   H360      1.0  0.04672  0.81392  0.02176  1.0000
  H   H361      1.0  0.02714  0.69763  0.43475  1.0000
  H   H362      1.0  0.05561  0.77137  0.43011  1.0000
  H   H363      1.0  0.98770  0.81025  0.06498  1.0000
  H   H364      1.0  0.05759  0.71237  0.34721  1.0000
  H   H365      1.0  0.07501  0.68076  0.35174  1.0000
  N   N12       1.0  0.01287  0.80186  0.04527  1.0000
  H   H366      1.0  0.03421  0.64838  0.41189  1.0000
  C   C214      1.0  0.31757  0.61802  0.39051  1.0000
  H   H367      1.0  0.29516  0.73403  0.16669  1.0000
  H   H368      1.0  0.01891  0.85661  0.04160  1.0000
  H   H369      1.0  0.08187  0.72162  0.31439  1.0000
  H   H370      1.0  0.08031  0.75813  0.33881  1.0000
  H   H371      1.0  0.14032  0.90157  0.09084  1.0000
  H   H372      1.0  0.05020  0.73685  0.10720  1.0000
  N   N13       1.0  0.19795  0.71424  0.36661  1.0000
  C   C215      1.0  0.21701  0.72489  0.36560  1.0000
  C   C216      1.0  0.18812  0.74322  0.38177  1.0000
  C   C217      1.0  0.19015  0.70942  0.33715  1.0000
  C   C218      1.0  0.18970  0.78017  0.36943  1.0000
  H   H373      1.0  0.05043  0.59564  0.39792  1.0000
  H   H374      1.0  0.25805  0.69193  0.34633  1.0000
  C   C219      1.0  0.17743  0.80590  0.38438  1.0000
  H   H375      1.0  0.21846  0.74892  0.35310  1.0000
  H   H376      1.0  0.22195  0.73157  0.38739  1.0000
  H   H377      1.0  0.19245  0.74509  0.40441  1.0000
  H   H378      1.0  0.17379  0.73752  0.38183  1.0000
  H   H379      1.0  0.17582  0.71541  0.33701  1.0000
  H   H380      1.0  0.19591  0.72865  0.32269  1.0000
  H   H381      1.0  0.20566  0.66340  0.32286  1.0000
  H   H382      1.0  0.18629  0.77971  0.34655  1.0000
  H   H383      1.0  0.20321  0.79051  0.37247  1.0000
  H   H384      1.0  0.22834  0.69916  0.32852  1.0000
  C   C220      1.0  0.01701  0.77066  0.06336  1.0000
  H   H385      1.0  0.31934  0.81839  0.25439  1.0000
  C   C221      1.0  0.06656  0.75722  0.44055  1.0000
  H   H386      1.0  0.17084  0.67838  0.29162  1.0000
  H   H387      1.0  0.18030  0.80688  0.40749  1.0000
  H   H388      1.0  0.17929  0.83243  0.37599  1.0000
  H   H389      1.0  0.16351  0.79832  0.38066  1.0000
  N   N14       1.0  0.14542  0.86573  0.17301  1.0000
  C   C222      1.0  0.15746  0.83668  0.16317  1.0000
  C   C223      1.0  0.15425  0.88757  0.19621  1.0000
  C   C224      1.0  0.12946  0.84880  0.18532  1.0000
  C   C225      1.0  0.13926  0.88821  0.14897  1.0000
  H   H390      1.0  0.03040  0.74334  0.43543  1.0000
  C   C226      1.0  0.15050  0.81345  0.13816  1.0000
  C   C227      1.0  0.11625  0.87367  0.20031  1.0000
  C   C228      1.0  0.16864  0.96452  0.28094  1.0000
  C   C229      1.0  0.02484  0.87542  0.10031  1.0000
  H   H391      1.0  0.28401  0.73563  0.20025  1.0000
  H   H392      1.0  0.15968  0.92751  0.14481  1.0000
  C   C230      1.0  0.10078  0.85337  0.21170  1.0000
  H   H393      1.0  0.16075  0.81938  0.18122  1.0000
  H   H394      1.0  0.17023  0.84683  0.15624  1.0000
  C   C231      1.0  0.02065  0.83532  0.05712  1.0000
  H   H395      1.0  0.15237  0.87546  0.21708  1.0000
  H   H396      1.0  0.13361  0.82884  0.20099  1.0000
  H   H397      1.0  0.12175  0.83456  0.16864  1.0000
  H   H398      1.0  0.13064  0.87293  0.13406  1.0000
  H   H399      1.0  0.13084  0.90985  0.15695  1.0000
  H   H400      1.0  0.14782  0.91366  0.19810  1.0000
  H   H401      1.0  0.05860  0.63640  0.11413  1.0000
  H   H402      1.0  0.13790  0.80096  0.14303  1.0000
  H   H403      1.0  0.09304  0.66220  0.14211  1.0000
  H   H404      1.0  0.11076  0.89311  0.18554  1.0000
  H   H405      1.0  0.12253  0.88783  0.21847  1.0000
  H   H406      1.0  0.29867  0.68374  0.21572  1.0000
  H   H407      1.0  0.31496  0.60087  0.37167  1.0000
  H   H408      1.0  0.18547  0.63184  0.42172  1.0000
  C   C232      1.0  0.24902  0.70857  0.35898  1.0000
  H   H409      1.0  0.17623  0.79522  0.12450  1.0000
  H   H410      1.0  0.98971  0.83075  0.03174  1.0000
  C   C233      1.0  0.99280  0.69681  0.99361  1.0000
  H   H411      1.0  0.01053  0.82707  0.10004  1.0000
  C   C234      1.0  0.15373  0.90596  0.13193  1.0000
  H   H412      1.0  0.12663  0.97783  0.25860  1.0000
  H   H413      1.0  0.22822  0.67164  0.35902  1.0000
  H   H414      1.0  0.09171  0.87160  0.22271  1.0000
  H   H415      1.0  0.09344  0.83992  0.19416  1.0000
  H   H416      1.0  0.10545  0.83376  0.22709  1.0000
  C   C235      1.0  0.18090  0.91912  0.21734  1.0000
  C   C236      1.0  0.05148  0.60571  0.42007  1.0000
  H   H417      1.0  0.04608  0.77490  0.06664  1.0000
  C   C237      1.0  0.08512  0.53095  0.04018  1.0000
  Fe  Fe25      1.0  0.05649  0.68824  0.01366  1.0000
  H   H418      1.0  0.16844  0.67326  0.37308  1.0000
  C   C238      1.0  0.03748  0.73632  0.09537  1.0000
  H   H419      1.0  0.12758  0.98744  0.35834  1.0000
  H   H420      1.0  0.15811  0.76753  0.11371  1.0000
  C   C239      1.0  0.01282  0.84875  0.08540  1.0000
  C   C240      1.0  0.16354  0.78426  0.13119  1.0000
  H   H421      1.0  0.31052  0.82686  0.16474  1.0000
  C   C241      1.0  0.13995  0.98375  0.26533  1.0000
  C   C242      1.0  0.29581  0.80660  0.21362  1.0000
  C   C243      1.0  0.10899  0.49133  0.02805  1.0000
  C   C244      1.0  0.03926  0.79211  0.01175  1.0000
  C   C245      1.0  0.29652  0.72941  0.18966  1.0000
  H   H422      1.0  0.14821  0.96932  0.34726  1.0000
  H   H423      1.0  0.98678  0.75096  0.03850  1.0000
  C   C246      1.0  0.27806  0.80934  0.19706  1.0000
  C   C247      1.0  0.26301  0.81816  0.21693  1.0000
  H   H424      1.0  0.00538  0.70304  0.39501  1.0000
  S   S53       1.0  0.07373  0.63409  0.48410  1.0000
  C   C248      1.0  0.14605  0.92209  0.10510  1.0000
  Fe  Fe26      1.0  0.09511  0.68916  0.99585  1.0000
  H   H425      1.0  0.29815  0.78897  0.15707  1.0000
  H   H426      1.0  0.29342  0.79298  0.23380  1.0000
  H   H427      1.0  0.29897  0.83406  0.21998  1.0000
  H   H428      1.0  0.99965  0.72912  0.42557  1.0000
  H   H429      1.0  0.01353  0.77167  0.00601  1.0000
  C   C249      1.0  0.07534  0.50200  0.04849  1.0000
  H   H430      1.0  0.07907  0.75693  0.48217  1.0000
  H   H431      1.0  0.31580  0.60290  0.41000  1.0000
  H   H432      1.0  0.02719  0.89786  0.08641  1.0000
  N   N15       1.0  0.31114  0.78982  0.19852  1.0000
  H   H433      1.0  0.16588  0.76768  0.14991  1.0000
  H   H434      1.0  0.01672  0.74639  0.05007  1.0000
  H   H435      1.0  0.07788  0.70550  0.44257  1.0000
  H   H436      1.0  0.27885  0.83045  0.18138  1.0000
  H   H437      1.0  0.27454  0.78509  0.18533  1.0000
  H   H438      1.0  0.25059  0.82117  0.20451  1.0000
  H   H439      1.0  0.26119  0.79686  0.23221  1.0000
  H   H440      1.0  0.26566  0.84292  0.22882  1.0000
  S   S54       1.0  0.07793  0.72874  0.01801  1.0000
  H   H441      1.0  0.00885  0.74980  0.39537  1.0000
  H   H442      1.0  0.02682  0.73188  0.11056  1.0000
  H   H443      1.0  0.25150  0.73624  0.35396  1.0000
  C   C250      1.0  0.22999  0.69865  0.35189  1.0000
  H   H444      1.0  0.17836  0.90279  0.17385  1.0000
  C   C251      1.0  0.29958  0.69039  0.19311  1.0000
  H   H445      1.0  0.16312  0.62830  0.40882  1.0000
  C   C252      1.0  0.17676  0.63443  0.40275  1.0000
  H   H446      1.0  0.18085  0.61531  0.38616  1.0000
  H   H447      1.0  0.04191  0.59158  0.43300  1.0000
  Fe  Fe27      1.0  0.08118  0.62904  0.03169  1.0000
  N   N16       1.0  0.11035  0.59884  0.12528  1.0000
  C   C253      1.0  0.11662  0.60829  0.09639  1.0000
  C   C254      1.0  0.09101  0.60719  0.12678  1.0000
  C   C255      1.0  0.12085  0.61943  0.14721  1.0000
  C   C256      1.0  0.11290  0.56051  0.13071  1.0000
  C   C257      1.0  0.10497  0.53509  0.10796  1.0000
  C   C258      1.0  0.13569  0.59714  0.08941  1.0000
  C   C259      1.0  0.11458  0.61708  0.17813  1.0000
  H   H448      1.0  0.06309  0.67981  0.12766  1.0000
  H   H449      1.0  0.14857  0.82901  0.11883  1.0000
  H   H450      1.0  0.03761  0.86321  0.10620  1.0000
  C   C260      1.0  0.14040  0.60755  0.05951  1.0000
  C   C261      1.0  0.12557  0.64059  0.19798  1.0000
  H   H451      1.0  0.11598  0.63704  0.09383  1.0000
  H   H452      1.0  0.10767  0.59744  0.07952  1.0000
  H   H453      1.0  0.08373  0.59431  0.10881  1.0000
  H   H454      1.0  0.08527  0.59611  0.14609  1.0000
  H   H455      1.0  0.12139  0.64743  0.14162  1.0000
  H   H456      1.0  0.13478  0.61066  0.14747  1.0000
  H   H457      1.0  0.12710  0.55417  0.13347  1.0000
  H   H458      1.0  0.10686  0.55359  0.15104  1.0000
  H   H459      1.0  0.11061  0.53949  0.08697  1.0000
  H   H460      1.0  0.09051  0.53825  0.10617  1.0000
  H   H461      1.0  0.14525  0.60991  0.10420  1.0000
  H   H462      1.0  0.13746  0.56851  0.09062  1.0000
  H   H463      1.0  0.11587  0.59000  0.18571  1.0000
  H   H464      1.0  0.10070  0.62541  0.18015  1.0000
  H   H465      1.0  0.06238  0.50602  0.05698  1.0000
  H   H466      1.0  0.04722  0.65308  0.44399  1.0000
  C   C262      1.0  0.18511  0.67242  0.29242  1.0000
  H   H467      1.0  0.08927  0.65690  0.10469  1.0000
  H   H468      1.0  0.25201  0.70466  0.38176  1.0000
  H   H469      1.0  0.03506  0.83289  0.06023  1.0000
  H   H470      1.0  0.04377  0.76720  0.02089  1.0000
  H   H471      1.0  0.06488  0.60016  0.42853  1.0000
  H   H472      1.0  0.14003  0.63637  0.05759  1.0000
  H   H473      1.0  0.15387  0.59836  0.05469  1.0000
  H   H474      1.0  0.13113  0.59562  0.04369  1.0000
  H   H475      1.0  0.13971  0.63350  0.19704  1.0000
  H   H476      1.0  0.07889  0.76663  0.43128  1.0000
  H   H477      1.0  0.19222  0.69183  0.27991  1.0000
  S   S55       1.0  0.07630  0.57334  0.04630  1.0000
  C   C263      1.0  0.08605  0.64640  0.12561  1.0000
  C   C264      1.0  0.19646  0.68205  0.38424  1.0000
  C   C265      1.0  0.10191  0.52539  0.02947  1.0000
  H   H478      1.0  0.00662  0.76691  0.07926  1.0000
  C   C266      1.0  0.17440  0.89315  0.19459  1.0000
  H   H479      1.0  0.20276  0.65919  0.37388  1.0000
  C   C267      1.0  0.17745  0.67153  0.39170  1.0000
  H   H480      1.0  0.12313  0.49219  0.11626  1.0000
  H   H481      1.0  0.17237  0.68921  0.40859  1.0000
  H   H482      1.0  0.10964  0.54740  0.02318  1.0000
  C   C268      1.0  0.01920  0.79602  0.01546  1.0000
  H   H483      1.0  0.06278  0.64386  0.15158  1.0000
  H   H484      1.0  0.28926  0.67553  0.18122  1.0000
  H   H485      1.0  0.15659  0.93547  0.09367  1.0000
  H   H486      1.0  0.17860  0.90875  0.23869  1.0000
  C   C269      1.0  0.98906  0.67483  0.04889  1.0000
  H   H487      1.0  0.14541  0.98185  0.38387  1.0000
  H   H488      1.0  0.17407  0.94463  0.21533  1.0000
  H   H489      1.0  0.05527  0.75847  0.48264  1.0000
  C   C270      1.0  0.06712  0.76781  0.47183  1.0000
  C   C271      1.0  0.99315  0.80665  0.04346  1.0000
  H   H490      1.0  0.13574  0.94158  0.11045  1.0000
  C   C272      1.0  0.10876  0.49718  0.11539  1.0000
  H   H491      1.0  0.31093  0.77993  0.10947  1.0000
  H   H492      1.0  0.31133  0.74569  0.22646  1.0000
  S   S56       1.0  0.07321  0.65005  0.98913  1.0000
  C   C273      1.0  0.31163  0.75106  0.20346  1.0000
  C   C274      1.0  0.31052  0.79805  0.16740  1.0000
  H   H493      1.0  0.10298  0.49085  0.13602  1.0000
  H   H494      1.0  0.98770  0.66679  0.07051  1.0000
  Fe  Fe28      1.0  0.17748  0.78115  0.78546  1.0000
  S   S57       1.0  0.15426  0.74694  0.77388  1.0000
  S   S58       1.0  0.20285  0.75445  0.80132  1.0000
  Fe  Fe29      1.0  0.15492  0.84953  0.78313  1.0000
  S   S59       1.0  0.13068  0.81842  0.77097  1.0000
  S   S60       1.0  0.15195  0.90736  0.79842  1.0000
  Fe  Fe30      1.0  0.13903  0.78034  0.80483  1.0000
  S   S61       1.0  0.11816  0.76132  0.83601  1.0000
  Fe  Fe31      1.0  0.14771  0.78720  0.74105  1.0000
  S   S62       1.0  0.14234  0.77626  0.69314  1.0000
  S   S63       1.0  0.16244  0.81248  0.81789  1.0000
  S   S64       1.0  0.17183  0.82038  0.75150  1.0000
  Fe  Fe32      1.0  0.09238  0.66496  0.55735  1.0000
  H   H495      1.0  0.11419  0.87772  0.81469  1.0000
  S   S65       1.0  0.09832  0.67795  0.60480  1.0000
  H   H496      1.0  0.29532  0.86062  0.63089  1.0000
  H   H497      1.0  0.03498  0.73467  0.68689  1.0000
  H   H498      1.0  0.23094  0.84263  0.85405  1.0000
  H   H499      1.0  0.13781  0.86571  0.84856  1.0000
  S   S66       1.0  0.11601  0.70405  0.96331  1.0000
  Fe  Fe33      1.0  0.06084  0.66993  0.51543  1.0000
  S   S67       1.0  0.03443  0.69517  0.50325  1.0000
  H   H500      1.0  0.22049  0.81549  0.87938  1.0000
  S   S68       1.0  0.06687  0.63506  0.55171  1.0000
  H   H501      1.0  0.17380  0.64594  0.72945  1.0000
  H   H502      1.0  0.02066  0.64263  0.54141  1.0000
  Fe  Fe34      1.0  0.30500  0.68951  0.77244  1.0000
  S   S69       1.0  0.27855  0.71037  0.75489  1.0000
  C   C275      1.0  0.99243  0.64976  0.54080  1.0000
  C   C276      1.0  0.01279  0.68284  0.51275  1.0000
  C   C277      1.0  0.00972  0.65696  0.53245  1.0000
  C   C278      1.0  0.12952  0.85232  0.86409  1.0000
  S   S70       1.0  0.08536  0.70241  0.52238  1.0000
  C   C279      1.0  0.22384  0.74286  0.78785  1.0000
  C   C280      1.0  0.22969  0.75413  0.76175  1.0000
  C   C281      1.0  0.24643  0.74393  0.75208  1.0000
  C   C282      1.0  0.25760  0.72253  0.76838  1.0000
  C   C283      1.0  0.25166  0.71109  0.79438  1.0000
  C   C284      1.0  0.23498  0.72145  0.80412  1.0000
  H   H503      1.0  0.22139  0.77092  0.74914  1.0000
  H   H504      1.0  0.25081  0.75287  0.73188  1.0000
  H   H505      1.0  0.25974  0.69361  0.80670  1.0000
  H   H506      1.0  0.23054  0.71224  0.82422  1.0000
  C   C285      1.0  0.12992  0.74845  0.66911  1.0000
  C   C286      1.0  0.13262  0.75081  0.63978  1.0000
  C   C287      1.0  0.12322  0.72958  0.61987  1.0000
  C   C288      1.0  0.11088  0.70543  0.62890  1.0000
  C   C289      1.0  0.10819  0.70305  0.65824  1.0000
  C   C290      1.0  0.11757  0.72432  0.67815  1.0000
  H   H507      1.0  0.14206  0.76934  0.63236  1.0000
  H   H508      1.0  0.12552  0.73196  0.59751  1.0000
  H   H509      1.0  0.09870  0.68462  0.66566  1.0000
  H   H510      1.0  0.11516  0.72220  0.70049  1.0000
  C   C291      1.0  0.11794  0.74509  0.87137  1.0000
  C   C292      1.0  0.10175  0.74191  0.88505  1.0000
  C   C293      1.0  0.10082  0.72929  0.91294  1.0000
  C   C294      1.0  0.11614  0.71978  0.92779  1.0000
  C   C295      1.0  0.13233  0.72307  0.91412  1.0000
  C   C296      1.0  0.13323  0.73528  0.88614  1.0000
  H   H511      1.0  0.08977  0.74908  0.87393  1.0000
  H   H512      1.0  0.08825  0.72690  0.92292  1.0000
  H   H513      1.0  0.14428  0.71556  0.92515  1.0000
  H   H514      1.0  0.14575  0.73647  0.87586  1.0000
  C   C297      1.0  0.28821  0.81419  0.80421  1.0000
  H   H515      1.0  0.00225  0.76198  0.53779  1.0000
  H   H516      1.0  0.00382  0.53425  0.51315  1.0000
  H   H517      1.0  0.08465  0.49819  0.91314  1.0000
  H   H518      1.0  0.10524  0.52198  0.54272  1.0000
  C   C298      1.0  0.11009  0.85107  0.92812  1.0000
  C   C299      1.0  0.15596  0.95145  0.78788  1.0000
  C   C300      1.0  0.16390  0.95957  0.76237  1.0000
  H   H519      1.0  0.30934  0.82076  0.91574  1.0000
  H   H520      1.0  0.16782  0.93868  0.74811  1.0000
  N   N17       1.0  0.27718  0.78134  0.84804  1.0000
  H   H521      1.0  0.29498  0.66391  0.86336  1.0000
  C   C301      1.0  0.27398  0.74512  0.85894  1.0000
  C   C302      1.0  0.25953  0.79880  0.84349  1.0000
  C   C303      1.0  0.28763  0.80291  0.86941  1.0000
  H   H522      1.0  0.08859  0.83429  0.95409  1.0000
  H   H523      1.0  0.12142  0.90550  0.90389  1.0000
  C   C304      1.0  0.24693  0.79902  0.86895  1.0000
  H   H524      1.0  0.12379  0.81023  0.90448  1.0000
  H   H525      1.0  0.31441  0.78576  0.85745  1.0000
  H   H526      1.0  0.11370  0.87154  0.94415  1.0000
  C   C305      1.0  0.22923  0.81534  0.86088  1.0000
  H   H527      1.0  0.26122  0.82662  0.83797  1.0000
  C   C306      1.0  0.99826  0.70053  0.50089  1.0000
  H   H528      1.0  0.27251  0.74612  0.88233  1.0000
  H   H529      1.0  0.08088  0.55389  0.93897  1.0000
  H   H530      1.0  0.15875  0.91716  0.88180  1.0000
  H   H531      1.0  0.22275  0.80000  0.84347  1.0000
  H   H532      1.0  0.28838  0.83047  0.86275  1.0000
  H   H533      1.0  0.28080  0.80409  0.88994  1.0000
  H   H534      1.0  0.00040  0.55571  0.54718  1.0000
  H   H535      1.0  0.18662  0.81282  0.91010  1.0000
  H   H536      1.0  0.18499  0.81446  0.87190  1.0000
  H   H537      1.0  0.09101  0.75064  0.57383  1.0000
  H   H538      1.0  0.25249  0.81451  0.88701  1.0000
  H   H539      1.0  0.24425  0.77229  0.87622  1.0000
  C   C307      1.0  0.17964  0.80225  0.89098  1.0000
  H   H540      1.0  0.27171  0.67266  0.86434  1.0000
  C   C308      1.0  0.15989  0.80887  0.89291  1.0000
  C   C309      1.0  0.28492  0.68381  0.86889  1.0000
  C   C310      1.0  0.14449  0.92269  0.88310  1.0000
  H   H541      1.0  0.27850  0.76162  0.80515  1.0000
  C   C311      1.0  0.30647  0.78996  0.87659  1.0000
  H   H542      1.0  0.28509  0.88643  0.60373  1.0000
  H   H543      1.0  0.09173  0.86841  0.82308  1.0000
  H   H544      1.0  0.15254  0.67651  0.69091  1.0000
  H   H545      1.0  0.10140  0.84361  0.86872  1.0000
  H   H546      1.0  0.13573  0.83025  0.93304  1.0000
  H   H547      1.0  0.14015  0.66234  0.75132  1.0000
  C   C312      1.0  0.17229  0.67427  0.72599  1.0000
  C   C313      1.0  0.12699  0.83606  0.91455  1.0000
  N   N18       1.0  0.13645  0.85862  0.89384  1.0000
  C   C314      1.0  0.28605  0.77928  0.81976  1.0000
  H   H548      1.0  0.30153  0.90581  0.62696  1.0000
  H   H549      1.0  0.18216  0.77373  0.88938  1.0000
  N   N19       1.0  0.03919  0.72630  0.59902  1.0000
  C   C315      1.0  0.05811  0.72930  0.59060  1.0000
  C   C316      1.0  0.03406  0.68830  0.59808  1.0000
  C   C317      1.0  0.02810  0.74456  0.57691  1.0000
  C   C318      1.0  0.03569  0.74268  0.62776  1.0000
  C   C319      1.0  0.05107  0.74253  0.64993  1.0000
  C   C320      1.0  0.06451  0.76692  0.58518  1.0000
  C   C321      1.0  0.00790  0.74094  0.57948  1.0000
  C   C322      1.0  0.04408  0.66388  0.61848  1.0000
  C   C323      1.0  0.03785  0.62619  0.61449  1.0000
  C   C324      1.0  0.04478  0.75350  0.67928  1.0000
  C   C325      1.0  0.08447  0.76986  0.58804  1.0000
  H   H550      1.0  0.30121  0.72549  0.85556  1.0000
  H   H551      1.0  0.06045  0.71372  0.57088  1.0000
  H   H552      1.0  0.06702  0.71748  0.60650  1.0000
  H   H553      1.0  0.02000  0.68521  0.60322  1.0000
  H   H554      1.0  0.03559  0.67755  0.57620  1.0000
  H   H555      1.0  0.03158  0.73498  0.55532  1.0000
  H   H556      1.0  0.03093  0.77300  0.57729  1.0000
  H   H557      1.0  0.03182  0.77058  0.62574  1.0000
  H   H558      1.0  0.02414  0.73006  0.63732  1.0000
  H   H559      1.0  0.06138  0.76124  0.64405  1.0000
  H   H560      1.0  0.05746  0.71671  0.65170  1.0000
  H   H561      1.0  0.06061  0.77440  0.56335  1.0000
  H   H562      1.0  0.05860  0.78613  0.60008  1.0000
  H   H563      1.0  0.31272  0.80222  0.78307  1.0000
  H   H564      1.0  0.00368  0.74627  0.60146  1.0000
  H   H565      1.0  0.05842  0.66422  0.61492  1.0000
  H   H566      1.0  0.04143  0.67147  0.64071  1.0000
  H   H567      1.0  0.02375  0.62401  0.61970  1.0000
  H   H568      1.0  0.03969  0.61684  0.59238  1.0000
  H   H569      1.0  0.04559  0.60904  0.62873  1.0000
  H   H570      1.0  0.03885  0.78000  0.67887  1.0000
  C   C326      1.0  0.31174  0.87019  0.59460  1.0000
  C   C327      1.0  0.29895  0.80916  0.77748  1.0000
  H   H571      1.0  0.08880  0.76511  0.61019  1.0000
  H   H572      1.0  0.10317  0.98069  0.75574  1.0000
  H   H573      1.0  0.08867  0.79644  0.58237  1.0000
  H   H574      1.0  0.10714  0.88924  0.86563  1.0000
  C   C328      1.0  0.08865  0.53274  0.94898  1.0000
  H   H575      1.0  0.14081  0.90035  0.92441  1.0000
  H   H576      1.0  0.10705  0.83307  0.81861  1.0000
  N   N20       1.0  0.18697  0.68805  0.70843  1.0000
  C   C329      1.0  0.20396  0.68554  0.72529  1.0000
  C   C330      1.0  0.18336  0.72630  0.70367  1.0000
  C   C331      1.0  0.18835  0.66958  0.67997  1.0000
  C   C332      1.0  0.18298  0.63052  0.67819  1.0000
  C   C333      1.0  0.19782  0.74662  0.68829  1.0000
  C   C334      1.0  0.21054  0.64837  0.73215  1.0000
  C   C335      1.0  0.22656  0.64961  0.75207  1.0000
  C   C336      1.0  0.18771  0.61412  0.64961  1.0000
  C   C337      1.0  0.19091  0.78164  0.67782  1.0000
  H   H577      1.0  0.21493  0.69763  0.71391  1.0000
  H   H578      1.0  0.20282  0.70066  0.74560  1.0000
  H   H579      1.0  0.18093  0.74028  0.72416  1.0000
  H   H580      1.0  0.17114  0.72939  0.69072  1.0000
  H   H581      1.0  0.17997  0.68278  0.66378  1.0000
  H   H582      1.0  0.20199  0.67164  0.67213  1.0000
  H   H583      1.0  0.16858  0.62779  0.68041  1.0000
  H   H584      1.0  0.18936  0.61494  0.69490  1.0000
  H   H585      1.0  0.20273  0.73169  0.66973  1.0000
  H   H586      1.0  0.20904  0.75222  0.70296  1.0000
  H   H587      1.0  0.20039  0.63285  0.74255  1.0000
  H   H588      1.0  0.21468  0.63473  0.71246  1.0000
  H   H589      1.0  0.22303  0.66171  0.77271  1.0000
  H   H590      1.0  0.23140  0.62274  0.75589  1.0000
  H   H591      1.0  0.23734  0.66468  0.74271  1.0000
  H   H592      1.0  0.18333  0.58652  0.64860  1.0000
  H   H593      1.0  0.18109  0.62827  0.63211  1.0000
  H   H594      1.0  0.20214  0.61465  0.64670  1.0000
  H   H595      1.0  0.18605  0.79785  0.69573  1.0000
  H   H596      1.0  0.20162  0.79597  0.66757  1.0000
  H   H597      1.0  0.18002  0.77766  0.66213  1.0000
  H   H598      1.0  0.10858  0.80957  0.95901  1.0000
  H   H599      1.0  0.25244  0.78615  0.82514  1.0000
  H   H600      1.0  0.99416  0.70588  0.97227  1.0000
  C   C338      1.0  0.99814  0.76608  0.56002  1.0000
  C   C339      1.0  0.14001  0.65761  0.72806  1.0000
  H   H601      1.0  0.17293  0.68622  0.74767  1.0000
  H   H602      1.0  0.14839  0.96306  0.91580  1.0000
  H   H603      1.0  0.09509  0.80280  0.92752  1.0000
  C   C340      1.0  0.99807  0.55745  0.52401  1.0000
  S   S71       1.0  0.10707  0.62772  0.52808  1.0000
  C   C341      1.0  0.10558  0.86027  0.82670  1.0000
  H   H604      1.0  0.27521  0.82458  0.79742  1.0000
  C   C342      1.0  0.08255  0.50220  0.51997  1.0000
  C   C343      1.0  0.15344  0.68086  0.71414  1.0000
  H   H605      1.0  0.14955  0.70830  0.71861  1.0000
  H   H606      1.0  0.31785  0.84142  0.88471  1.0000
  Fe  Fe35      1.0  0.08114  0.60029  0.52076  1.0000
  H   H607      1.0  0.30699  0.84632  0.58337  1.0000
  H   H608      1.0  0.29499  0.83396  0.81783  1.0000
  H   H609      1.0  0.29923  0.76717  0.82152  1.0000
  H   H610      1.0  0.26134  0.73453  0.85029  1.0000
  S   S72       1.0  0.07229  0.54333  0.51416  1.0000
  H   H611      1.0  0.12843  0.96781  0.89469  1.0000
  C   C344      1.0  0.31634  0.81627  0.89561  1.0000
  C   C345      1.0  0.11012  0.86232  0.85827  1.0000
  H   H612      1.0  0.29318  0.78831  0.76355  1.0000
  C   C346      1.0  0.15570  0.84858  0.89452  1.0000
  H   H613      1.0  0.16224  0.85893  0.91423  1.0000
  C   C347      1.0  0.13524  0.89663  0.90259  1.0000
  H   H614      1.0  0.12666  0.66369  0.71964  1.0000
  H   H615      1.0  0.14285  0.62968  0.72342  1.0000
  C   C348      1.0  0.29761  0.88145  0.61542  1.0000
  S   S73       1.0  0.31233  0.65259  0.80750  1.0000
  H   H616      1.0  0.04133  0.52530  0.56061  1.0000
  H   H617      1.0  0.15535  0.79536  0.91193  1.0000
  H   H618      1.0  0.05612  0.75398  0.69443  1.0000
  C   C349      1.0  0.10002  0.82266  0.94312  1.0000
  H   H619      1.0  0.10102  0.86302  0.91257  1.0000
  H   H620      1.0  0.15345  0.79637  0.87423  1.0000
  H   H621      1.0  0.31739  0.61384  0.68665  1.0000
  H   H622      1.0  0.14477  0.97373  0.82568  1.0000
  H   H623      1.0  0.31302  0.89148  0.57925  1.0000
  C   C350      1.0  0.09853  0.49887  0.53478  1.0000
  C   C351      1.0  0.28769  0.71650  0.85163  1.0000
  H   H624      1.0  0.16264  0.86054  0.87664  1.0000
  H   H625      1.0  0.13064  0.82436  0.85812  1.0000
  H   H626      1.0  0.28661  0.70899  0.82887  1.0000
  C   C352      1.0  0.14250  0.96016  0.89422  1.0000
  H   H627      1.0  0.00367  0.71424  0.57304  1.0000
  H   H628      1.0  0.10279  0.53751  0.94530  1.0000
  H   H629      1.0  0.00074  0.79353  0.56668  1.0000
  H   H630      1.0  0.28638  0.68997  0.89186  1.0000
  Fe  Fe36      1.0  0.09862  0.66395  0.49265  1.0000
  H   H631      1.0  0.13866  0.92159  0.86141  1.0000
  H   H632      1.0  0.29906  0.83379  0.76556  1.0000
  C   C353      1.0  0.31619  0.51921  0.77779  1.0000
  H   H633      1.0  0.03703  0.76910  0.96921  1.0000
  H   H634      1.0  0.30590  0.76534  0.88844  1.0000
  H   H635      1.0  0.31876  0.79618  0.61221  1.0000
  H   H636      1.0  0.99031  0.63026  0.55654  1.0000
  H   H637      1.0  0.08627  0.53388  0.97209  1.0000
  C   C354      1.0  0.08302  0.49739  0.93639  1.0000
  C   C355      1.0  0.04394  0.79092  0.98045  1.0000
  C   C356      1.0  0.03250  0.50502  0.56884  1.0000
  H   H638      1.0  0.31537  0.62886  0.65090  1.0000
  C   C357      1.0  0.15100  0.97937  0.80598  1.0000
  H   H639      1.0  0.06887  0.49433  0.94055  1.0000
  H   H640      1.0  0.30704  0.54010  0.78242  1.0000
  H   H641      1.0  0.31631  0.75438  0.57132  1.0000
  H   H642      1.0  0.00489  0.58099  0.51654  1.0000
  H   H643      1.0  0.02102  0.50240  0.55415  1.0000
  H   H644      1.0  0.02801  0.51369  0.59006  1.0000
  H   H645      1.0  0.12563  0.98142  0.74456  1.0000
  H   H646      1.0  0.04036  0.81583  0.97025  1.0000
  H   H647      1.0  0.14937  0.97814  0.88006  1.0000
  H   H648      1.0  0.05829  0.78662  0.97836  1.0000
  H   H649      1.0  0.00042  0.72059  0.48562  1.0000
  S   S74       1.0  0.33860  0.25558  0.29371  1.0000
  C   C358      1.0  0.57277  0.00414  0.00672  1.0000
  S   S75       1.0  0.35896  0.32827  0.28208  1.0000
  C   C359      1.0  0.45782  0.08343  0.46904  1.0000
  Fe  Fe37      1.0  0.34705  0.28471  0.25516  1.0000
  S   S76       1.0  0.36316  0.25331  0.22199  1.0000
  Fe  Fe38      1.0  0.34879  0.30050  0.32034  1.0000
  S   S77       1.0  0.36659  0.29866  0.36063  1.0000
  S   S78       1.0  0.63688  0.31978  0.27676  1.0000
  N   N21       1.0  0.51325  0.07392  0.01573  1.0000
  C   C360      1.0  0.37262  0.38264  0.20362  1.0000
  S   S79       1.0  0.63067  0.27705  0.34887  1.0000
  C   C361      1.0  0.63502  0.32794  0.47535  1.0000
  H   H650      1.0  0.41554  0.42513  0.25964  1.0000
  Fe  Fe39      1.0  0.58765  0.13846  0.03962  1.0000
  S   S80       1.0  0.56974  0.17429  0.06403  1.0000
  S   S81       1.0  0.59146  0.08384  0.05799  1.0000
  C   C362      1.0  0.62605  0.02666  0.44573  1.0000
  S   S82       1.0  0.57964  0.23584  0.01995  1.0000
  H   H651      1.0  0.36056  0.39465  0.24362  1.0000
  Fe  Fe40      1.0  0.59099  0.21491  0.06115  1.0000
  S   S83       1.0  0.59581  0.24987  0.10123  1.0000
  Fe  Fe41      1.0  0.55979  0.19216  0.02178  1.0000
  C   C363      1.0  0.34426  0.27198  0.46530  1.0000
  S   S84       1.0  0.60956  0.17808  0.03888  1.0000
  S   S85       1.0  0.40376  0.06332  0.01404  1.0000
  H   H652      1.0  0.60923  0.08638  0.13235  1.0000
  H   H653      1.0  0.39859  0.45186  0.32058  1.0000
  S   S86       1.0  0.38813  0.18766  0.45630  1.0000
  Fe  Fe42      1.0  0.42750  0.18111  0.03906  1.0000
  S   S87       1.0  0.40995  0.14927  0.06638  1.0000
  S   S88       1.0  0.45466  0.19059  0.05980  1.0000
  Fe  Fe43      1.0  0.40132  0.12143  0.02605  1.0000
  C   C364      1.0  0.44157  0.01025  0.06576  1.0000
  Fe  Fe44      1.0  0.38902  0.18925  0.05660  1.0000
  S   S89       1.0  0.37097  0.21807  0.08873  1.0000
  C   C365      1.0  0.49500  0.19418  0.00387  1.0000
  S   S90       1.0  0.40697  0.22247  0.03065  1.0000
  H   H654      1.0  0.58045  0.26406  0.46367  1.0000
  C   C366      1.0  0.38660  0.02102  0.05208  1.0000
  C   C367      1.0  0.64093  0.10314  0.38232  1.0000
  C   C368      1.0  0.37955  0.44649  0.26856  1.0000
  C   C369      1.0  0.33491  0.29731  0.44552  1.0000
  C   C370      1.0  0.58548  0.04204  0.04369  1.0000
  C   C371      1.0  0.37376  0.39758  0.23432  1.0000
  C   C372      1.0  0.57709  0.03784  0.01727  1.0000
  H   H655      1.0  0.33159  0.15780  0.18012  1.0000
  H   H656      1.0  0.40645  0.99373  0.99189  1.0000
  C   C373      1.0  0.51007  0.19385  0.02156  1.0000
  C   C374      1.0  0.50792  0.19197  0.05081  1.0000
  C   C375      1.0  0.49089  0.19079  0.06209  1.0000
  C   C376      1.0  0.47581  0.19129  0.04434  1.0000
  H   H657      1.0  0.43360  0.45082  0.22225  1.0000
  H   H658      1.0  0.39267  0.33321  0.08601  1.0000
  H   H659      1.0  0.51935  0.19180  0.06471  1.0000
  H   H660      1.0  0.48939  0.18966  0.08472  1.0000
  H   H661      1.0  0.39701  0.43711  0.20203  1.0000
  H   H662      1.0  0.53964  0.12195  0.99706  1.0000
  C   C377      1.0  0.38668  0.43527  0.32036  1.0000
  H   H663      1.0  0.44117  0.05797  0.09172  1.0000
  H   H664      1.0  0.44078  0.06472  0.05409  1.0000
  C   C378      1.0  0.61169  0.25400  0.12960  1.0000
  C   C379      1.0  0.60712  0.27229  0.15459  1.0000
  C   C380      1.0  0.61885  0.27463  0.17816  1.0000
  C   C381      1.0  0.63545  0.25892  0.17708  1.0000
  C   C382      1.0  0.64012  0.24115  0.15193  1.0000
  C   C383      1.0  0.62840  0.23883  0.12837  1.0000
  H   H665      1.0  0.59426  0.28419  0.15592  1.0000
  H   H666      1.0  0.61492  0.28796  0.19737  1.0000
  C   C384      1.0  0.39058  0.30495  0.08173  1.0000
  H   H667      1.0  0.63232  0.22538  0.10921  1.0000
  C   C385      1.0  0.62883  0.25257  0.38064  1.0000
  C   C386      1.0  0.64305  0.23493  0.39312  1.0000
  C   C387      1.0  0.64087  0.21635  0.41838  1.0000
  C   C388      1.0  0.62450  0.21512  0.43175  1.0000
  C   C389      1.0  0.61026  0.23256  0.41922  1.0000
  C   C390      1.0  0.61244  0.25114  0.39397  1.0000
  H   H668      1.0  0.49925  0.11758  0.99753  1.0000
  H   H669      1.0  0.37223  0.40074  0.29251  1.0000
  H   H670      1.0  0.59754  0.23166  0.42886  1.0000
  H   H671      1.0  0.60130  0.26451  0.38461  1.0000
  C   C391      1.0  0.63499  0.39680  0.15471  1.0000
  H   H672      1.0  0.63367  0.44347  0.19902  1.0000
  C   C392      1.0  0.33794  0.46442  0.30557  1.0000
  H   H673      1.0  0.37517  0.45137  0.32655  1.0000
  H   H674      1.0  0.34205  0.44361  0.31933  1.0000
  C   C393      1.0  0.36444  0.24321  0.18484  1.0000
  C   C394      1.0  0.35465  0.26091  0.16423  1.0000
  C   C395      1.0  0.35675  0.25266  0.13514  1.0000
  C   C396      1.0  0.36855  0.22649  0.12602  1.0000
  C   C397      1.0  0.37794  0.20814  0.14671  1.0000
  C   C398      1.0  0.37602  0.21667  0.17575  1.0000
  H   H675      1.0  0.34560  0.28123  0.17064  1.0000
  H   H676      1.0  0.34921  0.26685  0.11951  1.0000
  H   H677      1.0  0.38663  0.18719  0.14036  1.0000
  H   H678      1.0  0.38365  0.20258  0.19132  1.0000
  C   C399      1.0  0.37226  0.26728  0.38705  1.0000
  C   C400      1.0  0.36426  0.23453  0.38824  1.0000
  C   C401      1.0  0.36928  0.21079  0.40953  1.0000
  C   C402      1.0  0.38238  0.21917  0.43001  1.0000
  C   C403      1.0  0.39037  0.25193  0.42883  1.0000
  C   C404      1.0  0.38526  0.27577  0.40768  1.0000
  H   H679      1.0  0.35424  0.22742  0.37270  1.0000
  H   H680      1.0  0.36300  0.18558  0.41000  1.0000
  H   H681      1.0  0.40071  0.25875  0.44387  1.0000
  H   H682      1.0  0.39165  0.30086  0.40704  1.0000
  H   H683      1.0  0.59162  0.10918  0.11615  1.0000
  H   H684      1.0  0.62925  0.34362  0.41736  1.0000
  H   H685      1.0  0.37965  0.29567  0.09481  1.0000
  C   C405      1.0  0.64062  0.30797  0.44809  1.0000
  C   C406      1.0  0.60684  0.07803  0.45745  1.0000
  C   C407      1.0  0.59399  0.07164  0.43212  1.0000
  C   C408      1.0  0.49668  0.09042  0.00408  1.0000
  H   H686      1.0  0.51075  0.09604  0.05778  1.0000
  H   H687      1.0  0.36700  0.33390  0.18113  1.0000
  H   H688      1.0  0.38537  0.38491  0.19294  1.0000
  C   C409      1.0  0.57511  0.08079  0.43988  1.0000
  H   H689      1.0  0.55116  0.20202  0.15300  1.0000
  C   C410      1.0  0.39756  0.44054  0.22544  1.0000
  H   H690      1.0  0.40948  0.38950  0.23572  1.0000
  H   H691      1.0  0.37778  0.32855  0.21498  1.0000
  H   H692      1.0  0.46747  0.00092  0.10940  1.0000
  H   H693      1.0  0.57133  0.30564  0.45404  1.0000
  H   H694      1.0  0.61280  0.26237  0.48049  1.0000
  H   H695      1.0  0.56661  0.14734  0.14078  1.0000
  H   H696      1.0  0.42760  0.41507  0.19838  1.0000
  H   H697      1.0  0.36395  0.18775  0.26049  1.0000
  H   H698      1.0  0.47875  0.06906  0.03600  1.0000
  H   H699      1.0  0.59745  0.08868  0.41445  1.0000
  H   H700      1.0  0.46657  0.19369  0.00120  1.0000
  H   H701      1.0  0.52245  0.02403  0.03087  1.0000
  H   H702      1.0  0.36633  0.45630  0.27419  1.0000
  H   H703      1.0  0.61834  0.40913  0.23017  1.0000
  H   H704      1.0  0.53358  0.09443  0.09707  1.0000
  H   H705      1.0  0.37651  0.30382  0.48069  1.0000
  S   S91       1.0  0.57672  0.15412  0.99736  1.0000
  C   C411      1.0  0.62363  0.36496  0.14481  1.0000
  C   C412      1.0  0.64225  0.33228  0.42310  1.0000
  H   H706      1.0  0.38848  0.46910  0.27239  1.0000
  H   H707      1.0  0.63048  0.33977  0.14757  1.0000
  H   H708      1.0  0.38857  0.41454  0.33621  1.0000
  C   C413      1.0  0.60337  0.36236  0.22300  1.0000
  H   H709      1.0  0.38372  0.04453  0.06417  1.0000
  H   H710      1.0  0.64472  0.40190  0.13802  1.0000
  H   H711      1.0  0.62056  0.06831  0.39414  1.0000
  H   H712      1.0  0.59669  0.33612  0.47643  1.0000
  H   H713      1.0  0.38233  0.37965  0.24644  1.0000
  N   N22       1.0  0.42845  0.26565  0.12877  1.0000
  C   C414      1.0  0.43244  0.27522  0.15936  1.0000
  C   C415      1.0  0.44388  0.27539  0.11099  1.0000
  C   C416      1.0  0.41296  0.28772  0.11946  1.0000
  C   C417      1.0  0.42400  0.22748  0.12414  1.0000
  C   C418      1.0  0.43246  0.20113  0.14497  1.0000
  C   C419      1.0  0.41659  0.27318  0.17946  1.0000
  C   C420      1.0  0.40739  0.28432  0.08791  1.0000
  C   C421      1.0  0.46170  0.25790  0.11831  1.0000
  C   C422      1.0  0.47620  0.27133  0.09950  1.0000
  C   C423      1.0  0.42999  0.16355  0.13443  1.0000
  C   C424      1.0  0.42246  0.27175  0.21047  1.0000
  H   H714      1.0  0.62537  0.34821  0.46915  1.0000
  H   H715      1.0  0.43753  0.30241  0.16109  1.0000
  H   H716      1.0  0.44321  0.25895  0.16813  1.0000
  H   H717      1.0  0.44130  0.26820  0.08838  1.0000
  H   H718      1.0  0.44581  0.30420  0.11184  1.0000
  H   H719      1.0  0.41552  0.31585  0.12426  1.0000
  H   H720      1.0  0.40104  0.28074  0.13137  1.0000
  H   H721      1.0  0.40962  0.22337  0.12517  1.0000
  H   H722      1.0  0.42725  0.21888  0.10218  1.0000
  H   H723      1.0  0.42625  0.20349  0.16593  1.0000
  H   H724      1.0  0.44670  0.20539  0.14822  1.0000
  H   H725      1.0  0.40810  0.29663  0.17708  1.0000
  H   H726      1.0  0.40841  0.24999  0.17446  1.0000
  H   H727      1.0  0.40484  0.25665  0.08239  1.0000
  H   H728      1.0  0.41761  0.29448  0.07393  1.0000
  H   H729      1.0  0.46583  0.26320  0.14056  1.0000
  H   H730      1.0  0.46091  0.22938  0.11435  1.0000
  H   H731      1.0  0.48879  0.25809  0.10484  1.0000
  H   H732      1.0  0.47300  0.26554  0.07685  1.0000
  H   H733      1.0  0.47797  0.29987  0.10265  1.0000
  H   H734      1.0  0.43546  0.14536  0.15032  1.0000
  H   H735      1.0  0.41583  0.15766  0.13106  1.0000
  H   H736      1.0  0.43703  0.15912  0.11431  1.0000
  H   H737      1.0  0.43026  0.24773  0.21436  1.0000
  H   H738      1.0  0.43043  0.29500  0.21652  1.0000
  H   H739      1.0  0.41070  0.27127  0.22403  1.0000
  H   H740      1.0  0.35295  0.45024  0.22723  1.0000
  H   H741      1.0  0.61062  0.39160  0.10983  1.0000
  H   H742      1.0  0.42131  0.05021  0.07104  1.0000
  N   N23       1.0  0.60480  0.13856  0.14993  1.0000
  C   C425      1.0  0.60656  0.13652  0.18174  1.0000
  C   C426      1.0  0.62445  0.14545  0.10613  1.0000
  C   C427      1.0  0.62297  0.14461  0.13878  1.0000
  C   C428      1.0  0.59321  0.16851  0.14108  1.0000
  C   C429      1.0  0.57417  0.16840  0.15181  1.0000
  C   C430      1.0  0.61334  0.16994  0.19761  1.0000
  H   H743      1.0  0.58905  0.03416  0.13075  1.0000
  C   C431      1.0  0.58534  0.08277  0.15471  1.0000
  N   N24       1.0  0.37969  0.43501  0.23772  1.0000
  H   H744      1.0  0.53919  0.13368  0.07888  1.0000
  C   C432      1.0  0.61359  0.16519  0.22960  1.0000
  H   H745      1.0  0.53827  0.05600  0.99971  1.0000
  H   H746      1.0  0.61557  0.11466  0.18740  1.0000
  H   H747      1.0  0.59386  0.13008  0.19135  1.0000
  S   S92       1.0  0.32794  0.41209  0.26589  1.0000
  H   H748      1.0  0.64938  0.08706  0.43822  1.0000
  N   N25       1.0  0.62539  0.06488  0.45405  1.0000
  H   H749      1.0  0.62829  0.16996  0.14662  1.0000
  H   H750      1.0  0.59936  0.19367  0.14743  1.0000
  H   H751      1.0  0.62696  0.17626  0.19173  1.0000
  H   H752      1.0  0.57371  0.16490  0.17494  1.0000
  H   H753      1.0  0.45605  0.00948  0.06705  1.0000
  H   H754      1.0  0.46607  0.12668  0.99608  1.0000
  H   H755      1.0  0.60482  0.19276  0.19314  1.0000
  H   H756      1.0  0.59201  0.16943  0.11765  1.0000
  H   H757      1.0  0.59980  0.34369  0.20561  1.0000
  H   H758      1.0  0.59237  0.07224  0.17351  1.0000
  H   H759      1.0  0.32207  0.09661  0.17233  1.0000
  H   H760      1.0  0.40185  0.46794  0.22911  1.0000
  S   S93       1.0  0.62279  0.19187  0.46412  1.0000
  H   H761      1.0  0.33835  0.24589  0.46144  1.0000
  H   H762      1.0  0.36670  0.16892  0.22546  1.0000
  H   H763      1.0  0.45943  0.08151  0.99563  1.0000
  H   H764      1.0  0.50316  0.03912  0.04718  1.0000
  H   H765      1.0  0.34783  0.18030  0.46659  1.0000
  H   H766      1.0  0.60311  0.30697  0.44853  1.0000
  H   H767      1.0  0.36235  0.39636  0.19111  1.0000
  C   C433      1.0  0.63403  0.37348  0.20399  1.0000
  H   H768      1.0  0.36913  0.14207  0.25610  1.0000
  C   C434      1.0  0.50983  0.03779  0.02646  1.0000
  H   H769      1.0  0.59398  0.04405  0.42479  1.0000
  C   C435      1.0  0.38111  0.98825  0.06165  1.0000
  H   H770      1.0  0.45741  0.06634  0.44981  1.0000
  H   H771      1.0  0.60926  0.34791  0.24091  1.0000
  H   H772      1.0  0.64425  0.14869  0.07399  1.0000
  S   S94       1.0  0.53112  0.19532  0.00578  1.0000
  C   C436      1.0  0.63404  0.07476  0.40139  1.0000
  C   C437      1.0  0.61822  0.36732  0.11365  1.0000
  H   H773      1.0  0.60685  0.10670  0.46139  1.0000
  C   C438      1.0  0.39583  0.02321  0.02690  1.0000
  H   H774      1.0  0.63221  0.12426  0.14676  1.0000
  C   C439      1.0  0.33124  0.18623  0.23335  1.0000
  H   H775      1.0  0.53987  0.05826  0.05569  1.0000
  H   H776      1.0  0.64556  0.12223  0.47797  1.0000
  H   H777      1.0  0.63169  0.34649  0.19608  1.0000
  H   H778      1.0  0.63337  0.47743  0.37688  1.0000
  H   H779      1.0  0.64706  0.31729  0.40443  1.0000
  C   C440      1.0  0.59813  0.30827  0.47042  1.0000
  H   H780      1.0  0.39532  0.40258  0.28606  1.0000
  H   H781      1.0  0.60984  0.34461  0.10753  1.0000
  C   C441      1.0  0.58932  0.01210  0.05945  1.0000
  C   C442      1.0  0.54197  0.10534  0.08051  1.0000
  H   H782      1.0  0.48404  0.11436  0.04101  1.0000
  H   H783      1.0  0.43766  0.00302  0.04369  1.0000
  H   H784      1.0  0.48553  0.02350  0.00270  1.0000
  H   H785      1.0  0.56614  0.07442  0.42175  1.0000
  Fe  Fe45      1.0  0.59719  0.19677  0.99774  1.0000
  C   C443      1.0  0.63505  0.08656  0.43296  1.0000
  C   C444      1.0  0.64661  0.43057  0.19593  1.0000
  C   C445      1.0  0.42951  0.42304  0.22094  1.0000
  Fe  Fe46      1.0  0.39796  0.18995  0.99266  1.0000
  H   H786      1.0  0.63107  0.28736  0.44216  1.0000
  H   H787      1.0  0.57090  0.06052  0.11831  1.0000
  C   C446      1.0  0.33011  0.45613  0.27925  1.0000
  C   C447      1.0  0.38364  0.41855  0.29108  1.0000
  C   C448      1.0  0.41265  0.41765  0.23727  1.0000
  H   H788      1.0  0.32386  0.25042  0.21209  1.0000
  H   H789      1.0  0.57092  0.06570  0.45836  1.0000
  C   C449      1.0  0.36663  0.45737  0.22167  1.0000
  C   C450      1.0  0.48119  0.09361  0.02485  1.0000
  H   H790      1.0  0.63268  0.12705  0.38408  1.0000
  H   H791      1.0  0.62228  0.14307  0.23551  1.0000
  H   H792      1.0  0.33301  0.20871  0.24830  1.0000
  H   H793      1.0  0.38667  0.30110  0.05914  1.0000
  H   H794      1.0  0.48452  0.06928  0.47850  1.0000
  H   H795      1.0  0.63066  0.11435  0.43446  1.0000
  H   H796      1.0  0.56906  0.03648  0.15046  1.0000
  H   H797      1.0  0.65031  0.16988  0.10710  1.0000
  C   C451      1.0  0.34212  0.15537  0.24526  1.0000
  S   S95       1.0  0.65074  0.25977  0.20641  1.0000
  C   C452      1.0  0.53848  0.08659  0.05215  1.0000
  H   H798      1.0  0.64191  0.37006  0.22386  1.0000
  H   H799      1.0  0.60013  0.16047  0.23724  1.0000
  H   H800      1.0  0.61142  0.36390  0.15713  1.0000
  H   H801      1.0  0.65281  0.42903  0.21738  1.0000
  H   H802      1.0  0.46073  0.11049  0.46263  1.0000
  C   C453      1.0  0.61613  0.38971  0.21269  1.0000
  S   S96       1.0  0.42008  0.15125  0.99949  1.0000
  C   C454      1.0  0.43585  0.04804  0.07108  1.0000
  H   H803      1.0  0.32073  0.29921  0.45038  1.0000
  C   C455      1.0  0.36166  0.16416  0.24688  1.0000
  C   C456      1.0  0.36775  0.34402  0.20328  1.0000
  H   H804      1.0  0.56444  0.20744  0.12235  1.0000
  H   H805      1.0  0.59587  0.01493  0.07984  1.0000
  C   C457      1.0  0.59811  0.10449  0.13705  1.0000
  H   H806      1.0  0.60965  0.40349  0.19493  1.0000
  H   H807      1.0  0.57386  0.10911  0.44477  1.0000
  H   H808      1.0  0.57418  0.06054  0.00485  1.0000
  C   C458      1.0  0.57981  0.29215  0.46976  1.0000
  C   C459      1.0  0.57817  0.05163  0.13745  1.0000
  C   C460      1.0  0.52008  0.09642  0.03998  1.0000
  H   H809      1.0  0.44022  0.40689  0.23019  1.0000
  H   H810      1.0  0.62997  0.36673  0.10012  1.0000
  H   H811      1.0  0.54890  0.09429  0.03744  1.0000
  H   H812      1.0  0.61873  0.18927  0.24027  1.0000
  H   H813      1.0  0.64052  0.09380  0.35994  1.0000
  S   S97       1.0  0.37883  0.15881  0.01772  1.0000
  H   H814      1.0  0.64673  0.34282  0.48322  1.0000
  C   C461      1.0  0.47799  0.19293  0.01513  1.0000
  H   H815      1.0  0.65170  0.35356  0.42820  1.0000
  H   H816      1.0  0.61787  0.16911  0.09797  1.0000
  Fe  Fe47      1.0  0.33244  0.35483  0.27958  1.0000
  H   H817      1.0  0.57173  0.22497  0.15629  1.0000
  H   H818      1.0  0.52061  0.12423  0.03382  1.0000
  H   H819      1.0  0.33775  0.19443  0.21385  1.0000
  C   C462      1.0  0.39940  0.99233  0.01145  1.0000
  H   H820      1.0  0.64781  0.05547  0.48181  1.0000
  H   H821      1.0  0.50265  0.16696  0.48301  1.0000
  H   H822      1.0  0.57407  0.09847  0.16215  1.0000
  C   C463      1.0  0.46415  0.10352  0.00933  1.0000
  C   C464      1.0  0.56485  0.20281  0.14545  1.0000
  H   H823      1.0  0.64230  0.05110  0.39815  1.0000
  H   H824      1.0  0.62031  0.02186  0.42432  1.0000
  H   H825      1.0  0.61843  0.12228  0.09552  1.0000
  H   H826      1.0  0.55595  0.10186  0.08697  1.0000
  H   H827      1.0  0.59120  0.37536  0.23038  1.0000
  H   H828      1.0  0.33620  0.28786  0.42327  1.0000
  H   H829      1.0  0.62597  0.41974  0.15435  1.0000
  H   H830      1.0  0.34096  0.32358  0.44739  1.0000
  H   H831      1.0  0.35805  0.27010  0.45872  1.0000
  H   H832      1.0  0.35475  0.34025  0.21301  1.0000
  N   N26       1.0  0.64425  0.39433  0.18318  1.0000
  S   S98       1.0  0.64742  0.41832  0.27500  1.0000
  H   H833      1.0  0.63999  0.01794  0.44427  1.0000
  H   H834      1.0  0.56648  0.00125  0.98612  1.0000
  H   H835      1.0  0.43186  0.99905  0.10761  1.0000
  C   C465      1.0  0.49899  0.01320  0.00638  1.0000
  C   C466      1.0  0.61659  0.00151  0.46568  1.0000
  C   C467      1.0  0.64363  0.14677  0.09736  1.0000
  H   H836      1.0  0.36759  0.45242  0.19850  1.0000
  H   H837      1.0  0.45386  0.11004  0.02491  1.0000
  H   H838      1.0  0.34057  0.13164  0.23168  1.0000
  S   S99       1.0  0.32103  0.31251  0.25020  1.0000
  S   S100      1.0  0.32283  0.32948  0.31906  1.0000
  H   H839      1.0  0.65202  0.20302  0.42771  1.0000
  H   H840      1.0  0.44468  0.08290  0.47884  1.0000
  H   H841      1.0  0.60095  0.06698  0.47666  1.0000
  H   H842      1.0  0.64721  0.46903  0.34696  1.0000
  H   H843      1.0  0.33813  0.14946  0.26706  1.0000
  C   C468      1.0  0.63481  0.06888  0.48238  1.0000
  H   H844      1.0  0.62947  0.48299  0.26321  1.0000
  H   H845      1.0  0.60256  0.00873  0.46759  1.0000
  C   C469      1.0  0.52650  0.07094  0.99248  1.0000
  Fe  Fe48      1.0  0.65002  0.29394  0.31435  1.0000
  C   C470      1.0  0.32474  0.48385  0.26193  1.0000
  H   H846      1.0  0.65068  0.12272  0.10378  1.0000
  H   H847      1.0  0.65294  0.22906  0.15063  1.0000
  H   H848      1.0  0.32123  0.12102  0.14022  1.0000
  H   H849      1.0  0.65306  0.45755  0.15664  1.0000
  H   H850      1.0  0.50539  0.00991  0.98565  1.0000
  H   H851      1.0  0.44840  0.99383  0.48448  1.0000
  S   S101      1.0  0.33464  0.25518  0.77932  1.0000
  C   C471      1.0  0.49751  0.21213  0.55621  1.0000
  S   S102      1.0  0.35117  0.33408  0.78108  1.0000
  C   C472      1.0  0.39970  0.31006  0.50596  1.0000
  Fe  Fe49      1.0  0.34496  0.29241  0.74726  1.0000
  S   S103      1.0  0.36658  0.27596  0.71572  1.0000
  Fe  Fe50      1.0  0.33888  0.29785  0.81215  1.0000
  S   S104      1.0  0.34500  0.29323  0.86003  1.0000
  S   S105      1.0  0.63261  0.33359  0.78181  1.0000
  C   C473      1.0  0.56978  0.20405  0.76866  1.0000
  C   C474      1.0  0.64163  0.27731  0.50404  1.0000
  S   S106      1.0  0.63283  0.31091  0.86020  1.0000
  H   H852      1.0  0.37605  0.15485  0.73028  1.0000
  H   H853      1.0  0.61921  0.17125  0.79701  1.0000
  Fe  Fe51      1.0  0.59473  0.12573  0.54169  1.0000
  S   S107      1.0  0.57618  0.15921  0.56742  1.0000
  S   S108      1.0  0.60433  0.07062  0.55147  1.0000
  H   H854      1.0  0.54935  0.17257  0.74837  1.0000
  S   S109      1.0  0.58417  0.22141  0.52173  1.0000
  H   H855      1.0  0.42402  0.11958  0.66561  1.0000
  Fe  Fe52      1.0  0.59614  0.20256  0.56314  1.0000
  S   S110      1.0  0.60673  0.24542  0.59420  1.0000
  Fe  Fe53      1.0  0.56549  0.17601  0.52487  1.0000
  S   S111      1.0  0.53716  0.17219  0.50765  1.0000
  S   S112      1.0  0.61522  0.16775  0.54060  1.0000
  N   N27       1.0  0.38691  0.11195  0.64965  1.0000
  C   C475      1.0  0.57639  0.99515  0.50793  1.0000
  H   H856      1.0  0.52585  0.20786  0.56010  1.0000
  S   S113      1.0  0.39390  0.20545  0.94577  1.0000
  Fe  Fe54      1.0  0.43498  0.19164  0.53976  1.0000
  S   S114      1.0  0.42315  0.15812  0.57293  1.0000
  S   S115      1.0  0.46133  0.21621  0.55266  1.0000
  H   H857      1.0  0.60560  0.39834  0.79245  1.0000
  H   H858      1.0  0.62732  0.05615  0.49929  1.0000
  Fe  Fe55      1.0  0.39763  0.18557  0.56319  1.0000
  S   S116      1.0  0.37513  0.20128  0.59320  1.0000
  C   C476      1.0  0.47188  0.07033  0.48975  1.0000
  S   S117      1.0  0.40973  0.22195  0.53230  1.0000
  C   C477      1.0  0.41616  0.02300  0.54271  1.0000
  C   C478      1.0  0.39798  0.01994  0.54549  1.0000
  H   H859      1.0  0.59566  0.18409  0.77309  1.0000
  H   H860      1.0  0.59970  0.45415  0.88124  1.0000
  H   H861      1.0  0.47297  0.18392  0.49961  1.0000
  C   C479      1.0  0.59615  0.03004  0.53801  1.0000
  H   H862      1.0  0.34359  0.14039  0.82501  1.0000
  C   C480      1.0  0.58207  0.02794  0.51861  1.0000
  C   C481      1.0  0.34502  0.26403  0.54629  1.0000
  H   H863      1.0  0.34076  0.19280  0.52997  1.0000
  C   C482      1.0  0.51637  0.18593  0.52050  1.0000
  C   C483      1.0  0.38320  0.28929  0.49782  1.0000
  C   C484      1.0  0.48441  0.18887  0.51297  1.0000
  C   C485      1.0  0.48239  0.20494  0.53950  1.0000
  H   H864      1.0  0.35442  0.14109  0.71788  1.0000
  H   H865      1.0  0.37882  0.27406  0.54096  1.0000
  C   C486      1.0  0.39325  0.01055  0.64757  1.0000
  S   S118      1.0  0.63713  0.25411  0.72249  1.0000
  H   H866      1.0  0.55744  0.15575  0.78147  1.0000
  C   C487      1.0  0.61471  0.38003  0.55189  1.0000
  H   H867      1.0  0.53856  0.09113  0.50915  1.0000
  H   H868      1.0  0.41086  0.14888  0.68667  1.0000
  C   C488      1.0  0.38725  0.35189  0.84583  1.0000
  C   C489      1.0  0.61545  0.24697  0.62980  1.0000
  C   C490      1.0  0.61739  0.21722  0.64629  1.0000
  C   C491      1.0  0.62415  0.22000  0.67436  1.0000
  C   C492      1.0  0.62913  0.25245  0.68652  1.0000
  C   C493      1.0  0.62737  0.28216  0.66997  1.0000
  C   C494      1.0  0.62060  0.27938  0.64190  1.0000
  H   H869      1.0  0.61356  0.19208  0.63748  1.0000
  C   C495      1.0  0.37937  0.11829  0.67857  1.0000
  H   H870      1.0  0.63103  0.30736  0.67885  1.0000
  H   H871      1.0  0.61916  0.30265  0.62953  1.0000
  C   C496      1.0  0.62803  0.28032  0.88728  1.0000
  C   C497      1.0  0.63571  0.24713  0.88837  1.0000
  C   C498      1.0  0.63128  0.22389  0.90999  1.0000
  C   C499      1.0  0.61913  0.23328  0.93100  1.0000
  C   C500      1.0  0.61138  0.26644  0.92982  1.0000
  C   C501      1.0  0.61581  0.28967  0.90818  1.0000
  H   H872      1.0  0.34389  0.15343  0.88461  1.0000
  C   C502      1.0  0.33536  0.19356  0.83789  1.0000
  H   H873      1.0  0.60203  0.27424  0.94567  1.0000
  H   H874      1.0  0.60970  0.31515  0.90769  1.0000
  C   C503      1.0  0.50128  0.17937  0.50359  1.0000
  H   H875      1.0  0.34228  0.21870  0.84222  1.0000
  H   H876      1.0  0.36805  0.31307  0.53014  1.0000
  C   C504      1.0  0.35908  0.45216  0.84219  1.0000
  H   H877      1.0  0.63976  0.33708  0.53218  1.0000
  C   C505      1.0  0.36839  0.25612  0.68113  1.0000
  C   C506      1.0  0.35398  0.24221  0.66593  1.0000
  C   C507      1.0  0.35629  0.22603  0.63904  1.0000
  C   C508      1.0  0.37298  0.22352  0.62675  1.0000
  C   C509      1.0  0.38734  0.23782  0.64176  1.0000
  C   C510      1.0  0.38506  0.25372  0.66873  1.0000
  H   H878      1.0  0.34107  0.24371  0.67500  1.0000
  H   H879      1.0  0.34503  0.21515  0.62778  1.0000
  H   H880      1.0  0.40022  0.23666  0.63259  1.0000
  H   H881      1.0  0.39633  0.26445  0.68008  1.0000
  C   C511      1.0  0.35895  0.26879  0.88333  1.0000
  C   C512      1.0  0.35601  0.27080  0.91265  1.0000
  C   C513      1.0  0.36648  0.25178  0.93204  1.0000
  C   C514      1.0  0.38018  0.23044  0.92243  1.0000
  C   C515      1.0  0.38312  0.22849  0.89308  1.0000
  C   C516      1.0  0.37262  0.24743  0.87367  1.0000
  H   H882      1.0  0.34551  0.28717  0.92050  1.0000
  H   H883      1.0  0.36399  0.25368  0.95445  1.0000
  H   H884      1.0  0.39369  0.21220  0.88530  1.0000
  H   H885      1.0  0.37520  0.24563  0.85129  1.0000
  C   C517      1.0  0.37218  0.11417  0.62793  1.0000
  H   H886      1.0  0.36827  0.10017  0.68195  1.0000
  Fe  Fe56      1.0  0.64776  0.29599  0.75424  1.0000
  C   C518      1.0  0.32167  0.38967  0.86231  1.0000
  C   C519      1.0  0.42757  0.17386  0.65768  1.0000
  H   H887      1.0  0.40674  0.13242  0.62265  1.0000
  C   C520      1.0  0.40050  0.13894  0.64309  1.0000
  H   H888      1.0  0.38704  0.12021  0.58889  1.0000
  C   C521      1.0  0.37218  0.15567  0.68447  1.0000
  H   H889      1.0  0.36113  0.16170  0.66974  1.0000
  H   H890      1.0  0.43264  0.17048  0.63596  1.0000
  H   H891      1.0  0.42022  0.19887  0.65917  1.0000
  H   H892      1.0  0.43891  0.17532  0.67274  1.0000
  H   H893      1.0  0.37298  0.45662  0.84847  1.0000
  H   H894      1.0  0.36718  0.14140  0.62678  1.0000
  C   C522      1.0  0.60604  0.44923  0.92516  1.0000
  C   C523      1.0  0.61376  0.35869  0.52424  1.0000
  C   C524      1.0  0.62656  0.32729  0.52527  1.0000
  Fe  Fe57      1.0  0.60258  0.18424  0.49945  1.0000
  S   S119      1.0  0.39042  0.14557  0.52908  1.0000
  Fe  Fe58      1.0  0.41683  0.12069  0.53687  1.0000
  C   C525      1.0  0.34240  0.28342  0.49692  1.0000
  H   H895      1.0  0.63702  0.18105  0.84101  1.0000
  H   H896      1.0  0.35165  0.40495  0.90189  1.0000
  N   N28       1.0  0.35423  0.26552  0.51831  1.0000
  C   C526      1.0  0.34299  0.20282  0.50844  1.0000
  H   H897      1.0  0.38045  0.46613  0.94249  1.0000
  C   C527      1.0  0.58317  0.25260  0.81623  1.0000
  H   H898      1.0  0.62860  0.41866  0.89022  1.0000
  H   H899      1.0  0.32832  0.27936  0.50181  1.0000
  C   C528      1.0  0.60197  0.25362  0.77288  1.0000
  C   C529      1.0  0.58924  0.28178  0.76094  1.0000
  C   C530      1.0  0.59144  0.28341  0.83342  1.0000
  H   H900      1.0  0.34423  0.31220  0.49850  1.0000
  C   C531      1.0  0.59527  0.29496  0.73248  1.0000
  C   C532      1.0  0.57756  0.30870  0.84461  1.0000
  C   C533      1.0  0.62489  0.19747  0.80123  1.0000
  H   H901      1.0  0.49613  0.22495  0.57663  1.0000
  H   H902      1.0  0.57173  0.26275  0.80414  1.0000
  H   H903      1.0  0.35282  0.18338  0.94100  1.0000
  H   H904      1.0  0.38228  0.38619  0.88085  1.0000
  H   H905      1.0  0.61432  0.26764  0.77872  1.0000
  H   H906      1.0  0.60578  0.23586  0.75507  1.0000
  H   H907      1.0  0.58868  0.30456  0.77575  1.0000
  H   H908      1.0  0.57571  0.27198  0.75781  1.0000
  H   H909      1.0  0.59868  0.27301  0.85201  1.0000
  H   H910      1.0  0.60083  0.29811  0.82063  1.0000
  H   H911      1.0  0.38919  0.11202  0.69546  1.0000
  S   S120      1.0  0.42687  0.06420  0.54115  1.0000
  H   H912      1.0  0.60858  0.30650  0.73450  1.0000
  H   H913      1.0  0.59550  0.27333  0.71649  1.0000
  H   H914      1.0  0.58609  0.31538  0.72478  1.0000
  H   H915      1.0  0.57036  0.32118  0.82685  1.0000
  H   H916      1.0  0.56813  0.29484  0.85801  1.0000
  H   H917      1.0  0.58407  0.32941  0.85775  1.0000
  H   H918      1.0  0.60518  0.40201  0.55090  1.0000
  H   H919      1.0  0.61518  0.00026  0.56178  1.0000
  H   H920      1.0  0.37739  0.04486  0.67299  1.0000
  N   N29       1.0  0.59563  0.23260  0.79739  1.0000
  H   H921      1.0  0.60690  0.20926  0.83510  1.0000
  H   H922      1.0  0.40150  0.35006  0.85100  1.0000
  H   H923      1.0  0.33071  0.21575  0.50119  1.0000
  C   C534      1.0  0.35872  0.22852  0.50965  1.0000
  H   H924      1.0  0.62277  0.00178  0.48711  1.0000
  C   C535      1.0  0.64095  0.19206  0.82054  1.0000
  H   H925      1.0  0.55985  0.22029  0.77961  1.0000
  H   H926      1.0  0.38247  0.17568  0.68217  1.0000
  H   H927      1.0  0.37113  0.42302  0.94175  1.0000
  H   H928      1.0  0.62937  0.20832  0.78102  1.0000
  C   C536      1.0  0.34109  0.29958  0.56112  1.0000
  C   C537      1.0  0.41574  0.14345  0.66511  1.0000
  H   H929      1.0  0.32254  0.12912  0.85501  1.0000
  C   C538      1.0  0.33954  0.46415  0.76585  1.0000
  C   C539      1.0  0.63844  0.25411  0.52994  1.0000
  H   H930      1.0  0.36426  0.09628  0.55593  1.0000
  H   H931      1.0  0.40700  0.29774  0.52369  1.0000
  H   H932      1.0  0.33222  0.25037  0.54366  1.0000
  H   H933      1.0  0.33100  0.41753  0.82635  1.0000
  H   H934      1.0  0.38990  0.04318  0.54617  1.0000
  H   H935      1.0  0.65025  0.17362  0.81028  1.0000
  S   S121      1.0  0.61430  0.20254  0.95798  1.0000
  S   S122      1.0  0.58323  0.14012  0.49978  1.0000
  C   C540      1.0  0.36072  0.10517  0.57758  1.0000
  H   H936      1.0  0.54910  0.08310  0.54275  1.0000
  H   H937      1.0  0.50551  0.05399  0.51492  1.0000
  H   H938      1.0  0.38171  0.07572  0.59600  1.0000
  H   H939      1.0  0.38547  0.35034  0.82247  1.0000
  S   S123      1.0  0.42979  0.15332  0.50403  1.0000
  N   N30       1.0  0.48634  0.08367  0.53899  1.0000
  C   C541      1.0  0.48686  0.11214  0.56148  1.0000
  C   C542      1.0  0.50413  0.08011  0.52534  1.0000
  C   C543      1.0  0.47320  0.09450  0.51645  1.0000
  C   C544      1.0  0.48029  0.04933  0.55035  1.0000
  C   C545      1.0  0.48953  0.03640  0.57759  1.0000
  C   C546      1.0  0.46914  0.12109  0.57553  1.0000
  H   H940      1.0  0.57052  0.15153  0.74998  1.0000
  C   C547      1.0  0.52068  0.08677  0.54440  1.0000
  H   H941      1.0  0.64053  0.26916  0.55001  1.0000
  H   H942      1.0  0.52094  0.05568  0.97422  1.0000
  C   C548      1.0  0.47190  0.14424  0.60191  1.0000
  C   C549      1.0  0.56131  0.16874  0.76178  1.0000
  H   H943      1.0  0.49182  0.13658  0.55237  1.0000
  H   H944      1.0  0.49649  0.10615  0.57857  1.0000
  H   H945      1.0  0.57370  0.29488  0.49082  1.0000
  H   H946      1.0  0.40326  0.07294  0.62916  1.0000
  H   H947      1.0  0.47622  0.12112  0.50920  1.0000
  H   H948      1.0  0.45974  0.09618  0.52508  1.0000
  H   H949      1.0  0.46590  0.05016  0.55420  1.0000
  H   H950      1.0  0.48196  0.02812  0.53425  1.0000
  H   H951      1.0  0.48920  0.05616  0.59498  1.0000
  H   H952      1.0  0.38737  0.40762  0.84821  1.0000
  H   H953      1.0  0.46059  0.13565  0.56056  1.0000
  H   H954      1.0  0.46211  0.09736  0.58191  1.0000
  H   H955      1.0  0.34633  0.13857  0.93502  1.0000
  C   C550      1.0  0.65210  0.47318  0.77414  1.0000
  H   H956      1.0  0.52166  0.11501  0.55000  1.0000
  H   H957      1.0  0.52037  0.07223  0.56428  1.0000
  H   H958      1.0  0.60348  0.28286  0.51030  1.0000
  H   H959      1.0  0.36872  0.21750  0.52454  1.0000
  H   H960      1.0  0.35773  0.38331  0.82821  1.0000
  H   H961      1.0  0.60474  0.42037  0.92484  1.0000
  C   C551      1.0  0.34952  0.16632  0.82945  1.0000
  H   H962      1.0  0.39873  0.00874  0.62597  1.0000
  H   H963      1.0  0.45898  0.15194  0.61051  1.0000
  H   H964      1.0  0.47944  0.13008  0.61842  1.0000
  H   H965      1.0  0.47904  0.16836  0.59666  1.0000
  C   C552      1.0  0.65059  0.43485  0.85093  1.0000
  C   C553      1.0  0.39561  0.07655  0.64886  1.0000
  H   H966      1.0  0.55785  0.08511  0.96498  1.0000
  H   H967      1.0  0.38071  0.44122  0.89415  1.0000
  N   N31       1.0  0.35112  0.42333  0.85896  1.0000
  C   C554      1.0  0.48047  0.00388  0.58829  1.0000
  H   H968      1.0  0.57563  0.05157  0.51178  1.0000
  H   H969      1.0  0.61633  0.45707  0.94097  1.0000
  C   C555      1.0  0.62009  0.44065  0.83505  1.0000
  C   C556      1.0  0.61131  0.22208  0.81551  1.0000
  C   C557      1.0  0.65131  0.22343  0.53065  1.0000
  C   C558      1.0  0.62844  0.44720  0.88630  1.0000
  H   H970      1.0  0.49647  0.19573  0.98123  1.0000
  C   C559      1.0  0.61622  0.40101  0.83558  1.0000
  C   C560      1.0  0.32809  0.17686  0.91730  1.0000
  H   H971      1.0  0.38061  0.32931  0.85529  1.0000
  C   C561      1.0  0.36812  0.45115  0.90233  1.0000
  Fe  Fe59      1.0  0.40365  0.18114  0.49848  1.0000
  C   C562      1.0  0.60172  0.39124  0.81412  1.0000
  Fe  Fe60      1.0  0.64857  0.31403  0.81897  1.0000
  H   H972      1.0  0.62541  0.19676  0.68680  1.0000
  H   H973      1.0  0.32311  0.20296  0.92394  1.0000
  H   H974      1.0  0.52203  0.12122  0.97127  1.0000
  C   C563      1.0  0.35209  0.43012  0.89055  1.0000
  H   H975      1.0  0.53999  0.08408  0.93912  1.0000
  H   H976      1.0  0.64930  0.20832  0.55009  1.0000
  H   H977      1.0  0.61132  0.36359  0.57007  1.0000
  H   H978      1.0  0.32599  0.36446  0.85282  1.0000
  C   C564      1.0  0.51439  0.20245  0.54690  1.0000
  H   H979      1.0  0.62175  0.31122  0.54283  1.0000
  H   H980      1.0  0.62803  0.38559  0.82991  1.0000
  H   H981      1.0  0.61186  0.39305  0.85671  1.0000
  H   H982      1.0  0.46671  0.00996  0.59412  1.0000
  H   H983      1.0  0.40552  0.07456  0.66635  1.0000
  H   H984      1.0  0.50533  0.09931  0.50805  1.0000
  C   C565      1.0  0.53749  0.07654  0.52909  1.0000
  H   H985      1.0  0.53776  0.04809  0.52423  1.0000
  H   H986      1.0  0.35341  0.31160  0.56952  1.0000
  H   H987      1.0  0.65084  0.13478  0.52813  1.0000
  C   C566      1.0  0.37988  0.38625  0.85765  1.0000
  H   H988      1.0  0.55053  0.12473  0.94868  1.0000
  H   H989      1.0  0.39424  0.16478  0.63979  1.0000
  H   H990      1.0  0.59949  0.36269  0.81435  1.0000
  H   H991      1.0  0.58925  0.40471  0.81944  1.0000
  H   H992      1.0  0.56561  0.99384  0.49273  1.0000
  H   H993      1.0  0.32473  0.44451  0.85537  1.0000
  C   C567      1.0  0.38322  0.04485  0.65167  1.0000
  H   H994      1.0  0.62488  0.24367  0.52942  1.0000
  C   C568      1.0  0.63803  0.10685  0.49316  1.0000
  H   H995      1.0  0.34961  0.17849  0.78456  1.0000
  H   H996      1.0  0.57297  0.21588  0.74818  1.0000
  H   H997      1.0  0.36066  0.09872  0.63440  1.0000
  H   H998      1.0  0.57740  0.23483  0.83191  1.0000
  C   C569      1.0  0.54613  0.09932  0.95687  1.0000
  C   C570      1.0  0.61075  0.28841  0.49074  1.0000
  H   H999      1.0  0.36033  0.18656  0.71798  1.0000
  H   H1000     1.0  0.35589  0.13250  0.57652  1.0000
  H   H1001     1.0  0.50331  0.02909  0.57321  1.0000
  N   N32       1.0  0.32427  0.18483  0.86286  1.0000
  H   H1002     1.0  0.35698  0.46105  0.94390  1.0000
  H   H1003     1.0  0.64784  0.21710  0.82473  1.0000
  C   C571      1.0  0.34146  0.16534  0.93981  1.0000
  H   H1004     1.0  0.35967  0.16391  0.84647  1.0000
  H   H1005     1.0  0.37240  0.04499  0.63567  1.0000
  C   C572      1.0  0.33206  0.42027  0.84978  1.0000
  H   H1006     1.0  0.58365  0.18281  0.80504  1.0000
  H   H1007     1.0  0.34866  0.44325  0.76110  1.0000
  N   N33       1.0  0.63358  0.45417  0.85631  1.0000
  C   C573      1.0  0.42642  0.99233  0.54176  1.0000
  H   H1008     1.0  0.35004  0.08820  0.58499  1.0000
  H   H1009     1.0  0.35405  0.36733  0.86262  1.0000
  C   C574      1.0  0.35996  0.38924  0.85116  1.0000
  C   C575      1.0  0.37683  0.10295  0.59725  1.0000
  C   C576      1.0  0.36534  0.15955  0.71453  1.0000
  H   H1010     1.0  0.61678  0.37651  0.50688  1.0000
  H   H1011     1.0  0.61881  0.24556  0.82288  1.0000
  C   C577      1.0  0.58673  0.19960  0.78682  1.0000
  C   C578      1.0  0.64847  0.10738  0.52109  1.0000
  H   H1012     1.0  0.63834  0.45829  0.90147  1.0000
  H   H1013     1.0  0.60732  0.45420  0.83735  1.0000
  C   C579      1.0  0.53300  0.10582  0.98043  1.0000
  H   H1014     1.0  0.64529  0.23952  0.87288  1.0000
  H   H1015     1.0  0.36936  0.15786  0.79765  1.0000
  H   H1016     1.0  0.60006  0.34927  0.52173  1.0000
  H   H1017     1.0  0.64103  0.09417  0.53774  1.0000
  H   H1018     1.0  0.33459  0.31785  0.54629  1.0000
  C   C580      1.0  0.33658  0.17838  0.88773  1.0000
  H   H1019     1.0  0.34028  0.44483  0.89775  1.0000
  H   H1020     1.0  0.59334  0.46080  0.93180  1.0000
  C   C581      1.0  0.32220  0.45612  0.77251  1.0000
  H   H1021     1.0  0.63746  0.19848  0.91063  1.0000
  H   H1022     1.0  0.64946  0.40697  0.85674  1.0000
  H   H1023     1.0  0.35289  0.24830  0.56157  1.0000
  H   H1024     1.0  0.36697  0.47891  0.89638  1.0000
  C   C582      1.0  0.37100  0.28581  0.52334  1.0000
  H   H1025     1.0  0.40411  0.00843  0.66347  1.0000
  H   H1026     1.0  0.39620  0.33722  0.51228  1.0000
  H   H1027     1.0  0.35950  0.44436  0.81935  1.0000
  H   H1028     1.0  0.36525  0.20311  0.80621  1.0000
  H   H1029     1.0  0.62807  0.39095  0.55544  1.0000
  H   H1030     1.0  0.34677  0.19907  0.88932  1.0000
  Fe  Fe61      1.0  0.32390  0.35465  0.77209  1.0000
  C   C583      1.0  0.61057  0.46211  0.89582  1.0000
  N   N34       1.0  0.62811  0.30548  0.49847  1.0000
  C   C584      1.0  0.32916  0.29500  0.58639  1.0000
  C   C585      1.0  0.60431  0.99897  0.54675  1.0000
  H   H1031     1.0  0.44048  0.99435  0.53978  1.0000
  H   H1032     1.0  0.62429  0.44678  0.81331  1.0000
  S   S124      1.0  0.64538  0.42902  0.76670  1.0000
  C   C586      1.0  0.35897  0.17721  0.80283  1.0000
  H   H1033     1.0  0.32354  0.38859  0.88558  1.0000
  H   H1034     1.0  0.62535  0.12025  0.49671  1.0000
  C   C587      1.0  0.36917  0.45020  0.93460  1.0000
  H   H1035     1.0  0.46819  0.04349  0.49539  1.0000
  H   H1036     1.0  0.64910  0.20580  0.51201  1.0000
  H   H1037     1.0  0.48760  0.99425  0.60731  1.0000
  H   H1038     1.0  0.38747  0.26337  0.48976  1.0000
  H   H1039     1.0  0.33526  0.16541  0.96086  1.0000
  H   H1040     1.0  0.32690  0.32067  0.59702  1.0000
  H   H1041     1.0  0.33542  0.27732  0.60199  1.0000
  H   H1042     1.0  0.35839  0.15745  0.49528  1.0000
  H   H1043     1.0  0.32714  0.19819  0.81877  1.0000
  H   H1044     1.0  0.38421  0.98824  0.65010  1.0000
  H   H1045     1.0  0.33508  0.15332  0.48914  1.0000
  H   H1046     1.0  0.36516  0.22759  0.48892  1.0000
  C   C588      1.0  0.34632  0.17160  0.48867  1.0000
  H   H1047     1.0  0.40849  0.31095  0.48753  1.0000
  C   C589      1.0  0.34929  0.48776  0.84375  1.0000
  H   H1048     1.0  0.32005  0.23504  0.88348  1.0000
  H   H1049     1.0  0.49216  0.07655  0.98436  1.0000
  H   H1050     1.0  0.33773  0.48713  0.82904  1.0000
  H   H1051     1.0  0.64247  0.25913  0.48541  1.0000
  Fe  Fe62      1.0  0.33422  0.69857  0.32765  1.0000
  S   S125      1.0  0.33843  0.72227  0.37283  1.0000
  Fe  Fe63      1.0  0.34159  0.69635  0.26308  1.0000
  S   S126      1.0  0.35809  0.72781  0.23174  1.0000
  Fe  Fe64      1.0  0.33293  0.62776  0.29456  1.0000
  S   S127      1.0  0.34090  0.57147  0.30723  1.0000
  C   C590      1.0  0.39381  0.95964  0.02092  1.0000
  S   S128      1.0  0.35376  0.66943  0.30100  1.0000
  S   S129      1.0  0.63587  0.65788  0.26814  1.0000
  H   H1052     1.0  0.62518  0.77513  0.20231  1.0000
  H   H1053     1.0  0.54116  0.73196  0.16059  1.0000
  H   H1054     1.0  0.36508  0.66096  0.36610  1.0000
  H   H1055     1.0  0.39031  0.50967  0.34891  1.0000
  S   S130      1.0  0.62055  0.71067  0.33560  1.0000
  Fe  Fe65      1.0  0.55529  0.80922  0.03159  1.0000
  H   H1056     1.0  0.63260  0.59110  0.41958  1.0000
  S   S131      1.0  0.52912  0.78003  0.03420  1.0000
  Fe  Fe66      1.0  0.58954  0.82133  0.06591  1.0000
  S   S132      1.0  0.60214  0.84898  0.02970  1.0000
  S   S133      1.0  0.60182  0.81728  0.11089  1.0000
  Fe  Fe67      1.0  0.57614  0.87650  0.02337  1.0000
  S   S134      1.0  0.57151  0.93225  0.00747  1.0000
  H   H1057     1.0  0.45515  0.90035  0.01281  1.0000
  C   C591      1.0  0.55164  0.72544  0.14524  1.0000
  S   S135      1.0  0.56416  0.85222  0.06144  1.0000
  S   S136      1.0  0.57999  0.77713  0.03787  1.0000
  Fe  Fe68      1.0  0.38790  0.86224  0.04725  1.0000
  H   H1058     1.0  0.57379  0.82578  0.15478  1.0000
  S   S137      1.0  0.37779  0.91672  0.05933  1.0000
  Fe  Fe69      1.0  0.38796  0.78749  0.06985  1.0000
  S   S138      1.0  0.40773  0.76928  0.03714  1.0000
  S   S139      1.0  0.37438  0.74913  0.09974  1.0000
  Fe  Fe70      1.0  0.42212  0.81977  0.04647  1.0000
  S   S140      1.0  0.45088  0.83785  0.05067  1.0000
  H   H1059     1.0  0.39655  0.91528  0.15342  1.0000
  S   S141      1.0  0.40050  0.77061  0.45968  1.0000
  S   S142      1.0  0.40366  0.83554  0.08127  1.0000
  S   S143      1.0  0.37092  0.81509  0.03740  1.0000
  C   C592      1.0  0.50749  0.79658  0.03922  1.0000
  C   C593      1.0  0.50413  0.83206  0.04410  1.0000
  C   C594      1.0  0.48676  0.84395  0.04792  1.0000
  C   C595      1.0  0.47249  0.82069  0.04670  1.0000
  C   C596      1.0  0.47587  0.78515  0.04221  1.0000
  C   C597      1.0  0.49326  0.77323  0.03847  1.0000
  H   H1060     1.0  0.51492  0.85032  0.04485  1.0000
  H   H1061     1.0  0.48435  0.87146  0.05154  1.0000
  H   H1062     1.0  0.46512  0.76683  0.04173  1.0000
  H   H1063     1.0  0.57275  0.66407  0.06775  1.0000
  C   C598      1.0  0.62034  0.72571  0.37170  1.0000
  C   C599      1.0  0.63478  0.72189  0.39012  1.0000
  C   C600      1.0  0.63415  0.73515  0.41824  1.0000
  C   C601      1.0  0.61901  0.75197  0.42862  1.0000
  C   C602      1.0  0.60439  0.75489  0.41039  1.0000
  C   C603      1.0  0.60506  0.74175  0.38223  1.0000
  H   H1064     1.0  0.35847  0.51246  0.18469  1.0000
  S   S144      1.0  0.40686  0.84882  0.01317  1.0000
  H   H1065     1.0  0.59259  0.76751  0.41794  1.0000
  H   H1066     1.0  0.59367  0.74446  0.36841  1.0000
  C   C604      1.0  0.62594  0.73401  0.17079  1.0000
  C   C605      1.0  0.62200  0.72550  0.14220  1.0000
  C   C606      1.0  0.61483  0.75047  0.12355  1.0000
  C   C607      1.0  0.61110  0.78439  0.13327  1.0000
  C   C608      1.0  0.61489  0.79284  0.16191  1.0000
  C   C609      1.0  0.62229  0.76799  0.18049  1.0000
  S   S145      1.0  0.56566  0.83489  0.99290  1.0000
  H   H1067     1.0  0.61251  0.74357  0.10154  1.0000
  H   H1068     1.0  0.61221  0.81895  0.16977  1.0000
  C   C610      1.0  0.35596  0.73575  0.39649  1.0000
  C   C611      1.0  0.37356  0.73601  0.38854  1.0000
  C   C612      1.0  0.38688  0.74679  0.40808  1.0000
  C   C613      1.0  0.38290  0.75783  0.43588  1.0000
  C   C614      1.0  0.36530  0.75744  0.44388  1.0000
  C   C615      1.0  0.35199  0.74647  0.42436  1.0000
  H   H1069     1.0  0.37689  0.72844  0.36721  1.0000
  H   H1070     1.0  0.40040  0.74692  0.40151  1.0000
  H   H1071     1.0  0.36192  0.76562  0.46510  1.0000
  H   H1072     1.0  0.33846  0.74649  0.43088  1.0000
  C   C616      1.0  0.36255  0.73283  0.19486  1.0000
  C   C617      1.0  0.35585  0.71024  0.17369  1.0000
  C   C618      1.0  0.35964  0.71570  0.14491  1.0000
  C   C619      1.0  0.37008  0.74390  0.13663  1.0000
  C   C620      1.0  0.37666  0.76665  0.15780  1.0000
  C   C621      1.0  0.37299  0.76102  0.18660  1.0000
  H   H1073     1.0  0.34785  0.68839  0.17946  1.0000
  H   H1074     1.0  0.35445  0.69785  0.12887  1.0000
  H   H1075     1.0  0.38472  0.78840  0.15200  1.0000
  H   H1076     1.0  0.37833  0.77870  0.20263  1.0000
  H   H1077     1.0  0.32332  0.53990  0.25656  1.0000
  H   H1078     1.0  0.61903  0.83871  0.31998  1.0000
  C   C622      1.0  0.35537  0.51709  0.20730  1.0000
  C   C623      1.0  0.49786  0.72314  0.11155  1.0000
  H   H1079     1.0  0.54807  0.69497  0.09268  1.0000
  S   S146      1.0  0.32223  0.65270  0.25474  1.0000
  C   C624      1.0  0.57678  0.97416  0.02237  1.0000
  H   H1080     1.0  0.37986  0.65697  0.47353  1.0000
  H   H1081     1.0  0.58819  0.95572  0.06125  1.0000
  C   C625      1.0  0.58500  0.97841  0.04893  1.0000
  H   H1082     1.0  0.44014  0.73282  0.01893  1.0000
  H   H1083     1.0  0.60598  0.59867  0.38508  1.0000
  H   H1084     1.0  0.61738  0.87623  0.41268  1.0000
  H   H1085     1.0  0.60571  0.62313  0.43448  1.0000
  C   C626      1.0  0.33578  0.52742  0.29625  1.0000
  H   H1086     1.0  0.51945  0.70300  0.08810  1.0000
  H   H1087     1.0  0.61216  0.79934  0.33613  1.0000
  H   H1088     1.0  0.56881  0.76061  0.17071  1.0000
  H   H1089     1.0  0.57097  0.77711  0.11990  1.0000
  H   H1090     1.0  0.39160  0.60880  0.44274  1.0000
  H   H1091     1.0  0.57462  0.70262  0.04674  1.0000
  C   C627      1.0  0.54896  0.80662  0.13698  1.0000
  H   H1092     1.0  0.64116  0.63116  0.40554  1.0000
  H   H1093     1.0  0.36172  0.62725  0.43434  1.0000
  H   H1094     1.0  0.59957  0.62992  0.33477  1.0000
  H   H1095     1.0  0.52100  0.69561  0.12569  1.0000
  C   C628      1.0  0.57441  0.71266  0.09247  1.0000
  H   H1096     1.0  0.49380  0.74260  0.09558  1.0000
  H   H1097     1.0  0.58563  0.71592  0.19583  1.0000
  H   H1098     1.0  0.39652  0.93620  0.00864  1.0000
  H   H1099     1.0  0.61421  0.66282  0.41996  1.0000
  C   C629      1.0  0.57312  0.70856  0.18480  1.0000
  H   H1100     1.0  0.59348  0.68637  0.06595  1.0000
  H   H1101     1.0  0.55082  0.69661  0.14219  1.0000
  H   H1102     1.0  0.49012  0.69900  0.10755  1.0000
  H   H1103     1.0  0.61422  0.96476  0.00180  1.0000
  C   C630      1.0  0.62133  0.81028  0.32063  1.0000
  H   H1104     1.0  0.57462  0.68162  0.17608  1.0000
  H   H1105     1.0  0.55569  0.85594  0.15767  1.0000
  H   H1106     1.0  0.56242  0.70925  0.20041  1.0000
  H   H1107     1.0  0.45464  0.87833  0.46537  1.0000
  H   H1108     1.0  0.40026  0.64035  0.41930  1.0000
  H   H1109     1.0  0.40949  0.67349  0.33384  1.0000
  C   C631      1.0  0.39147  0.52660  0.36817  1.0000
  H   H1110     1.0  0.62730  0.80346  0.38104  1.0000
  H   H1111     1.0  0.43304  0.69726  0.99613  1.0000
  H   H1112     1.0  0.38707  0.68815  0.33181  1.0000
  H   H1113     1.0  0.55518  0.78925  0.09454  1.0000
  H   H1114     1.0  0.62502  0.80489  0.27506  1.0000
  C   C632      1.0  0.63641  0.52136  0.34887  1.0000
  C   C633      1.0  0.49717  0.97702  0.01897  1.0000
  C   C634      1.0  0.38481  0.95736  0.04624  1.0000
  H   H1115     1.0  0.56593  0.84884  0.12405  1.0000
  C   C635      1.0  0.39034  0.66164  0.45807  1.0000
  C   C636      1.0  0.32332  0.79121  0.11828  1.0000
  C   C637      1.0  0.55660  0.77872  0.11625  1.0000
  H   H1116     1.0  0.63574  0.88929  0.34632  1.0000
  H   H1117     1.0  0.49570  0.74569  0.03493  1.0000
  C   C638      1.0  0.60945  0.61748  0.32080  1.0000
  H   H1118     1.0  0.60968  0.59928  0.27673  1.0000
  H   H1119     1.0  0.53695  0.81832  0.12729  1.0000
  H   H1120     1.0  0.38258  0.57167  0.34604  1.0000
  H   H1121     1.0  0.52616  0.89691  0.47024  1.0000
  N   N35       1.0  0.62821  0.58585  0.35906  1.0000
  H   H1122     1.0  0.43555  0.91438  0.99421  1.0000
  H   H1123     1.0  0.58885  0.59419  0.29394  1.0000
  H   H1124     1.0  0.54521  0.79503  0.15726  1.0000
  H   H1125     1.0  0.32907  0.83325  0.20440  1.0000
  S   S147      1.0  0.32315  0.72819  0.29048  1.0000
  H   H1126     1.0  0.40174  0.62662  0.36544  1.0000
  C   C639      1.0  0.64676  0.88123  0.33271  1.0000
  H   H1127     1.0  0.46688  0.93005  0.45763  1.0000
  H   H1128     1.0  0.47773  0.87115  0.45858  1.0000
  H   H1129     1.0  0.48925  0.96003  0.00436  1.0000
  C   C640      1.0  0.56191  0.83605  0.14371  1.0000
  H   H1130     1.0  0.62519  0.51315  0.33494  1.0000
  H   H1131     1.0  0.36559  0.54685  0.36220  1.0000
  C   C641      1.0  0.60044  0.61139  0.29197  1.0000
  C   C642      1.0  0.56930  0.73404  0.16104  1.0000
  H   H1132     1.0  0.57843  0.69753  0.11122  1.0000
  H   H1133     1.0  0.58068  0.73335  0.14695  1.0000
  H   H1134     1.0  0.42647  0.94879  0.03653  1.0000
  C   C643      1.0  0.61615  0.58279  0.33332  1.0000
  H   H1135     1.0  0.40328  0.65975  0.46916  1.0000
  H   H1136     1.0  0.34730  0.50546  0.33392  1.0000
  C   C644      1.0  0.51745  0.71495  0.10940  1.0000
  H   H1137     1.0  0.39305  0.64578  0.31730  1.0000
  H   H1138     1.0  0.48355  0.80963  0.98617  1.0000
  H   H1139     1.0  0.62047  0.63583  0.31849  1.0000
  N   N36       1.0  0.54819  0.74324  0.11737  1.0000
  C   C645      1.0  0.52863  0.74850  0.11310  1.0000
  C   C646      1.0  0.57902  0.69008  0.06661  1.0000
  H   H1140     1.0  0.58217  0.73692  0.09174  1.0000
  S   S148      1.0  0.61942  0.76955  0.46405  1.0000
  H   H1141     1.0  0.59593  0.63676  0.28347  1.0000
  Fe  Fe71      1.0  0.64193  0.69788  0.30282  1.0000
  C   C647      1.0  0.55453  0.72088  0.09294  1.0000
  H   H1142     1.0  0.64461  0.63054  0.35111  1.0000
  H   H1143     1.0  0.34704  0.58449  0.40517  1.0000
  C   C648      1.0  0.32744  0.51913  0.27035  1.0000
  H   H1144     1.0  0.49477  0.73352  0.13299  1.0000
  H   H1145     1.0  0.61067  0.94654  0.46933  1.0000
  N   N37       1.0  0.44089  0.94962  0.09036  1.0000
  C   C649      1.0  0.44897  0.93512  0.06370  1.0000
  C   C650      1.0  0.45474  0.95027  0.11366  1.0000
  C   C651      1.0  0.42672  0.92457  0.09892  1.0000
  H   H1146     1.0  0.38809  0.51091  0.38676  1.0000
  H   H1147     1.0  0.35622  0.54554  0.21205  1.0000
  C   C652      1.0  0.43591  0.92718  0.03899  1.0000
  C   C653      1.0  0.41808  0.93253  0.12787  1.0000
  C   C654      1.0  0.61988  0.94003  0.00983  1.0000
  H   H1148     1.0  0.64032  0.77241  0.33278  1.0000
  H   H1149     1.0  0.61615  0.83256  0.42621  1.0000
  C   C655      1.0  0.44531  0.92166  0.01102  1.0000
  C   C656      1.0  0.40249  0.90863  0.13275  1.0000
  H   H1150     1.0  0.45609  0.91034  0.06822  1.0000
  H   H1151     1.0  0.48945  0.94031  0.13291  1.0000
  H   H1152     1.0  0.64827  0.82462  0.41732  1.0000
  H   H1153     1.0  0.45924  0.92309  0.11793  1.0000
  H   H1154     1.0  0.43194  0.89734  0.09937  1.0000
  H   H1155     1.0  0.41578  0.92410  0.08293  1.0000
  H   H1156     1.0  0.41329  0.95986  0.12910  1.0000
  C   C657      1.0  0.64058  0.80099  0.32927  1.0000
  H   H1157     1.0  0.45922  0.82109  0.44298  1.0000
  H   H1158     1.0  0.64948  0.93386  0.31744  1.0000
  H   H1159     1.0  0.42844  0.90312  0.04319  1.0000
  H   H1160     1.0  0.38163  0.50682  0.22159  1.0000
  H   H1161     1.0  0.62537  0.64277  0.44932  1.0000
  S   S149      1.0  0.57493  0.82576  0.48311  1.0000
  H   H1162     1.0  0.40528  0.53560  0.37041  1.0000
  C   C658      1.0  0.46301  0.82497  0.46561  1.0000
  H   H1163     1.0  0.45213  0.81547  0.47867  1.0000
  H   H1164     1.0  0.37397  0.98680  0.08112  1.0000
  C   C659      1.0  0.64264  0.48983  0.27016  1.0000
  H   H1165     1.0  0.34169  0.50866  0.21098  1.0000
  C   C660      1.0  0.61925  0.60913  0.38057  1.0000
  C   C661      1.0  0.33611  0.63296  0.38973  1.0000
  H   H1166     1.0  0.34743  0.84999  0.24727  1.0000
  Fe  Fe72      1.0  0.64773  0.69567  0.23787  1.0000
  C   C662      1.0  0.48482  0.96783  0.13271  1.0000
  H   H1167     1.0  0.64653  0.70906  0.38264  1.0000
  H   H1168     1.0  0.39226  0.91186  0.11599  1.0000
  H   H1169     1.0  0.64837  0.59484  0.32810  1.0000
  H   H1170     1.0  0.36540  0.50526  0.24856  1.0000
  N   N38       1.0  0.64846  0.81993  0.35490  1.0000
  H   H1171     1.0  0.36899  0.62281  0.34586  1.0000
  C   C663      1.0  0.63439  0.82791  0.37622  1.0000
  H   H1172     1.0  0.39537  0.66873  0.37992  1.0000
  H   H1173     1.0  0.64159  0.87215  0.31175  1.0000
  H   H1174     1.0  0.38891  0.68847  0.45001  1.0000
  C   C664      1.0  0.37117  0.63605  0.41827  1.0000
  H   H1175     1.0  0.40681  0.88096  0.13308  1.0000
  H   H1176     1.0  0.39414  0.58807  0.39547  1.0000
  H   H1177     1.0  0.45596  0.70889  0.99808  1.0000
  H   H1178     1.0  0.52310  0.76344  0.13128  1.0000
  H   H1179     1.0  0.62286  0.56839  0.31587  1.0000
  H   H1180     1.0  0.61721  0.76593  0.29171  1.0000
  H   H1181     1.0  0.45194  0.94602  0.00487  1.0000
  H   H1182     1.0  0.36776  0.66394  0.41461  1.0000
  H   H1183     1.0  0.37635  0.56634  0.41052  1.0000
  H   H1184     1.0  0.33792  0.65042  0.40853  1.0000
  H   H1185     1.0  0.34746  0.58966  0.36785  1.0000
  H   H1186     1.0  0.44919  0.96060  0.13371  1.0000
  H   H1187     1.0  0.48514  0.87477  0.99329  1.0000
  H   H1188     1.0  0.60431  0.56718  0.33817  1.0000
  C   C665      1.0  0.61786  0.63739  0.42935  1.0000
  H   H1189     1.0  0.61001  0.92688  0.02281  1.0000
  H   H1190     1.0  0.63101  0.89198  0.99467  1.0000
  C   C666      1.0  0.46595  0.95012  0.47462  1.0000
  C   C667      1.0  0.44235  0.71940  0.99829  1.0000
  C   C668      1.0  0.61631  0.79483  0.29157  1.0000
  C   C669      1.0  0.34095  0.49968  0.31377  1.0000
  C   C670      1.0  0.61732  0.96390  0.45441  1.0000
  C   C671      1.0  0.64063  0.84405  0.40502  1.0000
  H   H1191     1.0  0.62483  0.69946  0.13429  1.0000
  H   H1192     1.0  0.35875  0.80854  0.24338  1.0000
  C   C672      1.0  0.32567  0.78252  0.14950  1.0000
  H   H1193     1.0  0.33857  0.79318  0.15651  1.0000
  H   H1194     1.0  0.55081  0.73320  0.07249  1.0000
  H   H1195     1.0  0.42753  0.92806  0.14558  1.0000
  H   H1196     1.0  0.52594  0.76469  0.09417  1.0000
  H   H1197     1.0  0.47782  0.96679  0.47372  1.0000
  H   H1198     1.0  0.63831  0.54548  0.26555  1.0000
  Fe  Fe73      1.0  0.59100  0.80609  0.00107  1.0000
  N   N39       1.0  0.36900  0.61478  0.39103  1.0000
  C   C673      1.0  0.38006  0.58200  0.39198  1.0000
  C   C674      1.0  0.63026  0.54963  0.37063  1.0000
  H   H1199     1.0  0.62970  0.86468  0.44407  1.0000
  C   C675      1.0  0.37307  0.63661  0.36584  1.0000
  C   C676      1.0  0.39236  0.64856  0.36339  1.0000
  C   C677      1.0  0.37897  0.55765  0.36534  1.0000
  Fe  Fe74      1.0  0.39128  0.79922  0.00540  1.0000
  C   C678      1.0  0.38936  0.63497  0.43365  1.0000
  C   C679      1.0  0.62498  0.85506  0.42297  1.0000
  C   C680      1.0  0.39561  0.66495  0.33481  1.0000
  S   S150      1.0  0.65202  0.73691  0.27192  1.0000
  H   H1200     1.0  0.32324  0.81989  0.11547  1.0000
  H   H1201     1.0  0.33072  0.77755  0.25045  1.0000
  H   H1202     1.0  0.33688  0.64883  0.37057  1.0000
  H   H1203     1.0  0.64551  0.73244  0.43210  1.0000
  H   H1204     1.0  0.33956  0.79177  0.20225  1.0000
  H   H1205     1.0  0.61710  0.63570  0.37204  1.0000
  H   H1206     1.0  0.32430  0.73971  0.19647  1.0000
  S   S151      1.0  0.63503  0.70096  0.19320  1.0000
  H   H1207     1.0  0.60255  0.80205  0.28606  1.0000
  H   H1208     1.0  0.61752  0.54055  0.37901  1.0000
  C   C681      1.0  0.33018  0.80475  0.24339  1.0000
  H   H1209     1.0  0.45908  0.95276  0.05565  1.0000
  C   C682      1.0  0.35005  0.60345  0.38840  1.0000
  H   H1210     1.0  0.62419  0.84555  0.36751  1.0000
  C   C683      1.0  0.47117  0.97291  0.10902  1.0000
  H   H1211     1.0  0.49047  0.97879  0.03958  1.0000
  H   H1212     1.0  0.47496  0.80914  0.47005  1.0000
  H   H1213     1.0  0.64902  0.80425  0.31054  1.0000
  H   H1214     1.0  0.33445  0.77997  0.10621  1.0000
  H   H1215     1.0  0.61045  0.96150  0.43354  1.0000
  H   H1216     1.0  0.47767  0.96619  0.08890  1.0000
  C   C684      1.0  0.46660  0.86361  0.47182  1.0000
  H   H1217     1.0  0.51029  0.96470  0.02205  1.0000
  C   C685      1.0  0.36830  0.49751  0.22640  1.0000
  H   H1218     1.0  0.34884  0.82042  0.27642  1.0000
  H   H1219     1.0  0.32611  0.75371  0.15090  1.0000
  H   H1220     1.0  0.63142  0.94641  0.02363  1.0000
  C   C686      1.0  0.32788  0.80555  0.21076  1.0000
  H   H1221     1.0  0.63936  0.54933  0.38917  1.0000
  H   H1222     1.0  0.63114  0.95500  0.45243  1.0000
  C   C687      1.0  0.62912  0.61577  0.40903  1.0000
  C   C688      1.0  0.34736  0.82209  0.25308  1.0000
  H   H1223     1.0  0.64882  0.86744  0.40212  1.0000
  H   H1224     1.0  0.44802  0.79011  0.99756  1.0000
  C   C689      1.0  0.64550  0.60151  0.35055  1.0000
  C   C690      1.0  0.64761  0.52545  0.27149  1.0000
  H   H1225     1.0  0.64310  0.50314  0.19166  1.0000
  H   H1226     1.0  0.64677  0.53140  0.33508  1.0000
  H   H1227     1.0  0.47923  0.97482  0.15359  1.0000
  H   H1228     1.0  0.49433  0.91285  0.47597  1.0000
  C   C691      1.0  0.44995  0.97300  0.46804  1.0000
  H   H1229     1.0  0.43782  0.95698  0.46701  1.0000
  H   H1230     1.0  0.49631  0.98486  0.12927  1.0000
  H   H1231     1.0  0.41882  0.98304  0.07907  1.0000
  C   C692      1.0  0.43273  0.98533  0.08670  1.0000
  C   C693      1.0  0.64351  0.48883  0.36331  1.0000
  H   H1232     1.0  0.45153  0.98548  0.44727  1.0000
  C   C694      1.0  0.62547  0.91614  0.98537  1.0000
  Fe  Fe75      1.0  0.33364  0.69190  0.81961  1.0000
  S   S152      1.0  0.33588  0.70929  0.86680  1.0000
  Fe  Fe76      1.0  0.34368  0.70079  0.75652  1.0000
  S   S153      1.0  0.36288  0.73135  0.72897  1.0000
  Fe  Fe77      1.0  0.33189  0.62839  0.77734  1.0000
  S   S154      1.0  0.34134  0.57135  0.76902  1.0000
  H   H1233     1.0  0.34443  0.49355  0.86529  1.0000
  S   S155      1.0  0.35348  0.66576  0.79151  1.0000
  S   S156      1.0  0.62850  0.66391  0.77631  1.0000
  H   H1234     1.0  0.50002  0.93871  0.50609  1.0000
  H   H1235     1.0  0.34649  0.60959  0.70995  1.0000
  S   S157      1.0  0.62907  0.69843  0.69696  1.0000
  Fe  Fe78      1.0  0.63526  0.70847  0.80705  1.0000
  S   S158      1.0  0.61496  0.73289  0.83759  1.0000
  Fe  Fe79      1.0  0.56289  0.80014  0.52050  1.0000
  N   N40       1.0  0.61381  0.88880  0.93735  1.0000
  C   C695      1.0  0.49526  0.91231  0.49937  1.0000
  Fe  Fe80      1.0  0.59555  0.81294  0.55851  1.0000
  S   S159      1.0  0.60961  0.84043  0.52358  1.0000
  S   S160      1.0  0.60666  0.81194  0.60442  1.0000
  Fe  Fe81      1.0  0.58383  0.86756  0.51456  1.0000
  C   C696      1.0  0.33990  0.86677  0.54029  1.0000
  C   C697      1.0  0.38355  0.64737  0.73240  1.0000
  S   S161      1.0  0.57741  0.92362  0.50142  1.0000
  S   S162      1.0  0.57031  0.84325  0.55109  1.0000
  S   S163      1.0  0.58721  0.76795  0.52999  1.0000
  Fe  Fe82      1.0  0.40092  0.85894  0.54434  1.0000
  H   H1236     1.0  0.47289  0.87882  0.59723  1.0000
  S   S164      1.0  0.38998  0.91474  0.54940  1.0000
  Fe  Fe83      1.0  0.39557  0.78541  0.56908  1.0000
  S   S165      1.0  0.41600  0.76145  0.54037  1.0000
  S   S166      1.0  0.37757  0.75216  0.59675  1.0000
  Fe  Fe84      1.0  0.43234  0.80930  0.55051  1.0000
  S   S167      1.0  0.46098  0.81455  0.56635  1.0000
  C   C698      1.0  0.60970  0.90669  0.96532  1.0000
  S   S168      1.0  0.38930  0.78014  0.95857  1.0000
  S   S169      1.0  0.41267  0.83111  0.58160  1.0000
  S   S170      1.0  0.38232  0.81448  0.53333  1.0000
  C   C699      1.0  0.51506  0.78704  0.52913  1.0000
  C   C700      1.0  0.51361  0.80976  0.55246  1.0000
  C   C701      1.0  0.49703  0.81668  0.56417  1.0000
  C   C702      1.0  0.48159  0.80239  0.55194  1.0000
  C   C703      1.0  0.48301  0.78007  0.52834  1.0000
  C   C704      1.0  0.49967  0.77214  0.51726  1.0000
  H   H1237     1.0  0.52528  0.82152  0.56176  1.0000
  H   H1238     1.0  0.49615  0.83371  0.58259  1.0000
  H   H1239     1.0  0.47130  0.76876  0.51871  1.0000
  H   H1240     1.0  0.49058  0.87845  0.95640  1.0000
  C   C705      1.0  0.61382  0.74529  0.87436  1.0000
  C   C706      1.0  0.62757  0.73933  0.89378  1.0000
  C   C707      1.0  0.62591  0.74943  0.92258  1.0000
  C   C708      1.0  0.61059  0.76596  0.93256  1.0000
  C   C709      1.0  0.59682  0.77188  0.91317  1.0000
  C   C710      1.0  0.59845  0.76165  0.88439  1.0000
  C   C711      1.0  0.33095  0.78591  0.60261  1.0000
  H   H1241     1.0  0.63664  0.74445  0.93726  1.0000
  H   H1242     1.0  0.58488  0.78418  0.92033  1.0000
  H   H1243     1.0  0.58765  0.76627  0.86974  1.0000
  C   C712      1.0  0.62341  0.73078  0.67151  1.0000
  C   C713      1.0  0.61901  0.71997  0.64360  1.0000
  C   C714      1.0  0.61403  0.74426  0.62278  1.0000
  C   C715      1.0  0.61331  0.77992  0.62955  1.0000
  C   C716      1.0  0.61783  0.79079  0.65742  1.0000
  C   C717      1.0  0.62282  0.76649  0.67824  1.0000
  C   C718      1.0  0.56580  0.85974  0.91675  1.0000
  H   H1244     1.0  0.61073  0.73536  0.60150  1.0000
  H   H1245     1.0  0.61728  0.81825  0.66301  1.0000
  C   C719      1.0  0.35094  0.72963  0.89172  1.0000
  C   C720      1.0  0.36795  0.73953  0.88464  1.0000
  C   C721      1.0  0.37935  0.75500  0.90530  1.0000
  C   C722      1.0  0.37400  0.76102  0.93339  1.0000
  C   C723      1.0  0.35692  0.75147  0.94039  1.0000
  C   C724      1.0  0.34554  0.73589  0.91975  1.0000
  H   H1246     1.0  0.37238  0.73502  0.86330  1.0000
  H   H1247     1.0  0.39247  0.76222  0.89947  1.0000
  H   H1248     1.0  0.35252  0.75578  0.96178  1.0000
  H   H1249     1.0  0.33246  0.72841  0.92563  1.0000
  C   C725      1.0  0.36653  0.73705  0.69203  1.0000
  C   C726      1.0  0.38022  0.75904  0.68373  1.0000
  C   C727      1.0  0.38379  0.76414  0.65486  1.0000
  C   C728      1.0  0.37383  0.74695  0.63371  1.0000
  C   C729      1.0  0.36019  0.72483  0.64201  1.0000
  C   C730      1.0  0.35642  0.72026  0.67085  1.0000
  H   H1250     1.0  0.38816  0.77225  0.69982  1.0000
  H   H1251     1.0  0.39438  0.78107  0.64901  1.0000
  H   H1252     1.0  0.35238  0.71130  0.62596  1.0000
  H   H1253     1.0  0.34566  0.70386  0.67668  1.0000
  C   C731      1.0  0.49105  0.86106  0.97488  1.0000
  C   C732      1.0  0.40046  0.95600  0.54629  1.0000
  C   C733      1.0  0.41862  0.95906  0.54332  1.0000
  H   H1254     1.0  0.35401  0.65045  0.69938  1.0000
  H   H1255     1.0  0.45502  0.90781  0.60541  1.0000
  C   C734      1.0  0.59854  0.96618  0.53624  1.0000
  C   C735      1.0  0.58458  0.96406  0.51666  1.0000
  C   C736      1.0  0.63278  0.93859  0.91759  1.0000
  C   C737      1.0  0.62087  0.51526  0.84213  1.0000
  C   C738      1.0  0.34226  0.62072  0.66533  1.0000
  H   H1256     1.0  0.62493  0.82575  0.90638  1.0000
  H   H1257     1.0  0.60174  0.93073  0.96183  1.0000
  C   C739      1.0  0.62512  0.55415  0.84436  1.0000
  C   C740      1.0  0.39453  0.64625  0.75975  1.0000
  C   C741      1.0  0.33346  0.52728  0.77081  1.0000
  H   H1258     1.0  0.64150  0.86127  0.76335  1.0000
  H   H1259     1.0  0.60500  0.94256  0.54311  1.0000
  H   H1260     1.0  0.40440  0.83492  0.91274  1.0000
  H   H1261     1.0  0.39557  0.67299  0.76913  1.0000
  H   H1262     1.0  0.50669  0.85924  0.49816  1.0000
  C   C742      1.0  0.46318  0.90946  0.56181  1.0000
  H   H1263     1.0  0.37244  0.59667  0.73547  1.0000
  C   C743      1.0  0.64081  0.50071  0.76630  1.0000
  C   C744      1.0  0.36184  0.54478  0.69987  1.0000
  H   H1264     1.0  0.62586  0.77532  0.69961  1.0000
  H   H1265     1.0  0.42658  0.93572  0.54246  1.0000
  C   C745      1.0  0.40851  0.85471  0.92902  1.0000
  H   H1266     1.0  0.48755  0.81499  0.94918  1.0000
  H   H1267     1.0  0.36788  0.54322  0.72131  1.0000
  H   H1268     1.0  0.34734  0.63928  0.64982  1.0000
  H   H1269     1.0  0.34059  0.78062  0.61977  1.0000
  H   H1270     1.0  0.45813  0.86497  0.51457  1.0000
  H   H1271     1.0  0.45098  0.92508  0.50729  1.0000
  H   H1272     1.0  0.35847  0.50494  0.75962  1.0000
  C   C746      1.0  0.32956  0.86432  0.61005  1.0000
  C   C747      1.0  0.35366  0.62249  0.69277  1.0000
  C   C748      1.0  0.59828  0.86627  0.92869  1.0000
  H   H1273     1.0  0.60016  0.85435  0.90733  1.0000
  H   H1274     1.0  0.63946  0.72672  0.88664  1.0000
  H   H1275     1.0  0.44180  0.72950  0.95410  1.0000
  H   H1276     1.0  0.35451  0.49026  0.70104  1.0000
  H   H1277     1.0  0.39350  0.59642  0.71967  1.0000
  H   H1278     1.0  0.34793  0.55295  0.70187  1.0000
  H   H1279     1.0  0.40637  0.88105  0.92027  1.0000
  N   N41       1.0  0.55515  0.74029  0.62078  1.0000
  C   C749      1.0  0.55799  0.73460  0.58951  1.0000
  C   C750      1.0  0.56069  0.77690  0.62911  1.0000
  C   C751      1.0  0.56724  0.71538  0.63624  1.0000
  C   C752      1.0  0.53642  0.73358  0.62922  1.0000
  C   C753      1.0  0.52175  0.74138  0.60683  1.0000
  C   C754      1.0  0.55601  0.69624  0.57871  1.0000
  C   C755      1.0  0.56877  0.72061  0.66882  1.0000
  C   C756      1.0  0.55008  0.80701  0.61575  1.0000
  C   C757      1.0  0.55800  0.84239  0.62415  1.0000
  C   C758      1.0  0.50354  0.74099  0.61977  1.0000
  C   C759      1.0  0.55234  0.69393  0.54688  1.0000
  C   C760      1.0  0.57750  0.68921  0.68277  1.0000
  H   H1280     1.0  0.57146  0.74311  0.58398  1.0000
  H   H1281     1.0  0.54918  0.75128  0.57658  1.0000
  H   H1282     1.0  0.55961  0.78143  0.65227  1.0000
  H   H1283     1.0  0.57480  0.78062  0.62423  1.0000
  H   H1284     1.0  0.58079  0.71697  0.62795  1.0000
  H   H1285     1.0  0.56304  0.68794  0.63221  1.0000
  H   H1286     1.0  0.53461  0.70577  0.63484  1.0000
  H   H1287     1.0  0.53340  0.74861  0.64894  1.0000
  H   H1288     1.0  0.52184  0.72145  0.58950  1.0000
  H   H1289     1.0  0.52342  0.76696  0.59705  1.0000
  H   H1290     1.0  0.56838  0.68171  0.58319  1.0000
  H   H1291     1.0  0.54523  0.68275  0.58943  1.0000
  H   H1292     1.0  0.55568  0.72459  0.67827  1.0000
  H   H1293     1.0  0.57712  0.74365  0.67411  1.0000
  H   H1294     1.0  0.54987  0.80491  0.59240  1.0000
  H   H1295     1.0  0.53644  0.80712  0.62352  1.0000
  H   H1296     1.0  0.55786  0.84649  0.64745  1.0000
  H   H1297     1.0  0.57174  0.84416  0.61691  1.0000
  H   H1298     1.0  0.55025  0.86353  0.61410  1.0000
  H   H1299     1.0  0.50242  0.76176  0.63636  1.0000
  H   H1300     1.0  0.49343  0.74600  0.60305  1.0000
  H   H1301     1.0  0.50088  0.71523  0.62905  1.0000
  H   H1302     1.0  0.53942  0.70595  0.54165  1.0000
  H   H1303     1.0  0.56273  0.70739  0.53518  1.0000
  H   H1304     1.0  0.55201  0.66618  0.53975  1.0000
  H   H1305     1.0  0.57943  0.69465  0.70578  1.0000
  H   H1306     1.0  0.56918  0.66564  0.67997  1.0000
  H   H1307     1.0  0.59058  0.68393  0.67359  1.0000
  N   N42       1.0  0.34380  0.84715  0.59293  1.0000
  C   C761      1.0  0.45145  0.77678  0.97720  1.0000
  C   C762      1.0  0.34955  0.87059  0.56945  1.0000
  C   C763      1.0  0.35948  0.84118  0.61240  1.0000
  H   H1308     1.0  0.45699  0.93549  0.55955  1.0000
  H   H1309     1.0  0.40011  0.85226  0.94779  1.0000
  H   H1310     1.0  0.32548  0.86785  0.54214  1.0000
  C   C764      1.0  0.36905  0.87431  0.62409  1.0000
  H   H1311     1.0  0.50063  0.75444  0.49925  1.0000
  C   C765      1.0  0.43161  0.81292  0.94872  1.0000
  H   H1312     1.0  0.43098  0.86989  0.95407  1.0000
  C   C766      1.0  0.36187  0.50783  0.68715  1.0000
  N   N43       1.0  0.47758  0.90575  0.51216  1.0000
  H   H1313     1.0  0.55285  0.87309  0.91714  1.0000
  C   C767      1.0  0.64527  0.53600  0.77203  1.0000
  H   H1314     1.0  0.34896  0.89849  0.57643  1.0000
  H   H1315     1.0  0.36359  0.86580  0.56470  1.0000
  H   H1316     1.0  0.36954  0.82507  0.60132  1.0000
  H   H1317     1.0  0.35571  0.82608  0.63113  1.0000
  H   H1318     1.0  0.47676  0.92518  0.60110  1.0000
  C   C768      1.0  0.42784  0.85000  0.93733  1.0000
  C   C769      1.0  0.33824  0.81190  0.58108  1.0000
  H   H1319     1.0  0.36683  0.56676  0.65945  1.0000
  C   C770      1.0  0.48136  0.82700  0.96804  1.0000
  H   H1320     1.0  0.53194  0.92165  0.50213  1.0000
  H   H1321     1.0  0.36003  0.89192  0.63568  1.0000
  S   S171      1.0  0.53573  0.77520  0.51481  1.0000
  H   H1322     1.0  0.34197  0.59410  0.65585  1.0000
  H   H1323     1.0  0.32140  0.73277  0.60400  1.0000
  H   H1324     1.0  0.42443  0.81217  0.96895  1.0000
  H   H1325     1.0  0.51240  0.88411  0.52974  1.0000
  C   C771      1.0  0.46730  0.90510  0.59329  1.0000
  S   S172      1.0  0.64567  0.74228  0.77262  1.0000
  H   H1326     1.0  0.63738  0.94269  0.87240  1.0000
  H   H1327     1.0  0.62745  0.56232  0.86677  1.0000
  H   H1328     1.0  0.56845  0.85113  0.89467  1.0000
  H   H1329     1.0  0.39258  0.63717  0.59929  1.0000
  C   C772      1.0  0.58008  0.88473  0.92773  1.0000
  H   H1330     1.0  0.46642  0.95723  0.51910  1.0000
  H   H1331     1.0  0.39346  0.84692  0.63437  1.0000
  C   C773      1.0  0.38385  0.86455  0.64479  1.0000
  N   N44       1.0  0.45064  0.80249  0.95340  1.0000
  C   C774      1.0  0.46147  0.83372  0.96275  1.0000
  H   H1332     1.0  0.32784  0.81425  0.56454  1.0000
  H   H1333     1.0  0.39085  0.88844  0.65226  1.0000
  C   C775      1.0  0.45778  0.78464  0.92731  1.0000
  C   C776      1.0  0.45993  0.80755  0.90110  1.0000
  H   H1334     1.0  0.39039  0.66471  0.71777  1.0000
  Fe  Fe85      1.0  0.59976  0.79676  0.49430  1.0000
  H   H1335     1.0  0.64247  0.50493  0.87174  1.0000
  H   H1336     1.0  0.63694  0.56019  0.83202  1.0000
  C   C777      1.0  0.46969  0.78775  0.87781  1.0000
  H   H1337     1.0  0.61943  0.69248  0.63803  1.0000
  N   N45       1.0  0.37205  0.60811  0.69065  1.0000
  H   H1338     1.0  0.39102  0.59413  0.63694  1.0000
  H   H1339     1.0  0.46059  0.85483  0.94716  1.0000
  H   H1340     1.0  0.42476  0.79353  0.93456  1.0000
  H   H1341     1.0  0.50502  0.85529  0.98021  1.0000
  H   H1342     1.0  0.39694  0.63000  0.67805  1.0000
  Fe  Fe86      1.0  0.40346  0.79310  0.50534  1.0000
  H   H1343     1.0  0.37498  0.88907  0.60676  1.0000
  H   H1344     1.0  0.44901  0.76299  0.92014  1.0000
  H   H1345     1.0  0.46743  0.83163  0.90614  1.0000
  H   H1346     1.0  0.44682  0.81448  0.89222  1.0000
  H   H1347     1.0  0.47058  0.77183  0.93223  1.0000
  C   C778      1.0  0.36104  0.51781  0.83519  1.0000
  H   H1348     1.0  0.57631  0.89418  0.94910  1.0000
  C   C779      1.0  0.62949  0.86487  0.94063  1.0000
  H   H1349     1.0  0.32726  0.84936  0.62956  1.0000
  H   H1350     1.0  0.43572  0.85581  0.91867  1.0000
  H   H1351     1.0  0.62847  0.49471  0.75564  1.0000
  H   H1352     1.0  0.33377  0.89056  0.61778  1.0000
  Fe  Fe87      1.0  0.64054  0.69705  0.74260  1.0000
  H   H1353     1.0  0.38426  0.67098  0.62232  1.0000
  H   H1354     1.0  0.38827  0.62921  0.77533  1.0000
  C   C780      1.0  0.43931  0.74441  0.97391  1.0000
  H   H1355     1.0  0.45332  0.88956  0.55534  1.0000
  C   C781      1.0  0.61634  0.91519  0.91459  1.0000
  H   H1356     1.0  0.48883  0.92833  0.55085  1.0000
  C   C782      1.0  0.38057  0.61015  0.71977  1.0000
  H   H1357     1.0  0.40797  0.63643  0.75545  1.0000
  C   C783      1.0  0.47054  0.87030  0.50362  1.0000
  H   H1358     1.0  0.40552  0.65167  0.62958  1.0000
  S   S173      1.0  0.42126  0.83971  0.51391  1.0000
  C   C784      1.0  0.34505  0.49935  0.76489  1.0000
  H   H1359     1.0  0.37550  0.49777  0.68539  1.0000
  C   C785      1.0  0.51004  0.88565  0.50661  1.0000
  H   H1360     1.0  0.32249  0.65865  0.67858  1.0000
  H   H1361     1.0  0.47070  0.80439  0.85898  1.0000
  H   H1362     1.0  0.37862  0.65772  0.67229  1.0000
  H   H1363     1.0  0.36999  0.61375  0.63028  1.0000
  H   H1364     1.0  0.48696  0.88234  0.55093  1.0000
  C   C786      1.0  0.38326  0.61858  0.63937  1.0000
  H   H1365     1.0  0.38597  0.56054  0.68035  1.0000
  H   H1366     1.0  0.34950  0.79912  0.57019  1.0000
  S   S174      1.0  0.60979  0.77978  0.96905  1.0000
  H   H1367     1.0  0.46503  0.76653  0.98019  1.0000
  H   H1368     1.0  0.59716  0.84406  0.94338  1.0000
  H   H1369     1.0  0.37617  0.98468  0.54964  1.0000
  H   H1370     1.0  0.61394  0.56956  0.83573  1.0000
  H   H1371     1.0  0.37076  0.65942  0.73753  1.0000
  C   C787      1.0  0.32324  0.63117  0.67085  1.0000
  H   H1372     1.0  0.47963  0.84962  0.51094  1.0000
  H   H1373     1.0  0.37851  0.85127  0.66340  1.0000
  H   H1374     1.0  0.42527  0.75221  0.97391  1.0000
  C   C788      1.0  0.38287  0.62988  0.67108  1.0000
  H   H1375     1.0  0.48318  0.78081  0.88514  1.0000
  C   C789      1.0  0.37217  0.57021  0.68126  1.0000
  C   C790      1.0  0.32649  0.75095  0.58817  1.0000
  C   C791      1.0  0.39195  0.64633  0.62167  1.0000
  H   H1376     1.0  0.46253  0.76357  0.87142  1.0000
  H   H1377     1.0  0.56516  0.83642  0.93019  1.0000
  H   H1378     1.0  0.64664  0.49643  0.83547  1.0000
  H   H1379     1.0  0.58002  0.90724  0.91346  1.0000
  H   H1380     1.0  0.36665  0.51257  0.81404  1.0000
  H   H1381     1.0  0.45605  0.84521  0.98264  1.0000
  C   C792      1.0  0.48011  0.90638  0.54400  1.0000
  H   H1382     1.0  0.35536  0.50733  0.66593  1.0000
  H   H1383     1.0  0.35318  0.54225  0.83414  1.0000
  H   H1384     1.0  0.61769  0.50901  0.81954  1.0000
  H   H1385     1.0  0.63636  0.55664  0.76582  1.0000
  S   S175      1.0  0.32527  0.72943  0.78581  1.0000
  H   H1386     1.0  0.34337  0.84135  0.53009  1.0000
  H   H1387     1.0  0.63543  0.81807  0.75121  1.0000
  H   H1388     1.0  0.32966  0.80592  0.90073  1.0000
  C   C793      1.0  0.46469  0.93431  0.50446  1.0000
  H   H1389     1.0  0.53767  0.87622  0.49897  1.0000
  H   H1390     1.0  0.61638  0.90207  0.89338  1.0000
  H   H1391     1.0  0.60503  0.93353  0.91373  1.0000
  C   C794      1.0  0.52745  0.89591  0.49363  1.0000
  H   H1392     1.0  0.34273  0.92157  0.52944  1.0000
  H   H1393     1.0  0.37190  0.52175  0.85091  1.0000
  H   H1394     1.0  0.60894  0.51072  0.85441  1.0000
  H   H1395     1.0  0.62689  0.84542  0.95723  1.0000
  H   H1396     1.0  0.62344  0.97668  0.88704  1.0000
  H   H1397     1.0  0.48040  0.98296  0.57178  1.0000
  S   S176      1.0  0.32312  0.66271  0.74132  1.0000
  H   H1398     1.0  0.63119  0.95737  0.93551  1.0000
  H   H1399     1.0  0.33842  0.73909  0.57874  1.0000
  C   C795      1.0  0.64664  0.83479  0.75825  1.0000
  C   C796      1.0  0.34532  0.89526  0.52015  1.0000
  C   C797      1.0  0.63518  0.84448  0.91362  1.0000
  H   H1400     1.0  0.64126  0.87919  0.94848  1.0000
  H   H1401     1.0  0.35949  0.89284  0.51537  1.0000
  H   H1402     1.0  0.63788  0.86236  0.89614  1.0000
  H   H1403     1.0  0.65016  0.80588  0.93738  1.0000
  H   H1404     1.0  0.60123  0.88976  0.97814  1.0000
  C   C798      1.0  0.65193  0.82347  0.91929  1.0000
  H   H1405     1.0  0.33776  0.89250  0.49992  1.0000
  C   C799      1.0  0.63517  0.96006  0.89109  1.0000
  H   H1406     1.0  0.64496  0.92318  0.92081  1.0000
  H   H1407     1.0  0.63614  0.92931  0.97434  1.0000
  H   H1408     1.0  0.64677  0.97731  0.89405  1.0000
  C   C800      1.0  0.63672  0.49271  0.85212  1.0000
  H   H1409     1.0  0.65268  0.82396  0.77777  1.0000
  C   C801      1.0  0.39023  0.98668  0.54744  1.0000
  H   H1410     1.0  0.61122  0.49097  0.89736  1.0000
  Fe  Fe88      1.0  0.84364  0.20207  0.31287  1.0000
  S   S177      1.0  0.82427  0.15750  0.31628  1.0000
  S   S178      1.0  0.86140  0.23107  0.34620  1.0000
  Fe  Fe89      1.0  0.83877  0.20571  0.24730  1.0000
  S   S179      1.0  0.81938  0.16161  0.24702  1.0000
  S   S180      1.0  0.84255  0.24113  0.20862  1.0000
  Fe  Fe90      1.0  0.80725  0.18757  0.28511  1.0000
  S   S181      1.0  0.77699  0.18645  0.28264  1.0000
  Fe  Fe91      1.0  0.83722  0.13371  0.27779  1.0000
  S   S182      1.0  0.84421  0.07563  0.26767  1.0000
  S   S183      1.0  0.82566  0.23314  0.28415  1.0000
  S   S184      1.0  0.85764  0.17664  0.27581  1.0000
  Fe  Fe92      1.0  0.90096  0.37025  0.03950  1.0000
  S   S185      1.0  0.91882  0.33462  0.06468  1.0000
  S   S186      1.0  0.90184  0.42712  0.05589  1.0000
  H   H1411     1.0  0.69114  0.34349  0.15694  1.0000
  S   S187      1.0  0.90663  0.27183  0.02135  1.0000
  C   C802      1.0  0.94614  0.21089  0.43143  1.0000
  Fe  Fe93      1.0  0.89663  0.29563  0.06232  1.0000
  S   S188      1.0  0.88918  0.25621  0.09675  1.0000
  Fe  Fe94      1.0  0.92738  0.31397  0.02234  1.0000
  S   S189      1.0  0.95551  0.30586  0.00615  1.0000
  S   S190      1.0  0.87825  0.33247  0.03982  1.0000
  H   H1412     1.0  0.92594  0.42135  0.00631  1.0000
  Fe  Fe95      1.0  0.68669  0.30540  0.28961  1.0000
  S   S191      1.0  0.66748  0.26075  0.28625  1.0000
  S   S192      1.0  0.71681  0.30333  0.29641  1.0000
  H   H1413     1.0  0.78428  0.00722  0.21761  1.0000
  S   S193      1.0  0.66988  0.33738  0.31990  1.0000
  S   S194      1.0  0.67563  0.33250  0.25118  1.0000
  C   C803      1.0  0.94790  0.17123  0.42488  1.0000
  H   H1414     1.0  0.84835  0.11254  0.05492  1.0000
  H   H1415     1.0  0.89911  0.15362  0.00021  1.0000
  H   H1416     1.0  0.94982  0.37506  0.08565  1.0000
  H   H1417     1.0  0.85024  0.48339  0.42765  1.0000
  H   H1418     1.0  0.75789  0.10709  0.26108  1.0000
  H   H1419     1.0  0.83642  0.41727  0.44658  1.0000
  C   C804      1.0  0.97726  0.31293  0.02001  1.0000
  C   C805      1.0  0.78299  0.05550  0.27946  1.0000
  C   C806      1.0  0.84056  0.27980  0.07477  1.0000
  H   H1420     1.0  0.78390  0.11329  0.28123  1.0000
  H   H1421     1.0  0.96984  0.32818  0.06209  1.0000
  C   C807      1.0  0.76049  0.21938  0.28673  1.0000
  C   C808      1.0  0.74297  0.21150  0.27902  1.0000
  C   C809      1.0  0.72944  0.23666  0.28184  1.0000
  C   C810      1.0  0.73324  0.27018  0.29249  1.0000
  C   C811      1.0  0.75080  0.27809  0.30002  1.0000
  C   C812      1.0  0.76431  0.25290  0.29729  1.0000
  H   H1422     1.0  0.73978  0.18568  0.27093  1.0000
  H   H1423     1.0  0.71606  0.23008  0.27591  1.0000
  H   H1424     1.0  0.75393  0.30384  0.30835  1.0000
  H   H1425     1.0  0.77764  0.25932  0.30367  1.0000
  C   C813      1.0  0.83784  0.03154  0.27464  1.0000
  C   C814      1.0  0.68202  0.32677  0.16862  1.0000
  C   C815      1.0  0.82697  0.02294  0.29697  1.0000
  H   H1426     1.0  0.85241  0.01022  0.23967  1.0000
  H   H1427     1.0  0.82234  0.04337  0.31108  1.0000
  C   C816      1.0  0.85616  0.24503  0.17817  1.0000
  C   C817      1.0  0.86708  0.21805  0.16842  1.0000
  C   C818      1.0  0.87704  0.22212  0.14370  1.0000
  C   C819      1.0  0.87651  0.25330  0.12837  1.0000
  C   C820      1.0  0.86573  0.28043  0.13830  1.0000
  C   C821      1.0  0.85556  0.27617  0.16276  1.0000
  H   H1428     1.0  0.86777  0.19392  0.17981  1.0000
  H   H1429     1.0  0.88532  0.20090  0.13647  1.0000
  H   H1430     1.0  0.86516  0.30468  0.12705  1.0000
  H   H1431     1.0  0.84727  0.29737  0.16998  1.0000
  C   C822      1.0  0.86405  0.24224  0.38307  1.0000
  C   C823      1.0  0.85231  0.23148  0.40354  1.0000
  C   C824      1.0  0.85507  0.24101  0.43237  1.0000
  C   C825      1.0  0.86959  0.26133  0.44134  1.0000
  C   C826      1.0  0.88125  0.27238  0.42087  1.0000
  C   C827      1.0  0.87850  0.26286  0.39205  1.0000
  H   H1432     1.0  0.84110  0.21577  0.39716  1.0000
  H   H1433     1.0  0.84584  0.23245  0.44785  1.0000
  H   H1434     1.0  0.89220  0.28872  0.42715  1.0000
  H   H1435     1.0  0.88762  0.27162  0.37648  1.0000
  H   H1436     1.0  0.85285  0.17607  0.05396  1.0000
  N   N46       1.0  0.94362  0.22133  0.46204  1.0000
  C   C828      1.0  0.85031  0.35180  0.42272  1.0000
  H   H1437     1.0  0.91147  0.36019  0.44307  1.0000
  H   H1438     1.0  0.91321  0.38792  0.41308  1.0000
  H   H1439     1.0  0.88718  0.02646  0.32895  1.0000
  C   C829      1.0  0.94196  0.26057  0.46508  1.0000
  H   H1440     1.0  0.79244  0.07328  0.33543  1.0000
  H   H1441     1.0  0.75454  0.04711  0.24492  1.0000
  H   H1442     1.0  0.83469  0.27988  0.03014  1.0000
  C   C830      1.0  0.87527  0.37151  0.45161  1.0000
  H   H1443     1.0  0.88662  0.44642  0.00082  1.0000
  H   H1444     1.0  0.74033  0.13738  0.22527  1.0000
  C   C831      1.0  0.86167  0.44261  0.45384  1.0000
  H   H1445     1.0  0.81126  0.11756  0.19540  1.0000
  H   H1446     1.0  0.79090  0.11991  0.33173  1.0000
  H   H1447     1.0  0.86203  0.23220  0.05746  1.0000
  H   H1448     1.0  0.96005  0.16040  0.43461  1.0000
  H   H1449     1.0  0.87836  0.34478  0.45911  1.0000
  C   C832      1.0  0.88444  0.18867  0.02805  1.0000
  C   C833      1.0  0.84398  0.00415  0.25703  1.0000
  C   C834      1.0  0.83751  0.11655  0.03924  1.0000
  Fe  Fe96      1.0  0.88903  0.30989  0.99888  1.0000
  H   H1450     1.0  0.82728  0.08427  0.20412  1.0000
  H   H1451     1.0  0.82874  0.29586  0.07929  1.0000
  C   C835      1.0  0.65453  0.46301  0.27754  1.0000
  H   H1452     1.0  0.82390  0.37424  0.41533  1.0000
  H   H1453     1.0  0.93643  0.15675  0.43260  1.0000
  H   H1454     1.0  0.83125  0.14709  0.00314  1.0000
  H   H1455     1.0  0.66922  0.37848  0.20126  1.0000
  H   H1456     1.0  0.88576  0.35354  0.41092  1.0000
  C   C836      1.0  0.85031  0.41266  0.44049  1.0000
  H   H1457     1.0  0.91058  0.20231  0.43700  1.0000
  C   C837      1.0  0.80009  0.06629  0.20256  1.0000
  C   C838      1.0  0.74364  0.10937  0.22186  1.0000
  C   C839      1.0  0.95316  0.41232  0.05229  1.0000
  H   H1458     1.0  0.76443  0.05420  0.21223  1.0000
  C   C840      1.0  0.91015  0.20876  0.45992  1.0000
  C   C841      1.0  0.84485  0.18049  0.03439  1.0000
  H   H1459     1.0  0.77084  0.11797  0.23093  1.0000
  N   N47       1.0  0.78284  0.05077  0.24756  1.0000
  H   H1460     1.0  0.80375  0.03909  0.19672  1.0000
  C   C842      1.0  0.85511  0.24047  0.03775  1.0000
  H   H1461     1.0  0.86391  0.26016  0.02841  1.0000
  H   H1462     1.0  0.96030  0.17762  0.38409  1.0000
  H   H1463     1.0  0.65360  0.29525  0.45156  1.0000
  H   H1464     1.0  0.94458  0.39726  0.03741  1.0000
  H   H1465     1.0  0.88155  0.39956  0.41262  1.0000
  C   C843      1.0  0.95161  0.45223  0.04749  1.0000
  Fe  Fe97      1.0  0.65544  0.28949  0.24910  1.0000
  C   C844      1.0  0.81480  0.08965  0.19238  1.0000
  C   C845      1.0  0.76042  0.10070  0.23854  1.0000
  C   C846      1.0  0.84649  0.36315  0.47308  1.0000
  C   C847      1.0  0.84016  0.22053  0.99400  1.0000
  C   C848      1.0  0.92818  0.20342  0.47483  1.0000
  C   C849      1.0  0.76534  0.06163  0.23505  1.0000
  N   N48       1.0  0.85255  0.20963  0.01766  1.0000
  C   C850      1.0  0.88645  0.37713  0.42496  1.0000
  N   N49       1.0  0.77980  0.28232  0.21567  1.0000
  C   C851      1.0  0.78586  0.24494  0.21817  1.0000
  C   C852      1.0  0.78784  0.30372  0.23970  1.0000
  C   C853      1.0  0.76009  0.28277  0.21929  1.0000
  C   C854      1.0  0.78400  0.29772  0.18740  1.0000
  C   C855      1.0  0.80102  0.28456  0.17287  1.0000
  C   C856      1.0  0.77592  0.21823  0.19867  1.0000
  C   C857      1.0  0.75129  0.31919  0.22226  1.0000
  C   C858      1.0  0.80809  0.30676  0.24055  1.0000
  C   C859      1.0  0.81452  0.32452  0.26805  1.0000
  C   C860      1.0  0.80532  0.30646  0.14731  1.0000
  C   C861      1.0  0.78545  0.18320  0.19716  1.0000
  C   C862      1.0  0.73133  0.31672  0.21866  1.0000
  H   H1466     1.0  0.78438  0.23618  0.24027  1.0000
  H   H1467     1.0  0.80012  0.24215  0.21435  1.0000
  H   H1468     1.0  0.78305  0.33110  0.23923  1.0000
  H   H1469     1.0  0.78364  0.29324  0.26027  1.0000
  H   H1470     1.0  0.75649  0.26783  0.23827  1.0000
  H   H1471     1.0  0.75342  0.26928  0.20104  1.0000
  H   H1472     1.0  0.77316  0.29266  0.17171  1.0000
  H   H1473     1.0  0.78472  0.32667  0.18945  1.0000
  H   H1474     1.0  0.79945  0.25719  0.16522  1.0000
  H   H1475     1.0  0.81258  0.28521  0.18731  1.0000
  H   H1476     1.0  0.76268  0.21327  0.20715  1.0000
  H   H1477     1.0  0.77426  0.22808  0.17690  1.0000
  H   H1478     1.0  0.75620  0.33735  0.20629  1.0000
  H   H1479     1.0  0.75400  0.33043  0.24374  1.0000
  H   H1480     1.0  0.81457  0.28097  0.23913  1.0000
  H   H1481     1.0  0.81249  0.32305  0.22294  1.0000
  H   H1482     1.0  0.81059  0.30928  0.28660  1.0000
  H   H1483     1.0  0.82908  0.32609  0.26817  1.0000
  H   H1484     1.0  0.80908  0.35135  0.26998  1.0000
  H   H1485     1.0  0.80799  0.33389  0.15401  1.0000
  H   H1486     1.0  0.81726  0.29579  0.13707  1.0000
  H   H1487     1.0  0.79431  0.30582  0.13157  1.0000
  H   H1488     1.0  0.78602  0.17160  0.21844  1.0000
  H   H1489     1.0  0.77820  0.16505  0.18261  1.0000
  H   H1490     1.0  0.79898  0.18640  0.18928  1.0000
  H   H1491     1.0  0.72764  0.30799  0.19683  1.0000
  H   H1492     1.0  0.72590  0.29812  0.23390  1.0000
  H   H1493     1.0  0.72528  0.34267  0.22283  1.0000
  H   H1494     1.0  0.68220  0.30011  0.15896  1.0000
  H   H1495     1.0  0.83293  0.30204  0.38923  1.0000
  H   H1496     1.0  0.68087  0.45256  0.29225  1.0000
  C   C863      1.0  0.85273  0.47805  0.45036  1.0000
  C   C864      1.0  0.66333  0.34135  0.16713  1.0000
  H   H1497     1.0  0.85213  0.29724  0.07446  1.0000
  H   H1498     1.0  0.87410  0.03260  0.36031  1.0000
  C   C865      1.0  0.66234  0.37855  0.18023  1.0000
  H   H1499     1.0  0.83202  0.36565  0.47031  1.0000
  H   H1500     1.0  0.78791  0.07357  0.19088  1.0000
  C   C866      1.0  0.89083  0.46994  0.01195  1.0000
  H   H1501     1.0  0.79935  0.00470  0.24682  1.0000
  C   C867      1.0  0.79784  0.07041  0.23498  1.0000
  C   C868      1.0  0.93065  0.28053  0.44281  1.0000
  C   C869      1.0  0.94171  0.29918  0.42116  1.0000
  H   H1502     1.0  0.85620  0.36059  0.40276  1.0000
  H   H1503     1.0  0.95809  0.22379  0.42339  1.0000
  H   H1504     1.0  0.83212  0.34282  0.37067  1.0000
  H   H1505     1.0  0.93522  0.22012  0.41776  1.0000
  H   H1506     1.0  0.76964  0.05094  0.28781  1.0000
  H   H1507     1.0  0.85547  0.32499  0.42612  1.0000
  H   H1508     1.0  0.82403  0.33318  0.43342  1.0000
  C   C870      1.0  0.78592  0.09446  0.32344  1.0000
  H   H1509     1.0  0.84243  0.26090  0.09205  1.0000
  H   H1510     1.0  0.87455  0.44388  0.44341  1.0000
  H   H1511     1.0  0.86542  0.04468  0.32615  1.0000
  C   C871      1.0  0.98067  0.32367  0.04804  1.0000
  H   H1512     1.0  0.93770  0.45971  0.05124  1.0000
  H   H1513     1.0  0.82630  0.21900  0.00091  1.0000
  H   H1514     1.0  0.84012  0.47891  0.46176  1.0000
  H   H1515     1.0  0.93293  0.31360  0.40643  1.0000
  H   H1516     1.0  0.92078  0.26435  0.43144  1.0000
  H   H1517     1.0  0.92299  0.30098  0.45419  1.0000
  H   H1518     1.0  0.94960  0.28035  0.40860  1.0000
  H   H1519     1.0  0.93073  0.17495  0.47650  1.0000
  H   H1520     1.0  0.95063  0.31828  0.43199  1.0000
  H   H1521     1.0  0.79153  0.03552  0.28957  1.0000
  H   H1522     1.0  0.67178  0.44869  0.17941  1.0000
  H   H1523     1.0  0.73249  0.09349  0.22911  1.0000
  N   N50       1.0  0.85571  0.37567  0.44721  1.0000
  H   H1524     1.0  0.80428  0.09239  0.28959  1.0000
  H   H1525     1.0  0.96181  0.18179  0.47732  1.0000
  H   H1526     1.0  0.82671  0.24294  0.04837  1.0000
  S   S195      1.0  0.87208  0.27304  0.47810  1.0000
  H   H1527     1.0  0.96678  0.40271  0.04972  1.0000
  C   C872      1.0  0.90577  0.38336  0.43261  1.0000
  H   H1528     1.0  0.77154  0.09379  0.32683  1.0000
  H   H1529     1.0  0.81695  0.08462  0.16952  1.0000
  H   H1530     1.0  0.81243  0.32521  0.38519  1.0000
  H   H1531     1.0  0.83173  0.18797  0.04237  1.0000
  H   H1532     1.0  0.85432  0.13645  0.00776  1.0000
  H   H1533     1.0  0.95676  0.41745  0.09811  1.0000
  C   C873      1.0  0.78982  0.09075  0.29196  1.0000
  H   H1534     1.0  0.81038  0.06199  0.24508  1.0000
  H   H1535     1.0  0.88027  0.38912  0.46878  1.0000
  H   H1536     1.0  0.68666  0.32487  0.19093  1.0000
  C   C874      1.0  0.94887  0.16408  0.39302  1.0000
  C   C875      1.0  0.87371  0.02531  0.33747  1.0000
  H   H1537     1.0  0.90728  0.40658  0.44688  1.0000
  H   H1538     1.0  0.79697  0.09873  0.23972  1.0000
  H   H1539     1.0  0.95037  0.13563  0.38886  1.0000
  C   C876      1.0  0.89859  0.46768  0.03887  1.0000
  C   C877      1.0  0.94816  0.40348  0.08244  1.0000
  H   H1540     1.0  0.95519  0.27296  0.46596  1.0000
  C   C878      1.0  0.67151  0.47258  0.28645  1.0000
  S   S196      1.0  0.91026  0.35076  0.99716  1.0000
  H   H1541     1.0  0.65937  0.34173  0.14444  1.0000
  C   C879      1.0  0.87031  0.20016  0.00604  1.0000
  H   H1542     1.0  0.85038  0.41681  0.41725  1.0000
  H   H1543     1.0  0.93427  0.41058  0.08636  1.0000
  C   C880      1.0  0.82680  0.32840  0.38871  1.0000
  C   C881      1.0  0.83031  0.34827  0.41661  1.0000
  H   H1544     1.0  0.91161  0.17150  0.02984  1.0000
  H   H1545     1.0  0.74549  0.10455  0.19888  1.0000
  H   H1546     1.0  0.93665  0.17300  0.38211  1.0000
  H   H1547     1.0  0.88772  0.21032  0.04309  1.0000
  C   C882      1.0  0.83813  0.26040  0.04645  1.0000
  H   H1548     1.0  0.90580  0.23614  0.46303  1.0000
  H   H1549     1.0  0.67053  0.39451  0.16635  1.0000
  C   C883      1.0  0.78565  0.01248  0.24074  1.0000
  C   C884      1.0  0.93438  0.43039  0.98913  1.0000
  C   C885      1.0  0.94250  0.46599  0.99794  1.0000
  C   C886      1.0  0.97258  0.44518  0.00722  1.0000
  H   H1550     1.0  0.97186  0.22176  0.46829  1.0000
  N   N51       1.0  0.95746  0.46575  0.01936  1.0000
  H   H1551     1.0  0.84920  0.33482  0.47595  1.0000
  C   C887      1.0  0.84229  0.14509  0.01868  1.0000
  C   C888      1.0  0.90137  0.17739  0.01356  1.0000
  C   C889      1.0  0.89611  0.18589  0.47268  1.0000
  H   H1552     1.0  0.88330  0.19059  0.46174  1.0000
  Fe  Fe98      1.0  0.65773  0.36165  0.28104  1.0000
  H   H1553     1.0  0.89951  0.15784  0.47010  1.0000
  H   H1554     1.0  0.87993  0.16617  0.04026  1.0000
  H   H1555     1.0  0.90634  0.19845  0.00011  1.0000
  H   H1556     1.0  0.96914  0.41730  0.00413  1.0000
  H   H1557     1.0  0.85236  0.98969  0.34075  1.0000
  H   H1558     1.0  0.65472  0.10986  0.38822  1.0000
  C   C890      1.0  0.96003  0.21054  0.47823  1.0000
  H   H1559     1.0  0.87565  0.22277  0.99448  1.0000
  H   H1560     1.0  0.86438  0.43921  0.47661  1.0000
  H   H1561     1.0  0.65574  0.23568  0.38330  1.0000
  C   C891      1.0  0.65773  0.45638  0.17896  1.0000
  H   H1562     1.0  0.83526  0.09162  0.02738  1.0000
  H   H1563     1.0  0.93124  0.48150  0.00604  1.0000
  H   H1564     1.0  0.84230  0.24846  0.98896  1.0000
  H   H1565     1.0  0.77321  0.98974  0.27818  1.0000
  H   H1566     1.0  0.95921  0.46501  0.06517  1.0000
  H   H1567     1.0  0.75932  0.99047  0.24699  1.0000
  H   H1568     1.0  0.82531  0.12357  0.05059  1.0000
  H   H1569     1.0  0.86938  0.17882  0.98998  1.0000
  H   H1570     1.0  0.65485  0.32314  0.17825  1.0000
  C   C892      1.0  0.86597  0.98892  0.33283  1.0000
  H   H1571     1.0  0.97548  0.45425  0.98557  1.0000
  Fe  Fe99      1.0  0.84057  0.19719  0.81074  1.0000
  S   S197      1.0  0.81949  0.15625  0.81359  1.0000
  S   S198      1.0  0.86168  0.21009  0.84514  1.0000
  Fe  Fe100     1.0  0.83375  0.20605  0.74649  1.0000
  S   S199      1.0  0.81205  0.16609  0.74536  1.0000
  S   S200      1.0  0.83948  0.23575  0.70572  1.0000
  Fe  Fe101     1.0  0.80297  0.19186  0.78583  1.0000
  S   S201      1.0  0.77342  0.19525  0.79470  1.0000
  Fe  Fe102     1.0  0.82958  0.13289  0.77292  1.0000
  S   S202      1.0  0.83791  0.07620  0.76196  1.0000
  S   S203      1.0  0.82352  0.23417  0.78552  1.0000
  S   S204      1.0  0.85181  0.17156  0.77147  1.0000
  Fe  Fe103     1.0  0.89818  0.36696  0.54578  1.0000
  S   S205      1.0  0.91969  0.34187  0.57175  1.0000
  S   S206      1.0  0.89031  0.42272  0.55801  1.0000
  Fe  Fe104     1.0  0.89125  0.29988  0.51017  1.0000
  S   S207      1.0  0.91244  0.27056  0.53391  1.0000
  H   H1572     1.0  0.89491  0.10669  0.82265  1.0000
  Fe  Fe105     1.0  0.90154  0.29538  0.57391  1.0000
  S   S208      1.0  0.89937  0.26324  0.61461  1.0000
  Fe  Fe106     1.0  0.92891  0.31919  0.53041  1.0000
  S   S209      1.0  0.95644  0.32390  0.51166  1.0000
  S   S210      1.0  0.87954  0.32192  0.55044  1.0000
  S   S211      1.0  0.90822  0.34705  0.50420  1.0000
  Fe  Fe107     1.0  0.68257  0.31519  0.78407  1.0000
  H   H1573     1.0  0.97913  0.22088  0.54594  1.0000
  S   S212      1.0  0.71228  0.30917  0.77682  1.0000
  H   H1574     1.0  0.84408  0.33743  0.52688  1.0000
  S   S213      1.0  0.66984  0.35448  0.81396  1.0000
  S   S214      1.0  0.66826  0.33609  0.74567  1.0000
  H   H1575     1.0  0.72574  0.26624  0.68015  1.0000
  H   H1576     1.0  0.67720  0.26818  0.69828  1.0000
  C   C893      1.0  0.89197  0.46248  0.53966  1.0000
  C   C894      1.0  0.84165  0.20094  0.96505  1.0000
  C   C895      1.0  0.89447  0.46340  0.51046  1.0000
  H   H1577     1.0  0.87372  0.99848  0.85813  1.0000
  H   H1578     1.0  0.70621  0.23319  0.65380  1.0000
  C   C896      1.0  0.97794  0.31382  0.52487  1.0000
  H   H1579     1.0  0.81969  0.03190  0.70195  1.0000
  H   H1580     1.0  0.95136  0.20471  0.52205  1.0000
  H   H1581     1.0  0.97031  0.30185  0.56709  1.0000
  C   C897      1.0  0.67995  0.21999  0.73428  1.0000
  C   C898      1.0  0.75671  0.22763  0.78991  1.0000
  C   C899      1.0  0.73940  0.22015  0.79780  1.0000
  C   C900      1.0  0.72568  0.24477  0.79437  1.0000
  C   C901      1.0  0.72907  0.27728  0.78277  1.0000
  C   C902      1.0  0.74637  0.28473  0.77485  1.0000
  C   C903      1.0  0.76010  0.26019  0.77843  1.0000
  H   H1582     1.0  0.73659  0.19515  0.80683  1.0000
  H   H1583     1.0  0.71253  0.23860  0.80075  1.0000
  H   H1584     1.0  0.74919  0.30978  0.76592  1.0000
  H   H1585     1.0  0.77329  0.26649  0.77230  1.0000
  C   C904      1.0  0.83054  0.03255  0.76762  1.0000
  H   H1586     1.0  0.98295  0.18636  0.52030  1.0000
  C   C905      1.0  0.81505  0.02518  0.78174  1.0000
  H   H1587     1.0  0.85301  0.00945  0.74734  1.0000
  H   H1588     1.0  0.80669  0.04634  0.78876  1.0000
  C   C906      1.0  0.85668  0.24443  0.68157  1.0000
  C   C907      1.0  0.87351  0.23000  0.68435  1.0000
  C   C908      1.0  0.88633  0.23620  0.66382  1.0000
  C   C909      1.0  0.88265  0.25718  0.64024  1.0000
  C   C910      1.0  0.86589  0.27209  0.63774  1.0000
  C   C911      1.0  0.85306  0.26576  0.65824  1.0000
  H   H1589     1.0  0.87661  0.21374  0.70210  1.0000
  H   H1590     1.0  0.89923  0.22457  0.66611  1.0000
  H   H1591     1.0  0.86278  0.28831  0.61988  1.0000
  H   H1592     1.0  0.84013  0.27721  0.65576  1.0000
  C   C912      1.0  0.86318  0.23395  0.87818  1.0000
  C   C913      1.0  0.84901  0.25250  0.88953  1.0000
  C   C914      1.0  0.85104  0.27148  0.91539  1.0000
  C   C915      1.0  0.86711  0.27183  0.93071  1.0000
  C   C916      1.0  0.88126  0.25313  0.91943  1.0000
  C   C917      1.0  0.87931  0.23451  0.89337  1.0000
  H   H1593     1.0  0.83651  0.25254  0.87829  1.0000
  H   H1594     1.0  0.84000  0.28597  0.92367  1.0000
  H   H1595     1.0  0.89373  0.25299  0.93078  1.0000
  H   H1596     1.0  0.89042  0.22040  0.88494  1.0000
  N   N52       1.0  0.87305  0.30603  0.77097  1.0000
  C   C918      1.0  0.88054  0.34175  0.76596  1.0000
  C   C919      1.0  0.86968  0.30118  0.80216  1.0000
  C   C920      1.0  0.88670  0.27953  0.76200  1.0000
  C   C921      1.0  0.85659  0.29937  0.75351  1.0000
  C   C922      1.0  0.84134  0.32560  0.75767  1.0000
  C   C923      1.0  0.88473  0.35020  0.73484  1.0000
  C   C924      1.0  0.88229  0.24083  0.76761  1.0000
  C   C925      1.0  0.86446  0.33397  0.81996  1.0000
  C   C926      1.0  0.85873  0.32405  0.84948  1.0000
  C   C927      1.0  0.82635  0.31847  0.73641  1.0000
  C   C928      1.0  0.89096  0.38782  0.73239  1.0000
  C   C929      1.0  0.89816  0.21724  0.76230  1.0000
  H   H1597     1.0  0.89286  0.34533  0.77880  1.0000
  H   H1598     1.0  0.87157  0.36265  0.77343  1.0000
  H   H1599     1.0  0.85943  0.28093  0.80501  1.0000
  H   H1600     1.0  0.88163  0.29084  0.81320  1.0000
  H   H1601     1.0  0.89955  0.28561  0.77266  1.0000
  H   H1602     1.0  0.88896  0.28058  0.73887  1.0000
  H   H1603     1.0  0.85962  0.29763  0.73060  1.0000
  H   H1604     1.0  0.85115  0.27339  0.75826  1.0000
  H   H1605     1.0  0.84560  0.35284  0.75475  1.0000
  H   H1606     1.0  0.83587  0.32294  0.77907  1.0000
  H   H1607     1.0  0.89536  0.33316  0.72666  1.0000
  H   H1608     1.0  0.87295  0.34707  0.72087  1.0000
  H   H1609     1.0  0.87152  0.23198  0.75311  1.0000
  H   H1610     1.0  0.87822  0.23677  0.78966  1.0000
  H   H1611     1.0  0.87593  0.35164  0.82262  1.0000
  H   H1612     1.0  0.85360  0.34878  0.80998  1.0000
  H   H1613     1.0  0.85560  0.34792  0.86211  1.0000
  H   H1614     1.0  0.84680  0.30749  0.84807  1.0000
  H   H1615     1.0  0.86938  0.30969  0.86072  1.0000
  H   H1616     1.0  0.81572  0.33800  0.73950  1.0000
  H   H1617     1.0  0.83103  0.32020  0.71438  1.0000
  H   H1618     1.0  0.82077  0.29213  0.73945  1.0000
  H   H1619     1.0  0.90303  0.39231  0.74550  1.0000
  H   H1620     1.0  0.89401  0.39308  0.71001  1.0000
  H   H1621     1.0  0.88056  0.40639  0.73924  1.0000
  H   H1622     1.0  0.90933  0.22488  0.77652  1.0000
  H   H1623     1.0  0.89469  0.18984  0.76678  1.0000
  H   H1624     1.0  0.90225  0.21873  0.73994  1.0000
  H   H1625     1.0  0.86864  0.06644  0.60700  1.0000
  H   H1626     1.0  0.75615  0.26598  0.71701  1.0000
  H   H1627     1.0  0.89458  0.19250  0.49549  1.0000
  S   S215      1.0  0.66244  0.27374  0.79198  1.0000
  C   C930      1.0  0.84101  0.00431  0.75832  1.0000
  C   C931      1.0  0.84106  0.36572  0.52573  1.0000
  C   C932      1.0  0.69327  0.29740  0.67075  1.0000
  H   H1628     1.0  0.80627  0.06364  0.72043  1.0000
  H   H1629     1.0  0.94076  0.40617  0.50873  1.0000
  C   C933      1.0  0.75433  0.24105  0.70498  1.0000
  C   C934      1.0  0.94004  0.42747  0.52495  1.0000
  H   H1630     1.0  0.67699  0.46104  0.79385  1.0000
  H   H1631     1.0  0.66508  0.23285  0.53086  1.0000
  H   H1632     1.0  0.73450  0.21979  0.73095  1.0000
  H   H1633     1.0  0.85350  0.21007  0.95410  1.0000
  H   H1634     1.0  0.67205  0.22789  0.66656  1.0000
  H   H1635     1.0  0.82666  0.36918  0.52284  1.0000
  H   H1636     1.0  0.92643  0.21271  0.49702  1.0000
  H   H1637     1.0  0.82339  0.23641  0.94395  1.0000
  H   H1638     1.0  0.70685  0.30730  0.66901  1.0000
  H   H1639     1.0  0.68978  0.28216  0.65127  1.0000
  H   H1640     1.0  0.87703  0.05594  0.83443  1.0000
  H   H1641     1.0  0.91615  0.40877  0.95750  1.0000
  H   H1642     1.0  0.85036  0.06978  0.93868  1.0000
  H   H1643     1.0  0.88024  0.11100  0.79223  1.0000
  H   H1644     1.0  0.67090  0.21163  0.71702  1.0000
  C   C935      1.0  0.73574  0.22713  0.70848  1.0000
  H   H1645     1.0  0.70473  0.19562  0.72311  1.0000
  C   C936      1.0  0.85717  0.04495  0.93316  1.0000
  H   H1646     1.0  0.68625  0.20307  0.77704  1.0000
  H   H1647     1.0  0.94888  0.48500  0.55315  1.0000
  H   H1648     1.0  0.87099  0.99917  0.82030  1.0000
  H   H1649     1.0  0.81724  0.06772  0.65820  1.0000
  C   C937      1.0  0.80926  0.05197  0.69936  1.0000
  C   C938      1.0  0.68106  0.32909  0.67185  1.0000
  H   H1650     1.0  0.93469  0.46565  0.49348  1.0000
  C   C939      1.0  0.68093  0.19292  0.63415  1.0000
  H   H1651     1.0  0.82787  0.19658  0.92452  1.0000
  H   H1652     1.0  0.68203  0.34382  0.65199  1.0000
  H   H1653     1.0  0.70618  0.23504  0.74353  1.0000
  C   C940      1.0  0.96079  0.22061  0.51026  1.0000
  C   C941      1.0  0.97909  0.21416  0.52298  1.0000
  H   H1654     1.0  0.87238  0.05858  0.88154  1.0000
  C   C942      1.0  0.92282  0.43387  0.96251  1.0000
  H   H1655     1.0  0.67548  0.24595  0.74191  1.0000
  H   H1656     1.0  0.73445  0.20316  0.69518  1.0000
  H   H1657     1.0  0.88416  0.14772  0.81591  1.0000
  N   N53       1.0  0.84074  0.12299  0.67037  1.0000
  C   C943      1.0  0.85527  0.14148  0.68677  1.0000
  C   C944      1.0  0.82742  0.14977  0.66080  1.0000
  C   C945      1.0  0.83175  0.09912  0.69058  1.0000
  C   C946      1.0  0.84734  0.10142  0.64562  1.0000
  C   C947      1.0  0.86384  0.11502  0.63048  1.0000
  C   C948      1.0  0.86846  0.11740  0.70254  1.0000
  C   C949      1.0  0.81500  0.08021  0.67918  1.0000
  C   C950      1.0  0.83360  0.17640  0.63900  1.0000
  C   C951      1.0  0.81971  0.20460  0.63404  1.0000
  C   C952      1.0  0.86694  0.09468  0.60290  1.0000
  C   C953      1.0  0.88524  0.13678  0.71122  1.0000
  S   S216      1.0  0.86834  0.29468  0.96421  1.0000
  H   H1658     1.0  0.84962  0.15950  0.70305  1.0000
  H   H1659     1.0  0.86279  0.15874  0.67301  1.0000
  H   H1660     1.0  0.81587  0.13700  0.65043  1.0000
  H   H1661     1.0  0.82233  0.16457  0.67952  1.0000
  H   H1662     1.0  0.82809  0.11378  0.71013  1.0000
  H   H1663     1.0  0.84093  0.07825  0.69767  1.0000
  H   H1664     1.0  0.85078  0.07449  0.65230  1.0000
  H   H1665     1.0  0.83663  0.09787  0.62946  1.0000
  H   H1666     1.0  0.87574  0.11181  0.64408  1.0000
  H   H1667     1.0  0.86286  0.14295  0.62538  1.0000
  H   H1668     1.0  0.86249  0.10800  0.72220  1.0000
  H   H1669     1.0  0.87203  0.09422  0.68946  1.0000
  C   C954      1.0  0.67804  0.19462  0.75849  1.0000
  H   H1670     1.0  0.80388  0.09888  0.67735  1.0000
  H   H1671     1.0  0.84584  0.18965  0.64597  1.0000
  H   H1672     1.0  0.83575  0.16305  0.61831  1.0000
  H   H1673     1.0  0.82453  0.22336  0.61841  1.0000
  H   H1674     1.0  0.80729  0.19290  0.62571  1.0000
  H   H1675     1.0  0.81705  0.21926  0.65401  1.0000
  H   H1676     1.0  0.85573  0.09837  0.58785  1.0000
  H   H1677     1.0  0.87903  0.10433  0.59294  1.0000
  C   C955      1.0  0.69134  0.27477  0.69731  1.0000
  H   H1678     1.0  0.89427  0.11894  0.72270  1.0000
  H   H1679     1.0  0.89201  0.14641  0.69233  1.0000
  H   H1680     1.0  0.88208  0.15913  0.72548  1.0000
  H   H1681     1.0  0.76403  0.22186  0.71322  1.0000
  H   H1682     1.0  0.75697  0.24538  0.68232  1.0000
  H   H1683     1.0  0.79722  0.03896  0.69084  1.0000
  N   N54       1.0  0.85071  0.05426  0.85105  1.0000
  H   H1684     1.0  0.84293  0.17242  0.96707  1.0000
  C   C956      1.0  0.83384  0.07448  0.84662  1.0000
  C   C957      1.0  0.86398  0.06843  0.83091  1.0000
  C   C958      1.0  0.85774  0.05940  0.88098  1.0000
  C   C959      1.0  0.85197  0.03272  0.90321  1.0000
  H   H1685     1.0  0.92666  0.42759  0.53381  1.0000
  C   C960      1.0  0.86705  0.10843  0.83261  1.0000
  C   C961      1.0  0.81751  0.06195  0.86245  1.0000
  C   C962      1.0  0.80125  0.08329  0.85430  1.0000
  H   H1686     1.0  0.68196  0.16787  0.75169  1.0000
  C   C963      1.0  0.88258  0.11892  0.81472  1.0000
  H   H1687     1.0  0.85333  0.02497  0.94852  1.0000
  H   H1688     1.0  0.94972  0.42174  0.54211  1.0000
  H   H1689     1.0  0.83558  0.10225  0.85331  1.0000
  H   H1690     1.0  0.83031  0.07473  0.82365  1.0000
  H   H1691     1.0  0.86013  0.06163  0.80865  1.0000
  H   H1692     1.0  0.72311  0.27660  0.71663  1.0000
  H   H1693     1.0  0.93092  0.44072  0.94418  1.0000
  H   H1694     1.0  0.85438  0.08606  0.88905  1.0000
  H   H1695     1.0  0.68367  0.21394  0.61906  1.0000
  H   H1696     1.0  0.83766  0.02817  0.90267  1.0000
  H   H1697     1.0  0.65494  0.28898  0.50696  1.0000
  H   H1698     1.0  0.89599  0.43927  0.49854  1.0000
  H   H1699     1.0  0.86967  0.11749  0.85472  1.0000
  H   H1700     1.0  0.85540  0.12257  0.82423  1.0000
  H   H1701     1.0  0.81446  0.03426  0.85739  1.0000
  H   H1702     1.0  0.81951  0.06573  0.88555  1.0000
  H   H1703     1.0  0.80309  0.11122  0.86030  1.0000
  H   H1704     1.0  0.79846  0.08108  0.83120  1.0000
  H   H1705     1.0  0.78966  0.07348  0.86554  1.0000
  H   H1706     1.0  0.68488  0.34678  0.68979  1.0000
  H   H1707     1.0  0.94675  0.47920  0.97845  1.0000
  H   H1708     1.0  0.69505  0.43790  0.87149  1.0000
  H   H1709     1.0  0.69394  0.29168  0.71639  1.0000
  H   H1710     1.0  0.95764  0.24841  0.51421  1.0000
  C   C964      1.0  0.66719  0.44911  0.86691  1.0000
  C   C965      1.0  0.84761  0.01644  0.84304  1.0000
  C   C966      1.0  0.86431  0.99344  0.84035  1.0000
  C   C967      1.0  0.69927  0.22254  0.72499  1.0000
  C   C968      1.0  0.94404  0.46245  0.51156  1.0000
  N   N55       1.0  0.70287  0.24267  0.69859  1.0000
  H   H1711     1.0  0.68149  0.39972  0.86715  1.0000
  C   C969      1.0  0.68206  0.20700  0.66459  1.0000
  C   C970      1.0  0.98114  0.30383  0.55277  1.0000
  C   C971      1.0  0.70086  0.21978  0.67238  1.0000
  H   H1712     1.0  0.69039  0.17114  0.63095  1.0000
  H   H1713     1.0  0.67856  0.18516  0.67840  1.0000
  H   H1714     1.0  0.91262  0.45428  0.96559  1.0000
  H   H1715     1.0  0.70897  0.19580  0.67434  1.0000
  H   H1716     1.0  0.86506  0.38118  0.50683  1.0000
  C   C972      1.0  0.82566  0.20794  0.94596  1.0000
  C   C973      1.0  0.72172  0.25503  0.70050  1.0000
  H   H1717     1.0  0.66746  0.18302  0.62955  1.0000
  H   H1718     1.0  0.66552  0.44881  0.89011  1.0000
  C   C974      1.0  0.68334  0.42693  0.86019  1.0000
  H   H1719     1.0  0.66137  0.09425  0.51853  1.0000
  H   H1720     1.0  0.68586  0.42671  0.83714  1.0000
  C   C975      1.0  0.66804  0.48166  0.78787  1.0000
  H   H1721     1.0  0.84517  0.37849  0.54609  1.0000
  C   C976      1.0  0.85083  0.38225  0.50149  1.0000
  H   H1722     1.0  0.84057  0.01446  0.82230  1.0000
  H   H1723     1.0  0.87159  0.04883  0.93503  1.0000
  H   H1724     1.0  0.67015  0.47620  0.86077  1.0000
  H   H1725     1.0  0.95745  0.46065  0.50307  1.0000
  H   H1726     1.0  0.81375  0.19592  0.95469  1.0000
  H   H1727     1.0  0.84637  0.40974  0.50082  1.0000
  H   H1728     1.0  0.66411  0.19409  0.76492  1.0000
  H   H1729     1.0  0.66719  0.32089  0.67420  1.0000
  Fe  Fe108     1.0  0.65437  0.37261  0.77601  1.0000
  H   H1730     1.0  0.94425  0.40998  0.98447  1.0000
  H   H1731     1.0  0.83870  0.00381  0.85794  1.0000
  H   H1732     1.0  0.85845  0.00715  0.89931  1.0000
  C   C977      1.0  0.81042  0.99024  0.78712  1.0000
  H   H1733     1.0  0.65348  0.43457  0.82794  1.0000
  H   H1734     1.0  0.93624  0.26749  0.48589  1.0000
  Fe  Fe109     1.0  0.82738  0.85823  0.27786  1.0000
  S   S217      1.0  0.85320  0.82868  0.28079  1.0000
  S   S218      1.0  0.82264  0.91621  0.29149  1.0000
  Fe  Fe110     1.0  0.80667  0.79053  0.26436  1.0000
  S   S219      1.0  0.83144  0.75826  0.26591  1.0000
  S   S220      1.0  0.78223  0.75712  0.25415  1.0000
  Fe  Fe111     1.0  0.83878  0.78849  0.30585  1.0000
  S   S221      1.0  0.84639  0.75377  0.34406  1.0000
  Fe  Fe112     1.0  0.84390  0.79994  0.24068  1.0000
  S   S222      1.0  0.86428  0.78632  0.20628  1.0000
  S   S223      1.0  0.81346  0.81908  0.30500  1.0000
  S   S224      1.0  0.81875  0.83132  0.23675  1.0000
  Fe  Fe113     1.0  0.92520  0.68095  0.02917  1.0000
  H   H1735     1.0  0.84356  0.93453  0.34176  1.0000
  S   S225      1.0  0.95301  0.67991  0.04858  1.0000
  Fe  Fe114     1.0  0.88746  0.69461  0.04984  1.0000
  S   S226      1.0  0.87602  0.67326  0.00854  1.0000
  S   S227      1.0  0.86668  0.71440  0.08171  1.0000
  Fe  Fe115     1.0  0.89628  0.63028  0.01119  1.0000
  C   C978      1.0  0.95736  0.56502  0.04143  1.0000
  C   C979      1.0  0.87113  0.91451  0.31211  1.0000
  H   H1736     1.0  0.79958  0.81257  0.03771  1.0000
  S   S228      1.0  0.90612  0.64891  0.05379  1.0000
  S   S229      1.0  0.90706  0.72776  0.02767  1.0000
  Fe  Fe116     1.0  0.67871  0.71192  0.27902  1.0000
  H   H1737     1.0  0.79163  0.94327  0.25602  1.0000
  S   S230      1.0  0.70161  0.74895  0.29085  1.0000
  H   H1738     1.0  0.82419  0.81310  0.00128  1.0000
  S   S231      1.0  0.67503  0.67233  0.24347  1.0000
  S   S232      1.0  0.66866  0.67562  0.31195  1.0000
  H   H1739     1.0  0.85178  0.82267  0.02804  1.0000
  C   C980      1.0  0.65804  0.85220  0.34627  1.0000
  H   H1740     1.0  0.82322  0.85227  0.36639  1.0000
  C   C981      1.0  0.97388  0.68167  0.03240  1.0000
  H   H1741     1.0  0.93976  0.53485  0.01535  1.0000
  H   H1742     1.0  0.67929  0.73199  0.37349  1.0000
  H   H1743     1.0  0.85853  0.61058  0.04398  1.0000
  H   H1744     1.0  0.85296  0.75122  0.03002  1.0000
  C   C982      1.0  0.75974  0.75614  0.26419  1.0000
  C   C983      1.0  0.75242  0.78101  0.28260  1.0000
  C   C984      1.0  0.73464  0.77845  0.29034  1.0000
  C   C985      1.0  0.72387  0.75115  0.27974  1.0000
  C   C986      1.0  0.73120  0.72632  0.26133  1.0000
  C   C987      1.0  0.74898  0.72884  0.25365  1.0000
  H   H1745     1.0  0.76043  0.80226  0.29078  1.0000
  H   H1746     1.0  0.72915  0.79783  0.30457  1.0000
  H   H1747     1.0  0.72316  0.70518  0.25296  1.0000
  H   H1748     1.0  0.75443  0.70946  0.23935  1.0000
  C   C988      1.0  0.85768  0.75158  0.37785  1.0000
  C   C989      1.0  0.86462  0.78100  0.39211  1.0000
  C   C990      1.0  0.87312  0.77781  0.41888  1.0000
  C   C991      1.0  0.87510  0.74518  0.43190  1.0000
  C   C992      1.0  0.86816  0.71577  0.41765  1.0000
  C   C993      1.0  0.85950  0.71903  0.39101  1.0000
  H   H1749     1.0  0.86337  0.80622  0.38256  1.0000
  H   H1750     1.0  0.87826  0.80084  0.42963  1.0000
  H   H1751     1.0  0.86940  0.69049  0.42721  1.0000
  H   H1752     1.0  0.85429  0.69599  0.38037  1.0000
  C   C994      1.0  0.86642  0.73529  0.11608  1.0000
  C   C995      1.0  0.88176  0.74426  0.13127  1.0000
  C   C996      1.0  0.88079  0.75982  0.15863  1.0000
  C   C997      1.0  0.86452  0.76676  0.17140  1.0000
  C   C998      1.0  0.84918  0.75798  0.15610  1.0000
  C   C999      1.0  0.85015  0.74241  0.12874  1.0000
  H   H1753     1.0  0.89440  0.73928  0.12198  1.0000
  H   H1754     1.0  0.89278  0.76658  0.17004  1.0000
  H   H1755     1.0  0.83654  0.76316  0.16539  1.0000
  H   H1756     1.0  0.83814  0.73571  0.11735  1.0000
  H   H1757     1.0  0.66815  0.84525  0.33043  1.0000
  C   C1000     1.0  0.89333  0.53379  0.01386  1.0000
  C   C1001     1.0  0.90138  0.53150  0.04061  1.0000
  C   C1002     1.0  0.97586  0.69198  0.00445  1.0000
  H   H1758     1.0  0.90552  0.55502  0.05179  1.0000
  C   C1003     1.0  0.83932  0.96897  0.26149  1.0000
  C   C1004     1.0  0.82847  0.96039  0.28384  1.0000
  C   C1005     1.0  0.82118  0.77539  0.03360  1.0000
  H   H1759     1.0  0.84416  0.94851  0.24760  1.0000
  H   H1760     1.0  0.94597  0.56466  0.44152  1.0000
  H   H1761     1.0  0.80006  0.77878  0.06362  1.0000
  H   H1762     1.0  0.96919  0.51288  0.00364  1.0000
  H   H1763     1.0  0.96643  0.56231  0.05993  1.0000
  C   C1006     1.0  0.86249  0.59601  0.06314  1.0000
  H   H1764     1.0  0.68471  0.79990  0.34129  1.0000
  C   C1007     1.0  0.84611  0.88123  0.35408  1.0000
  H   H1765     1.0  0.68964  0.51498  0.29482  1.0000
  H   H1766     1.0  0.97425  0.50471  0.03975  1.0000
  C   C1008     1.0  0.86285  0.80408  0.02557  1.0000
  H   H1767     1.0  0.76896  0.93082  0.25811  1.0000
  S   S233      1.0  0.67185  0.57959  0.28290  1.0000
  H   H1768     1.0  0.77759  0.94372  0.22473  1.0000
  H   H1769     1.0  0.65540  0.49524  0.37633  1.0000
  H   H1770     1.0  0.94681  0.58379  0.04726  1.0000
  H   H1771     1.0  0.89761  0.87631  0.42615  1.0000
  C   C1009     1.0  0.85318  0.91915  0.35441  1.0000
  H   H1772     1.0  0.89821  0.91795  0.25330  1.0000
  H   H1773     1.0  0.84074  0.70251  0.01415  1.0000
  C   C1010     1.0  0.85664  0.76853  0.01263  1.0000
  H   H1774     1.0  0.86134  0.49894  0.45944  1.0000
  H   H1775     1.0  0.87710  0.82552  0.06209  1.0000
  H   H1776     1.0  0.87622  0.96784  0.37147  1.0000
  S   S234      1.0  0.88901  0.57446  0.99751  1.0000
  H   H1777     1.0  0.89107  0.96441  0.34334  1.0000
  N   N56       1.0  0.78697  0.69955  0.33845  1.0000
  C   C1011     1.0  0.79118  0.68363  0.30991  1.0000
  C   C1012     1.0  0.76902  0.68734  0.34665  1.0000
  C   C1013     1.0  0.78758  0.73879  0.33634  1.0000
  C   C1014     1.0  0.80021  0.68874  0.36076  1.0000
  C   C1015     1.0  0.80222  0.64891  0.36503  1.0000
  C   C1016     1.0  0.81057  0.68637  0.30097  1.0000
  C   C1017     1.0  0.77983  0.75987  0.36161  1.0000
  C   C1018     1.0  0.75367  0.69815  0.32659  1.0000
  C   C1019     1.0  0.73597  0.68706  0.33804  1.0000
  C   C1020     1.0  0.81816  0.64097  0.38398  1.0000
  C   C1021     1.0  0.81282  0.67396  0.27033  1.0000
  C   C1022     1.0  0.78277  0.79895  0.35857  1.0000
  H   H1778     1.0  0.78306  0.69613  0.29305  1.0000
  H   H1779     1.0  0.78745  0.65560  0.30867  1.0000
  H   H1780     1.0  0.76867  0.65837  0.34711  1.0000
  H   H1781     1.0  0.76601  0.69618  0.36859  1.0000
  H   H1782     1.0  0.78067  0.74759  0.31679  1.0000
  H   H1783     1.0  0.80137  0.74765  0.33399  1.0000
  H   H1784     1.0  0.81337  0.69993  0.35645  1.0000
  H   H1785     1.0  0.79673  0.69992  0.38175  1.0000
  H   H1786     1.0  0.80388  0.63438  0.34478  1.0000
  H   H1787     1.0  0.79044  0.63858  0.37544  1.0000
  H   H1788     1.0  0.81515  0.71360  0.30305  1.0000
  H   H1789     1.0  0.81927  0.67009  0.31441  1.0000
  H   H1790     1.0  0.78597  0.75226  0.38198  1.0000
  H   H1791     1.0  0.76546  0.75578  0.36285  1.0000
  H   H1792     1.0  0.75318  0.72670  0.32387  1.0000
  H   H1793     1.0  0.75508  0.68554  0.30542  1.0000
  H   H1794     1.0  0.73346  0.70037  0.35864  1.0000
  H   H1795     1.0  0.72531  0.69443  0.32291  1.0000
  H   H1796     1.0  0.73556  0.65836  0.34061  1.0000
  H   H1797     1.0  0.83043  0.64926  0.37376  1.0000
  H   H1798     1.0  0.81709  0.65467  0.40480  1.0000
  H   H1799     1.0  0.81901  0.61248  0.38756  1.0000
  H   H1800     1.0  0.80507  0.69067  0.25574  1.0000
  H   H1801     1.0  0.82686  0.67568  0.26467  1.0000
  H   H1802     1.0  0.80851  0.64647  0.26749  1.0000
  H   H1803     1.0  0.77729  0.80800  0.33804  1.0000
  H   H1804     1.0  0.77613  0.81349  0.37588  1.0000
  H   H1805     1.0  0.79701  0.80491  0.35998  1.0000
  H   H1806     1.0  0.85475  0.86364  0.36638  1.0000
  H   H1807     1.0  0.89801  0.90571  0.35117  1.0000
  H   H1808     1.0  0.86847  0.75569  0.00349  1.0000
  C   C1023     1.0  0.88796  0.92305  0.29571  1.0000
  H   H1809     1.0  0.66302  0.92463  0.34807  1.0000
  H   H1810     1.0  0.88222  0.87220  0.35097  1.0000
  H   H1811     1.0  0.93352  0.60377  0.44865  1.0000
  H   H1812     1.0  0.86884  0.88617  0.30890  1.0000
  H   H1813     1.0  0.84499  0.87076  0.33214  1.0000
  H   H1814     1.0  0.69766  0.74283  0.35209  1.0000
  H   H1815     1.0  0.89343  0.84780  0.39609  1.0000
  H   H1816     1.0  0.85224  0.93015  0.37628  1.0000
  H   H1817     1.0  0.96434  0.69740  0.99150  1.0000
  H   H1818     1.0  0.65487  0.77437  0.37900  1.0000
  H   H1819     1.0  0.89060  0.95147  0.29616  1.0000
  H   H1820     1.0  0.85986  0.92719  0.30119  1.0000
  H   H1821     1.0  0.98474  0.77497  0.00622  1.0000
  H   H1822     1.0  0.86226  0.79087  0.07011  1.0000
  H   H1823     1.0  0.81839  0.89557  0.35434  1.0000
  C   C1024     1.0  0.66463  0.53499  0.28035  1.0000
  H   H1824     1.0  0.89955  0.90937  0.30475  1.0000
  H   H1825     1.0  0.87246  0.81596  0.01126  1.0000
  C   C1025     1.0  0.83259  0.70618  0.99478  1.0000
  H   H1826     1.0  0.88916  0.92774  0.39840  1.0000
  H   H1827     1.0  0.66591  0.56324  0.36222  1.0000
  C   C1026     1.0  0.96349  0.50310  0.02351  1.0000
  H   H1828     1.0  0.87173  0.89632  0.39942  1.0000
  C   C1027     1.0  0.96294  0.78023  0.03380  1.0000
  N   N57       1.0  0.87144  0.92366  0.34327  1.0000
  H   H1829     1.0  0.89600  0.49609  0.47394  1.0000
  H   H1830     1.0  0.66499  0.51115  0.17971  1.0000
  H   H1831     1.0  0.83925  0.80414  0.46069  1.0000
  H   H1832     1.0  0.82336  0.74754  0.03822  1.0000
  H   H1833     1.0  0.87486  0.92520  0.25434  1.0000
  C   C1028     1.0  0.77814  0.94889  0.24792  1.0000
  C   C1029     1.0  0.93523  0.57601  0.45435  1.0000
  H   H1834     1.0  0.90982  0.49723  0.07396  1.0000
  C   C1030     1.0  0.87182  0.80001  0.05448  1.0000
  C   C1031     1.0  0.88607  0.91153  0.26468  1.0000
  H   H1835     1.0  0.96464  0.57597  0.02354  1.0000
  H   H1836     1.0  0.87543  0.58367  0.05918  1.0000
  H   H1837     1.0  0.69393  0.76713  0.38441  1.0000
  H   H1838     1.0  0.88284  0.78109  0.05319  1.0000
  C   C1032     1.0  0.66173  0.79610  0.36885  1.0000
  H   H1839     1.0  0.90141  0.56595  0.20099  1.0000
  C   C1033     1.0  0.66214  0.59043  0.36790  1.0000
  H   H1840     1.0  0.91108  0.87925  0.39539  1.0000
  C   C1034     1.0  0.89753  0.87459  0.40269  1.0000
  C   C1035     1.0  0.88818  0.50279  0.99961  1.0000
  H   H1841     1.0  0.83627  0.69559  0.20100  1.0000
  C   C1036     1.0  0.88480  0.90165  0.39061  1.0000
  H   H1842     1.0  0.88393  0.88292  0.26279  1.0000
  C   C1037     1.0  0.82786  0.87969  0.36682  1.0000
  C   C1038     1.0  0.87701  0.96095  0.34858  1.0000
  H   H1843     1.0  0.66189  0.49332  0.21416  1.0000
  C   C1039     1.0  0.94925  0.52984  0.03295  1.0000
  C   C1040     1.0  0.68737  0.75388  0.36601  1.0000
  C   C1041     1.0  0.90384  0.49866  0.05310  1.0000
  H   H1844     1.0  0.67511  0.64097  0.36799  1.0000
  H   H1845     1.0  0.95990  0.77930  0.05663  1.0000
  C   C1042     1.0  0.67594  0.77962  0.34951  1.0000
  C   C1043     1.0  0.77299  0.98664  0.25482  1.0000
  H   H1846     1.0  0.81395  0.98168  0.31888  1.0000
  N   N58       1.0  0.87207  0.62364  0.14235  1.0000
  C   C1044     1.0  0.86919  0.60153  0.11584  1.0000
  C   C1045     1.0  0.87611  0.60068  0.16737  1.0000
  C   C1046     1.0  0.85517  0.64314  0.14806  1.0000
  C   C1047     1.0  0.88634  0.65028  0.13896  1.0000
  C   C1048     1.0  0.90484  0.63614  0.13223  1.0000
  C   C1049     1.0  0.86369  0.62104  0.08866  1.0000
  C   C1050     1.0  0.85465  0.66498  0.17614  1.0000
  C   C1051     1.0  0.88615  0.56597  0.16149  1.0000
  H   H1847     1.0  0.68945  0.60449  0.37469  1.0000
  C   C1052     1.0  0.91758  0.66609  0.12741  1.0000
  C   C1053     1.0  0.89201  0.54889  0.18903  1.0000
  C   C1054     1.0  0.83603  0.67773  0.18218  1.0000
  H   H1848     1.0  0.85885  0.58175  0.11952  1.0000
  H   H1849     1.0  0.88115  0.58640  0.11047  1.0000
  H   H1850     1.0  0.88355  0.61567  0.18408  1.0000
  H   H1851     1.0  0.86372  0.59251  0.17750  1.0000
  H   H1852     1.0  0.84395  0.62454  0.14783  1.0000
  H   H1853     1.0  0.85225  0.66209  0.13108  1.0000
  H   H1854     1.0  0.88253  0.66905  0.12241  1.0000
  H   H1855     1.0  0.88797  0.66647  0.15860  1.0000
  H   H1856     1.0  0.90466  0.61925  0.11295  1.0000
  H   H1857     1.0  0.91020  0.62134  0.15035  1.0000
  H   H1858     1.0  0.85062  0.63356  0.09079  1.0000
  H   H1859     1.0  0.87344  0.64114  0.08376  1.0000
  H   H1860     1.0  0.86310  0.68836  0.17469  1.0000
  H   H1861     1.0  0.85921  0.64997  0.19466  1.0000
  H   H1862     1.0  0.87741  0.54722  0.14985  1.0000
  H   H1863     1.0  0.89793  0.56968  0.14861  1.0000
  H   H1864     1.0  0.66556  0.86374  0.36452  1.0000
  C   C1055     1.0  0.67645  0.50817  0.28789  1.0000
  C   C1056     1.0  0.65681  0.49319  0.19196  1.0000
  H   H1865     1.0  0.91919  0.68248  0.14692  1.0000
  H   H1866     1.0  0.93062  0.65543  0.12155  1.0000
  H   H1867     1.0  0.91276  0.68281  0.10999  1.0000
  C   C1057     1.0  0.88443  0.89985  0.35780  1.0000
  H   H1868     1.0  0.85262  0.57536  0.06653  1.0000
  H   H1869     1.0  0.95586  0.75842  0.02281  1.0000
  H   H1870     1.0  0.83050  0.69223  0.16396  1.0000
  H   H1871     1.0  0.82734  0.65539  0.18654  1.0000
  Fe  Fe117     1.0  0.66316  0.63705  0.27590  1.0000
  S   S235      1.0  0.88555  0.74322  0.46638  1.0000
  H   H1872     1.0  0.68131  0.61138  0.33935  1.0000
  H   H1873     1.0  0.88052  0.54365  0.20239  1.0000
  C   C1058     1.0  0.80225  0.78445  0.04103  1.0000
  H   H1874     1.0  0.82987  0.79067  0.04825  1.0000
  C   C1059     1.0  0.98267  0.77611  0.02939  1.0000
  H   H1875     1.0  0.82823  0.88935  0.38911  1.0000
  C   C1060     1.0  0.67791  0.61337  0.36204  1.0000
  C   C1061     1.0  0.82501  0.78414  0.00234  1.0000
  H   H1876     1.0  0.79291  0.76856  0.02789  1.0000
  H   H1877     1.0  0.95808  0.80518  0.02500  1.0000
  H   H1878     1.0  0.92277  0.56210  0.44922  1.0000
  H   H1879     1.0  0.66007  0.59153  0.39094  1.0000
  H   H1880     1.0  0.94193  0.52026  0.05126  1.0000
  H   H1881     1.0  0.66887  0.90728  0.31357  1.0000
  H   H1882     1.0  0.67005  0.76503  0.33122  1.0000
  Fe  Fe118     1.0  0.89637  0.70418  0.98640  1.0000
  H   H1883     1.0  0.84589  0.75947  0.46499  1.0000
  H   H1884     1.0  0.66900  0.81010  0.38624  1.0000
  C   C1062     1.0  0.65777  0.91368  0.32770  1.0000
  C   C1063     1.0  0.83695  0.78023  0.47290  1.0000
  C   C1064     1.0  0.82228  0.98777  0.30142  1.0000
  H   H1885     1.0  0.86538  0.98375  0.30972  1.0000
  H   H1886     1.0  0.89866  0.52369  0.18417  1.0000
  H   H1887     1.0  0.82317  0.77174  0.46911  1.0000
  H   H1888     1.0  0.81892  0.71233  0.00088  1.0000
  H   H1889     1.0  0.81380  0.77456  0.98889  1.0000
  H   H1890     1.0  0.95007  0.52120  0.47884  1.0000
  N   N59       1.0  0.84216  0.77087  0.99048  1.0000
  H   H1891     1.0  0.82745  0.65053  0.99234  1.0000
  S   S236      1.0  0.91620  0.65998  0.98652  1.0000
  Fe  Fe119     1.0  0.82075  0.86039  0.77529  1.0000
  S   S237      1.0  0.84687  0.83197  0.77711  1.0000
  S   S238      1.0  0.81472  0.91841  0.78678  1.0000
  Fe  Fe120     1.0  0.80032  0.79266  0.75993  1.0000
  S   S239      1.0  0.82521  0.76065  0.76047  1.0000
  S   S240      1.0  0.77545  0.76288  0.74491  1.0000
  Fe  Fe121     1.0  0.83286  0.78994  0.80078  1.0000
  S   S241      1.0  0.84230  0.75342  0.83664  1.0000
  Fe  Fe122     1.0  0.83764  0.80371  0.73671  1.0000
  S   S242      1.0  0.85641  0.79683  0.69892  1.0000
  S   S243      1.0  0.80714  0.81961  0.80142  1.0000
  S   S244      1.0  0.81238  0.83468  0.73373  1.0000
  Fe  Fe123     1.0  0.92751  0.66911  0.52907  1.0000
  H   H1892     1.0  0.74102  0.69151  0.78990  1.0000
  S   S245      1.0  0.95645  0.65721  0.54092  1.0000
  Fe  Fe124     1.0  0.89166  0.67860  0.55934  1.0000
  S   S246      1.0  0.87630  0.66481  0.51908  1.0000
  S   S247      1.0  0.87704  0.68398  0.60187  1.0000
  Fe  Fe125     1.0  0.89638  0.62209  0.51197  1.0000
  H   H1893     1.0  0.92791  0.49498  0.53835  1.0000
  H   H1894     1.0  0.94399  0.57711  0.61710  1.0000
  H   H1895     1.0  0.71217  0.60444  0.72069  1.0000
  S   S248      1.0  0.91019  0.63312  0.55325  1.0000
  S   S249      1.0  0.90975  0.71560  0.53766  1.0000
  Fe  Fe126     1.0  0.67202  0.71703  0.78136  1.0000
  S   S250      1.0  0.89043  0.74230  0.94997  1.0000
  S   S251      1.0  0.69662  0.75081  0.78900  1.0000
  C   C1065     1.0  0.71485  0.64756  0.78686  1.0000
  S   S252      1.0  0.66763  0.67377  0.74941  1.0000
  H   H1896     1.0  0.70640  0.69800  0.88467  1.0000
  H   H1897     1.0  0.70006  0.64270  0.73117  1.0000
  H   H1898     1.0  0.68392  0.80155  0.66068  1.0000
  N   N60       1.0  0.72795  0.64981  0.81124  1.0000
  C   C1066     1.0  0.70411  0.66115  0.84897  1.0000
  H   H1899     1.0  0.72944  0.60563  0.76451  1.0000
  H   H1900     1.0  0.72059  0.78371  0.70748  1.0000
  C   C1067     1.0  0.83636  0.79838  0.94128  1.0000
  C   C1068     1.0  0.71575  0.81079  0.70478  1.0000
  C   C1069     1.0  0.75363  0.75980  0.75768  1.0000
  C   C1070     1.0  0.74794  0.77888  0.78131  1.0000
  C   C1071     1.0  0.73048  0.77568  0.79044  1.0000
  C   C1072     1.0  0.71850  0.75316  0.77635  1.0000
  C   C1073     1.0  0.72421  0.73388  0.75279  1.0000
  C   C1074     1.0  0.74164  0.73730  0.74352  1.0000
  H   H1901     1.0  0.75695  0.79633  0.79243  1.0000
  H   H1902     1.0  0.72625  0.79083  0.80863  1.0000
  H   H1903     1.0  0.71529  0.71626  0.74173  1.0000
  H   H1904     1.0  0.74589  0.72234  0.72525  1.0000
  C   C1075     1.0  0.85578  0.75108  0.86814  1.0000
  C   C1076     1.0  0.86703  0.77804  0.87714  1.0000
  C   C1077     1.0  0.87759  0.77458  0.90192  1.0000
  C   C1078     1.0  0.87709  0.74427  0.91828  1.0000
  C   C1079     1.0  0.86585  0.71728  0.90926  1.0000
  C   C1080     1.0  0.85535  0.72066  0.88439  1.0000
  H   H1905     1.0  0.86764  0.80157  0.86500  1.0000
  H   H1906     1.0  0.88620  0.79569  0.90854  1.0000
  H   H1907     1.0  0.86528  0.69370  0.92136  1.0000
  H   H1908     1.0  0.84682  0.69947  0.87769  1.0000
  C   C1081     1.0  0.87168  0.71577  0.62882  1.0000
  C   C1082     1.0  0.85858  0.70798  0.64837  1.0000
  C   C1083     1.0  0.85359  0.73233  0.66969  1.0000
  C   C1084     1.0  0.86181  0.76489  0.67213  1.0000
  C   C1085     1.0  0.87496  0.77261  0.65265  1.0000
  C   C1086     1.0  0.87983  0.74838  0.63116  1.0000
  H   H1909     1.0  0.85212  0.68294  0.64688  1.0000
  H   H1910     1.0  0.84332  0.72594  0.68412  1.0000
  H   H1911     1.0  0.88151  0.79756  0.65426  1.0000
  H   H1912     1.0  0.89009  0.75473  0.61671  1.0000
  C   C1087     1.0  0.89067  0.52641  0.54115  1.0000
  C   C1088     1.0  0.89253  0.52732  0.51185  1.0000
  H   H1913     1.0  0.74263  0.82937  0.70649  1.0000
  H   H1914     1.0  0.88907  0.55051  0.55315  1.0000
  H   H1915     1.0  0.71420  0.81535  0.68180  1.0000
  C   C1089     1.0  0.83623  0.96934  0.76330  1.0000
  C   C1090     1.0  0.82093  0.96194  0.77797  1.0000
  H   H1916     1.0  0.67076  0.85457  0.74290  1.0000
  H   H1917     1.0  0.84452  0.94809  0.75617  1.0000
  C   C1091     1.0  0.67112  0.86785  0.64850  1.0000
  C   C1092     1.0  0.67246  0.51696  0.79375  1.0000
  H   H1918     1.0  0.69716  0.60213  0.74953  1.0000
  H   H1919     1.0  0.78118  0.66382  0.79538  1.0000
  H   H1920     1.0  0.85365  0.94698  0.85958  1.0000
  C   C1093     1.0  0.93969  0.57363  0.48590  1.0000
  C   C1094     1.0  0.69664  0.69005  0.86804  1.0000
  H   H1921     1.0  0.79853  0.98502  0.79841  1.0000
  C   C1095     1.0  0.94753  0.55148  0.57625  1.0000
  H   H1922     1.0  0.87425  0.76613  0.53093  1.0000
  C   C1096     1.0  0.93952  0.58022  0.59481  1.0000
  H   H1923     1.0  0.97707  0.56456  0.49419  1.0000
  H   H1924     1.0  0.84513  0.66411  0.97045  1.0000
  H   H1925     1.0  0.77380  0.70874  0.79502  1.0000
  H   H1926     1.0  0.69458  0.85933  0.67315  1.0000
  H   H1927     1.0  0.75060  0.64971  0.78413  1.0000
  C   C1097     1.0  0.98092  0.69277  0.50879  1.0000
  H   H1928     1.0  0.92721  0.55571  0.54364  1.0000
  C   C1098     1.0  0.83195  0.67143  0.97832  1.0000
  H   H1929     1.0  0.82267  0.67307  0.95999  1.0000
  H   H1930     1.0  0.82198  0.64233  0.57129  1.0000
  H   H1931     1.0  0.85360  0.79974  0.50662  1.0000
  H   H1932     1.0  0.84513  0.65017  0.56767  1.0000
  C   C1099     1.0  0.84051  0.83093  0.92459  1.0000
  H   H1933     1.0  0.82700  0.68921  0.53745  1.0000
  H   H1934     1.0  0.97356  0.51831  0.54610  1.0000
  C   C1100     1.0  0.94186  0.55550  0.54481  1.0000
  H   H1935     1.0  0.92496  0.57867  0.59397  1.0000
  H   H1936     1.0  0.94368  0.60634  0.58778  1.0000
  H   H1937     1.0  0.85064  0.73646  0.51420  1.0000
  H   H1938     1.0  0.66258  0.73154  0.70732  1.0000
  H   H1939     1.0  0.96992  0.70671  0.49955  1.0000
  C   C1101     1.0  0.68675  0.76085  0.70130  1.0000
  C   C1102     1.0  0.67156  0.73735  0.68989  1.0000
  C   C1103     1.0  0.67843  0.70249  0.67830  1.0000
  H   H1940     1.0  0.69177  0.74906  0.72124  1.0000
  H   H1941     1.0  0.69748  0.75817  0.68579  1.0000
  H   H1942     1.0  0.66386  0.74994  0.67275  1.0000
  C   C1104     1.0  0.83263  0.66154  0.57544  1.0000
  H   H1943     1.0  0.66716  0.68542  0.67227  1.0000
  H   H1944     1.0  0.94311  0.52625  0.58458  1.0000
  H   H1945     1.0  0.68656  0.68910  0.69454  1.0000
  N   N61       1.0  0.84008  0.75803  0.55321  1.0000
  H   H1946     1.0  0.68639  0.70652  0.65924  1.0000
  C   C1105     1.0  0.84304  0.72280  0.56596  1.0000
  C   C1106     1.0  0.82285  0.77371  0.56243  1.0000
  C   C1107     1.0  0.85471  0.78198  0.56310  1.0000
  C   C1108     1.0  0.87345  0.77128  0.55400  1.0000
  C   C1109     1.0  0.66116  0.54449  0.78584  1.0000
  C   C1110     1.0  0.81977  0.77511  0.59484  1.0000
  H   H1947     1.0  0.69293  0.71317  0.85542  1.0000
  H   H1948     1.0  0.95146  0.58962  0.49043  1.0000
  C   C1111     1.0  0.88668  0.79990  0.56188  1.0000
  H   H1949     1.0  0.88659  0.80577  0.58497  1.0000
  C   C1112     1.0  0.80187  0.79111  0.60142  1.0000
  C   C1113     1.0  0.85971  0.95466  0.83949  1.0000
  H   H1950     1.0  0.88191  0.50421  0.97894  1.0000
  H   H1951     1.0  0.83049  0.73678  0.95811  1.0000
  H   H1952     1.0  0.84535  0.72545  0.58916  1.0000
  H   H1953     1.0  0.81160  0.75966  0.55211  1.0000
  H   H1954     1.0  0.82163  0.80099  0.55513  1.0000
  H   H1955     1.0  0.85208  0.80911  0.55619  1.0000
  H   H1956     1.0  0.85534  0.78360  0.58661  1.0000
  Fe  Fe127     1.0  0.89506  0.69986  0.49681  1.0000
  H   H1957     1.0  0.87767  0.74734  0.56503  1.0000
  Fe  Fe128     1.0  0.65595  0.64335  0.78476  1.0000
  S   S253      1.0  0.66738  0.58862  0.79451  1.0000
  H   H1958     1.0  0.82985  0.79127  0.60605  1.0000
  H   H1959     1.0  0.82008  0.74873  0.60399  1.0000
  C   C1114     1.0  0.97842  0.56037  0.51726  1.0000
  H   H1960     1.0  0.73591  0.54261  0.82986  1.0000
  H   H1961     1.0  0.68479  0.52299  0.80440  1.0000
  H   H1962     1.0  0.85524  0.71082  0.55764  1.0000
  C   C1115     1.0  0.77605  0.68573  0.80856  1.0000
  H   H1963     1.0  0.88358  0.82403  0.55019  1.0000
  N   N62       1.0  0.94884  0.52833  0.52432  1.0000
  H   H1964     1.0  0.90009  0.79115  0.55619  1.0000
  H   H1965     1.0  0.65666  0.86478  0.64990  1.0000
  H   H1966     1.0  0.79116  0.77515  0.59159  1.0000
  H   H1967     1.0  0.80005  0.79198  0.62468  1.0000
  H   H1968     1.0  0.80095  0.81817  0.59357  1.0000
  N   N63       1.0  0.88111  0.71747  0.77395  1.0000
  C   C1116     1.0  0.87794  0.75341  0.76247  1.0000
  C   C1117     1.0  0.86398  0.69771  0.77348  1.0000
  C   C1118     1.0  0.88694  0.72212  0.80456  1.0000
  C   C1119     1.0  0.89504  0.69732  0.75802  1.0000
  C   C1120     1.0  0.89693  0.70529  0.72605  1.0000
  C   C1121     1.0  0.89364  0.77899  0.76627  1.0000
  C   C1122     1.0  0.88841  0.68842  0.82204  1.0000
  C   C1123     1.0  0.85546  0.68999  0.74408  1.0000
  C   C1124     1.0  0.83817  0.67030  0.74673  1.0000
  C   C1125     1.0  0.90826  0.67791  0.71112  1.0000
  C   C1126     1.0  0.89285  0.80844  0.74505  1.0000
  C   C1127     1.0  0.89869  0.69487  0.84973  1.0000
  H   H1969     1.0  0.86652  0.76586  0.77308  1.0000
  H   H1970     1.0  0.87394  0.75225  0.73984  1.0000
  H   H1971     1.0  0.86574  0.67174  0.78313  1.0000
  H   H1972     1.0  0.85417  0.71191  0.78666  1.0000
  H   H1973     1.0  0.87780  0.74006  0.81596  1.0000
  H   H1974     1.0  0.90001  0.73496  0.80603  1.0000
  H   H1975     1.0  0.90829  0.70191  0.76777  1.0000
  H   H1976     1.0  0.89288  0.66877  0.76000  1.0000
  H   H1977     1.0  0.90332  0.73095  0.72350  1.0000
  H   H1978     1.0  0.88418  0.70642  0.71450  1.0000
  H   H1979     1.0  0.89347  0.79093  0.78789  1.0000
  H   H1980     1.0  0.90641  0.76537  0.76388  1.0000
  H   H1981     1.0  0.89506  0.66721  0.81002  1.0000
  H   H1982     1.0  0.87509  0.67950  0.82773  1.0000
  H   H1983     1.0  0.85266  0.71438  0.73267  1.0000
  H   H1984     1.0  0.86411  0.67292  0.73125  1.0000
  H   H1985     1.0  0.83190  0.66674  0.72547  1.0000
  H   H1986     1.0  0.84057  0.64420  0.75580  1.0000
  H   H1987     1.0  0.82892  0.68495  0.76044  1.0000
  H   H1988     1.0  0.92154  0.67668  0.72119  1.0000
  H   H1989     1.0  0.90199  0.65185  0.71177  1.0000
  H   H1990     1.0  0.90968  0.68487  0.68859  1.0000
  H   H1991     1.0  0.89380  0.79781  0.72311  1.0000
  H   H1992     1.0  0.88041  0.82335  0.74700  1.0000
  H   H1993     1.0  0.90396  0.82660  0.74912  1.0000
  H   H1994     1.0  0.89271  0.71659  0.86213  1.0000
  H   H1995     1.0  0.89847  0.67107  0.86270  1.0000
  H   H1996     1.0  0.91257  0.70137  0.84549  1.0000
  H   H1997     1.0  0.74396  0.60280  0.81135  1.0000
  H   H1998     1.0  0.78615  0.69277  0.82491  1.0000
  H   H1999     1.0  0.87180  0.93886  0.83643  1.0000
  C   C1128     1.0  0.72998  0.83503  0.71698  1.0000
  H   H2000     1.0  0.72642  0.86273  0.71348  1.0000
  S   S254      1.0  0.66182  0.68600  0.81746  1.0000
  H   H2001     1.0  0.96200  0.55338  0.57879  1.0000
  H   H2002     1.0  0.70748  0.63886  0.86268  1.0000
  C   C1129     1.0  0.96865  0.52674  0.52502  1.0000
  H   H2003     1.0  0.70552  0.59561  0.83035  1.0000
  H   H2004     1.0  0.71033  0.67413  0.78095  1.0000
  C   C1130     1.0  0.72366  0.55408  0.83845  1.0000
  H   H2005     1.0  0.73046  0.67798  0.85137  1.0000
  H   H2006     1.0  0.83866  0.77548  0.92703  1.0000
  H   H2007     1.0  0.85469  0.83179  0.91967  1.0000
  H   H2008     1.0  0.83288  0.83045  0.90433  1.0000
  H   H2009     1.0  0.70263  0.63426  0.79295  1.0000
  H   H2010     1.0  0.70026  0.80589  0.74207  1.0000
  C   C1131     1.0  0.89450  0.49564  0.49661  1.0000
  H   H2011     1.0  0.76188  0.65275  0.83640  1.0000
  H   H2012     1.0  0.73190  0.83082  0.74001  1.0000
  N   N64       1.0  0.68229  0.79887  0.70641  1.0000
  C   C1132     1.0  0.69814  0.81604  0.72032  1.0000
  C   C1133     1.0  0.72069  0.67371  0.83395  1.0000
  C   C1134     1.0  0.67697  0.81472  0.67849  1.0000
  C   C1135     1.0  0.83985  0.73546  0.97634  1.0000
  H   H2013     1.0  0.94574  0.58219  0.53898  1.0000
  C   C1136     1.0  0.84819  0.79576  0.96828  1.0000
  H   H2014     1.0  0.83692  0.85485  0.93681  1.0000
  C   C1137     1.0  0.71809  0.58611  0.82177  1.0000
  H   H2015     1.0  0.69605  0.84442  0.72358  1.0000
  C   C1138     1.0  0.97789  0.66746  0.52900  1.0000
  H   H2016     1.0  0.83053  0.80693  0.51158  1.0000
  H   H2017     1.0  0.85258  0.72641  0.96746  1.0000
  C   C1139     1.0  0.75903  0.67536  0.82278  1.0000
  H   H2018     1.0  0.65345  0.84854  0.71641  1.0000
  C   C1140     1.0  0.83967  0.75359  0.52143  1.0000
  H   H2019     1.0  0.67575  0.85349  0.62940  1.0000
  C   C1141     1.0  0.74439  0.66669  0.80048  1.0000
  H   H2020     1.0  0.71789  0.69995  0.82506  1.0000
  H   H2021     1.0  0.71538  0.57722  0.79965  1.0000
  H   H2022     1.0  0.97341  0.58353  0.52892  1.0000
  S   S255      1.0  0.89193  0.56710  0.49326  1.0000
  H   H2023     1.0  0.92873  0.58589  0.49765  1.0000
  C   C1142     1.0  0.70680  0.61907  0.73910  1.0000
  H   H2024     1.0  0.75511  0.69798  0.83630  1.0000
  C   C1143     1.0  0.94213  0.49321  0.53330  1.0000
  C   C1144     1.0  0.68034  0.85432  0.67512  1.0000
  H   H2025     1.0  0.68469  0.68050  0.87847  1.0000
  C   C1145     1.0  0.66736  0.80034  0.72692  1.0000
  H   H2026     1.0  0.67138  0.78710  0.74681  1.0000
  H   H2027     1.0  0.73040  0.64746  0.74826  1.0000
  H   H2028     1.0  0.69367  0.65302  0.83373  1.0000
  H   H2029     1.0  0.73743  0.61744  0.84522  1.0000
  C   C1146     1.0  0.82835  0.69550  0.56038  1.0000
  C   C1147     1.0  0.73268  0.61447  0.82288  1.0000
  C   C1148     1.0  0.72173  0.62938  0.75955  1.0000
  H   H2030     1.0  0.85042  0.94867  0.82164  1.0000
  H   H2031     1.0  0.66276  0.80981  0.67394  1.0000
  H   H2032     1.0  0.67572  0.87014  0.69331  1.0000
  H   H2033     1.0  0.71316  0.53407  0.83675  1.0000
  H   H2034     1.0  0.83390  0.66626  0.59865  1.0000
  H   H2035     1.0  0.81551  0.70495  0.56814  1.0000
  C   C1149     1.0  0.66021  0.83694  0.73498  1.0000
  S   S256      1.0  0.91425  0.65633  0.48715  1.0000
  H   H2036     1.0  0.65577  0.78589  0.71829  1.0000
  H   H2037     1.0  0.67403  0.89598  0.64616  1.0000
  H   H2038     1.0  0.84939  0.82262  0.97741  1.0000
  H   H2039     1.0  0.72576  0.56112  0.86115  1.0000
  H   H2040     1.0  0.97342  0.50634  0.51004  1.0000
  C   C1150     1.0  0.89018  0.49416  0.55488  1.0000
  C   C1151     1.0  0.94186  0.53504  0.49476  1.0000
  H   H2041     1.0  0.82753  0.73961  0.51438  1.0000
  H   H2042     1.0  0.88822  0.49374  0.57747  1.0000
  H   H2043     1.0  0.66315  0.84113  0.92409  1.0000
  C   C1152     1.0  0.84042  0.78765  0.50438  1.0000
  H   H2044     1.0  0.82224  0.79926  0.94653  1.0000
  H   H2045     1.0  0.86162  0.78864  0.96124  1.0000
  H   H2046     1.0  0.92842  0.52405  0.49200  1.0000
  H   H2047     1.0  0.65504  0.80722  0.90032  1.0000
  H   H2048     1.0  0.98379  0.76130  0.56095  1.0000
