data_image0
_chemical_formula_structural       FeHSHC2FeSCFeS2FeSFeS3FeSHFeS2FeHFeHS2HSH2SCHCHC6H4C2HCH2CHCHC6H5C3H3C4H3NH2CHC2HC2HC2HC2H3SHCH2NH2C2HCHCH6CHC3H7SH7CHFeHCH6NC8H2CH17CSH9CH12CH2CSH4CHC2H9CH5C2H2NHC3H2CNC7SC3H3CH4CSH3C3HC3HCH2CFeH6CH3SH2CSH2C4H9CH2C2H4CHCH3C2HC2H2SHFeSHFeHSH2SHC3H3C6H4C6H4CHFeS2FeS2FeSFeCS2FeSCFeS2FeHFeS2H2C2HCH2CFeHC2H2CSNC3H2CHCH4CH4CHSCHCSHCH2C5H4SHCH5CH2NC10HCH19CH4NC2H4SC3H7C4H3C2HSCH3CH2C2FeH8CH3SHCH2CH3CHNC4HCFeC2FeCH3CH3CH5C2H2SH3CH6CH3SH8CHC2H3NHCH3CHCHFe2SHFeS2FeSFeS3FeS2FeS2FeSFeS3HNC3HCH3CHC4H4C6H7C2HC4H2C3HC2HCH3C3H3CH2C2HCH7CH4CH2C2H7CH2CH2C2H6CH3NC10HCH14CH2C3HC3H4NHCH6CHCH5C3H4CH3NHC2H2CHCH11CH2CH2CH8CHCH5CH2CNC2H5C3H4C4H2C3SNC2H2CH8CSCHC3H4CH2CNH2CH3CHCH3C3H6SH7CHFeCSH2SFeSHFeS2FeSFeS3HSHFeSCFeHFeHC3SHFeSCH3C6H3C3HCH2SH3C6H4C4H3C4H2CH2SC6H10CH9C2HCNHC3HCH4CH6CH4C3HSH5C2H2CH8NH4CHC2H3CH2CH4CH2C3HCH4CH2C2H4NCH6CHNH3CHC2HCHCSHCHCH2CH3CH2C2H2CH3SH2C2HCH4CH2SHFeSCFeCS2HSH2C2H3C6H4C6H6FeS2FeS2FeSFeHS2CS2FeSHFe3S2H2C2HCH2FeCHC3H2CNC6HC2H12CH6SNHCH2CHSC2H2SCH2SHC3H6CHCH3C3HCH2CH4C3FeSCH4CHCH3CHCH2CH4CFeCH2CH6CH2CH3NH4CH3CH4NC6HC3H23CH2SCH4SCH2C3HCSHSH3CH7CHCH4CH2FeSHFeS2FeSFeS3FeS2FeS2FeSFeS3H2C2H4NH3C4HCH4C4H7C6H3C6H5C3H2CH2CHC2H2CH4NC3H5CH2C2H2C2H4C2H3NHCH3C3H2CH4NH2C3HSCHCH2C2H4CH3CHC3HC4HCH2NHCH2CH4CHCH2C3H3CH13NH2C2HCH8C2H9CH3C2H2C2H5C3H2CHCH2CHC2H7CHC4HCH5S2H3CH2CH6CFeS2FeS2FeHFeHS2CSHC2SCSFeSCH3CH2SH3CHCHCH3C5H3C2SC3H3CHCH3SCHC6H4CHCH4CHFeCH3CSNC6FeC3H6CH9FeH8CHC3H7NC2HCH2CH2SHCSH2FeC2H3C2H3CHSHCH3CHCHFeCH2CH4CHC3HCHC2H3C2H2CHNC12H30CHCSCH3SHCH8CH2CSH4C2HCFeH4NHC2H4NH2C4H5CHCH3CFeS2FeS2FeCSFeNSCHC2HCHCH2CH3C2HCHCH4C3HCH3CFeS2FeCSFeS2H2SHCHC2SH5SHCH5CH2C7H2NC5HC2HCHCH3C2H4C2H6CH2CHC3H5CHC2H5C2H2SH5C2H3NH2C2HCH4C2H8CHSH3CH3CH2C3NCHCHCHCHCFeHNH7CHCH3CHCH15C2SC2H4NC6HCH2C2H12CH5CH3CH3CHNC3H2C3SC2H4CH2CH2CH2CHCH5SCHC3H6CH6CHCH12C2H3CH3CH2CNHCFeS2FeS2FeSNFeSCFeHFeS3NSCHS2HSFeSCHFeHSC2SC6H4FeHCH2CHC3HC2HCH2C2HCH4SHC6H7C2H2C2HCHC2SHFeH7CH5CH3CH3FeH3CH3CHC2HFeCHCFeHNC11H11FeH7CHC2H3CH3CHCH4CH2CH6CFeH3C2SH3SCHSH2CSH2CH4CH3CHSH2S2H11CSH2CH2C3HNH3CH3C2H2C2H3SCH2CH5C3H2CH6CH3NH2CS3C2FeS2FeS2FeHFeS3CSH6FeSH2C3H5C2H3SCHCHC3H2NCHCHCH4C2H4C3SC6H4FeC3H5CNHCH2C3HCHCHNSH2C2HC2HCNH2C2HCH2CH2CHCFeH3CH5C2H6C2H2C4H2C2H2NC8H3CH8CH9C2H4CH3C4H2CH8FeC2H3SH5CHCH2FeC2H2SHCHNH2SH3SHC3H3CH5CHCHCHC2H6CH4CHCHCH2SCFeS2FeS2FeCSH2SC2H3CHCH2C7H2CHCH2C2H7FeS2FeS2FeSH3S2HSH5FeC3H2C2HC4FeHC3HC2H2CH2CH5CHCH8CHSC2H5C2H5CHCHC2HCH2SNCH2C2H3C2H3C2HC2HCHCH3C3NHC2H2CH5C5H5C3HNH3CH2CNHCHC4HC2H2CH3CH6CH9CHCH5C2H2CHC2H2NH2CH3CH7CH4SCHS2CFeSHFeSCFeSHFeHFeS3HSHCHSCSFeSC2FeS2CFeSCFeHC3H2CH2C2H2CHCHCH4NH2C2H5CH2C6H4SNC7H3CH14CFeCHCHSH5CH3C2HC7H3CHSH5SFeH2C2H7FeHC2H3CHCSHCH2CH2CH2CSH2CH4CH2SHCH3FeHCH2CHNH2SCH2CH5CH2CH4CSC2HCSH4C2H7CH4CH2CHCH2CNH3CH3
_chemical_formula_sum              "Fe128 H2048 S256 C1152 N64"
_cell_length_a       31.7295
_cell_length_b       44.0819
_cell_length_c       40.7859
_cell_angle_alpha    90.0169
_cell_angle_beta     89.9389
_cell_angle_gamma    90.0883

_space_group_name_H-M_alt    "P 1"
_space_group_IT_number       1

loop_
  _space_group_symop_operation_xyz
  'x, y, z'

loop_
  _atom_site_type_symbol
  _atom_site_label
  _atom_site_symmetry_multiplicity
  _atom_site_fract_x
  _atom_site_fract_y
  _atom_site_fract_z
  _atom_site_occupancy
  Fe  Fe1       1.0  0.10692  0.29298  0.30897  1.0000
  H   H1        1.0  0.06692  0.09994  0.28118  1.0000
  S   S1        1.0  0.11466  0.28615  0.25434  1.0000
  H   H2        1.0  0.29234  0.97913  0.31237  1.0000
  C   C1        1.0  0.07611  0.20926  0.20709  1.0000
  C   C2        1.0  0.22056  0.99499  0.34817  1.0000
  Fe  Fe2       1.0  0.28178  0.24829  0.09072  1.0000
  S   S2        1.0  0.28961  0.20251  0.11380  1.0000
  C   C3        1.0  0.33447  0.15968  0.27507  1.0000
  Fe  Fe3       1.0  0.35928  0.27308  0.12564  1.0000
  S   S3        1.0  0.37239  0.22939  0.15177  1.0000
  S   S4        1.0  0.39772  0.31544  0.13360  1.0000
  Fe  Fe4       1.0  0.35837  0.20846  0.10283  1.0000
  S   S5        1.0  0.39225  0.16765  0.08288  1.0000
  Fe  Fe5       1.0  0.30241  0.22799  0.16007  1.0000
  S   S6        1.0  0.27500  0.21272  0.20839  1.0000
  S   S7        1.0  0.34977  0.25221  0.07571  1.0000
  S   S8        1.0  0.29007  0.27366  0.13801  1.0000
  Fe  Fe6       1.0  0.08189  0.01006  0.10204  1.0000
  S   S9        1.0  0.05617  0.05311  0.08037  1.0000
  H   H3        1.0  0.38485  0.32091  0.24912  1.0000
  Fe  Fe7       1.0  0.15993  0.04131  0.12940  1.0000
  S   S10       1.0  0.14125  0.08651  0.10894  1.0000
  S   S11       1.0  0.22233  0.03686  0.15594  1.0000
  Fe  Fe8       1.0  0.07674  0.07471  0.12742  1.0000
  H   H4        1.0  0.33610  0.02788  0.09115  1.0000
  Fe  Fe9       1.0  0.12264  0.06140  0.06348  1.0000
  H   H5        1.0  0.17901  0.32583  0.07908  1.0000
  S   S12       1.0  0.09667  0.03112  0.15123  1.0000
  S   S13       1.0  0.14731  0.01681  0.08185  1.0000
  H   H6        1.0  0.14975  0.39862  0.28712  1.0000
  S   S14       1.0  0.36501  0.07993  0.32662  1.0000
  H   H7        1.0  0.04811  0.16749  0.10565  1.0000
  H   H8        1.0  0.34908  0.03957  0.03845  1.0000
  S   S15       1.0  0.23630  0.06941  0.30688  1.0000
  C   C4        1.0  0.16635  0.15912  0.28776  1.0000
  H   H9        1.0  0.34216  0.21866  0.25557  1.0000
  C   C5        1.0  0.49791  0.34044  0.18835  1.0000
  H   H10       1.0  0.47926  0.05970  0.08458  1.0000
  C   C6        1.0  0.22632  0.04516  0.19809  1.0000
  C   C7        1.0  0.26594  0.05190  0.21162  1.0000
  C   C8        1.0  0.26992  0.05928  0.24507  1.0000
  C   C9        1.0  0.23436  0.05884  0.26529  1.0000
  C   C10       1.0  0.19529  0.05040  0.25212  1.0000
  C   C11       1.0  0.19099  0.04427  0.21849  1.0000
  H   H11       1.0  0.29355  0.05168  0.19614  1.0000
  H   H12       1.0  0.30033  0.06533  0.25514  1.0000
  H   H13       1.0  0.16806  0.04901  0.26798  1.0000
  H   H14       1.0  0.16053  0.03833  0.20847  1.0000
  C   C12       1.0  0.43846  0.17224  0.05955  1.0000
  C   C13       1.0  0.45646  0.14634  0.04575  1.0000
  H   H15       1.0  0.24810  0.17013  0.05287  1.0000
  C   C14       1.0  0.45825  0.20038  0.05532  1.0000
  H   H16       1.0  0.03720  0.10916  0.24518  1.0000
  H   H17       1.0  0.44456  0.22058  0.06599  1.0000
  C   C15       1.0  0.46637  0.19777  0.20045  1.0000
  H   H18       1.0  0.27189  0.97699  0.21435  1.0000
  C   C16       1.0  0.36953  0.05935  0.04421  1.0000
  H   H19       1.0  0.29530  0.08524  0.14618  1.0000
  C   C17       1.0  0.15757  0.26412  0.24133  1.0000
  C   C18       1.0  0.16960  0.26460  0.20825  1.0000
  C   C19       1.0  0.20542  0.24863  0.19774  1.0000
  C   C20       1.0  0.22849  0.23137  0.22015  1.0000
  C   C21       1.0  0.21475  0.22936  0.25270  1.0000
  C   C22       1.0  0.17977  0.24603  0.26343  1.0000
  H   H20       1.0  0.15151  0.27762  0.19080  1.0000
  H   H21       1.0  0.21503  0.24962  0.17234  1.0000
  H   H22       1.0  0.23147  0.21520  0.26983  1.0000
  H   H23       1.0  0.16989  0.24477  0.28873  1.0000
  H   H24       1.0  0.16140  0.39799  0.07693  1.0000
  C   C23       1.0  0.47509  0.19026  0.31171  1.0000
  C   C24       1.0  0.45170  0.16371  0.31696  1.0000
  C   C25       1.0  0.46251  0.13716  0.30019  1.0000
  H   H25       1.0  0.46679  0.21086  0.32460  1.0000
  H   H26       1.0  0.44821  0.16467  0.16477  1.0000
  H   H27       1.0  0.20315  0.04388  0.02380  1.0000
  C   C26       1.0  0.46500  0.28609  0.16383  1.0000
  C   C27       1.0  0.44469  0.31359  0.15675  1.0000
  C   C28       1.0  0.46153  0.34068  0.16892  1.0000
  C   C29       1.0  0.27026  0.43116  0.17105  1.0000
  H   H28       1.0  0.45247  0.26515  0.15416  1.0000
  H   H29       1.0  0.13854  0.23605  0.10529  1.0000
  H   H30       1.0  0.10644  0.44012  0.30978  1.0000
  N   N1        1.0  0.34663  0.24530  0.30028  1.0000
  H   H31       1.0  0.17397  0.43520  0.28059  1.0000
  H   H32       1.0  0.39012  0.25230  0.23509  1.0000
  C   C30       1.0  0.16789  0.19488  0.12059  1.0000
  H   H33       1.0  0.18776  0.11703  0.23547  1.0000
  C   C31       1.0  0.06448  0.29768  0.03178  1.0000
  C   C32       1.0  0.16659  0.12581  0.18620  1.0000
  H   H34       1.0  0.24708  0.40087  0.13403  1.0000
  C   C33       1.0  0.32424  0.18861  0.29422  1.0000
  C   C34       1.0  0.03238  0.40515  0.07804  1.0000
  H   H35       1.0  0.44469  0.11657  0.30425  1.0000
  C   C35       1.0  0.49642  0.20221  0.03763  1.0000
  C   C36       1.0  0.16634  0.13360  0.22325  1.0000
  H   H36       1.0  0.32155  0.08845  0.02655  1.0000
  C   C37       1.0  0.12942  0.13838  0.27665  1.0000
  C   C38       1.0  0.39791  0.30055  0.23673  1.0000
  H   H37       1.0  0.17748  0.20390  0.14489  1.0000
  H   H38       1.0  0.14814  0.41596  0.24708  1.0000
  H   H39       1.0  0.07493  0.04714  0.26322  1.0000
  S   S16       1.0  0.07824  0.40433  0.10217  1.0000
  H   H40       1.0  0.15908  0.02718  0.32330  1.0000
  C   C39       1.0  0.05130  0.06191  0.25105  1.0000
  H   H41       1.0  0.38188  0.22155  0.33753  1.0000
  H   H42       1.0  0.05341  0.38016  0.20734  1.0000
  N   N2        1.0  0.12390  0.13332  0.24014  1.0000
  H   H43       1.0  0.13567  0.11638  0.28921  1.0000
  H   H44       1.0  0.20622  0.14924  0.03309  1.0000
  C   C40       1.0  0.10823  0.18961  0.22523  1.0000
  C   C41       1.0  0.37749  0.26755  0.28548  1.0000
  H   H45       1.0  0.27996  0.23902  0.30849  1.0000
  C   C42       1.0  0.18417  0.39623  0.05647  1.0000
  H   H46       1.0  0.23752  0.29628  0.28097  1.0000
  C   C43       1.0  0.49456  0.14811  0.02861  1.0000
  H   H47       1.0  0.34209  0.27321  0.23907  1.0000
  H   H48       1.0  0.04911  0.05544  0.22479  1.0000
  H   H49       1.0  0.21043  0.12371  0.14530  1.0000
  H   H50       1.0  0.23368  0.11503  0.18441  1.0000
  H   H51       1.0  0.27574  0.43202  0.19794  1.0000
  H   H52       1.0  0.09696  0.09831  0.20892  1.0000
  C   C44       1.0  0.47585  0.16898  0.18085  1.0000
  H   H53       1.0  0.38866  0.05439  0.06621  1.0000
  C   C45       1.0  0.10472  0.10225  0.23520  1.0000
  C   C46       1.0  0.24421  0.29484  0.30762  1.0000
  C   C47       1.0  0.30158  0.25588  0.29719  1.0000
  H   H54       1.0  0.21187  0.14710  0.07676  1.0000
  H   H55       1.0  0.19153  0.18013  0.33155  1.0000
  H   H56       1.0  0.29355  0.28442  0.34080  1.0000
  H   H57       1.0  0.37456  0.29019  0.29705  1.0000
  H   H58       1.0  0.29206  0.25704  0.27102  1.0000
  H   H59       1.0  0.07394  0.34243  0.21238  1.0000
  H   H60       1.0  0.06198  0.30705  0.05698  1.0000
  S   S17       1.0  0.17594  0.45410  0.12042  1.0000
  H   H61       1.0  0.44600  0.36197  0.16368  1.0000
  H   H62       1.0  0.11755  0.24753  0.04191  1.0000
  H   H63       1.0  0.31372  0.12376  0.14244  1.0000
  H   H64       1.0  0.08551  0.14963  0.20008  1.0000
  H   H65       1.0  0.36407  0.07117  0.17236  1.0000
  H   H66       1.0  0.22391  0.00357  0.32264  1.0000
  H   H67       1.0  0.08691  0.23321  0.20675  1.0000
  C   C48       1.0  0.24933  0.96697  0.35215  1.0000
  H   H68       1.0  0.36241  0.10847  0.04692  1.0000
  Fe  Fe10      1.0  0.10662  0.45024  0.11199  1.0000
  H   H69       1.0  0.28025  0.00056  0.06193  1.0000
  C   C49       1.0  0.08591  0.24588  0.05378  1.0000
  H   H70       1.0  0.47387  0.14125  0.11516  1.0000
  H   H71       1.0  0.18913  0.97120  0.29039  1.0000
  H   H72       1.0  0.49292  0.20337  0.21711  1.0000
  H   H73       1.0  0.44114  0.12468  0.04872  1.0000
  H   H74       1.0  0.43222  0.29884  0.24191  1.0000
  H   H75       1.0  0.12793  0.08462  0.24177  1.0000
  N   N3        1.0  0.19479  0.36066  0.17485  1.0000
  C   C50       1.0  0.18237  0.35659  0.13941  1.0000
  C   C51       1.0  0.21122  0.39254  0.17947  1.0000
  C   C52       1.0  0.22803  0.33745  0.18309  1.0000
  C   C53       1.0  0.15768  0.35593  0.19748  1.0000
  C   C54       1.0  0.11743  0.37453  0.18955  1.0000
  C   C55       1.0  0.16105  0.32586  0.13075  1.0000
  C   C56       1.0  0.24963  0.34118  0.21693  1.0000
  C   C57       1.0  0.25274  0.40024  0.16088  1.0000
  H   H76       1.0  0.07240  0.20140  0.18139  1.0000
  H   H77       1.0  0.09142  0.37257  0.23918  1.0000
  C   C58       1.0  0.28388  0.31732  0.22155  1.0000
  H   H78       1.0  0.21061  0.35841  0.12333  1.0000
  H   H79       1.0  0.16124  0.37531  0.13138  1.0000
  H   H80       1.0  0.18743  0.40934  0.17125  1.0000
  H   H81       1.0  0.21559  0.39773  0.20598  1.0000
  H   H82       1.0  0.25284  0.33670  0.16377  1.0000
  H   H83       1.0  0.21427  0.31429  0.18301  1.0000
  H   H84       1.0  0.14860  0.33156  0.19842  1.0000
  H   H85       1.0  0.16649  0.36167  0.22315  1.0000
  H   H86       1.0  0.10543  0.36940  0.16464  1.0000
  H   H87       1.0  0.12368  0.39925  0.19110  1.0000
  H   H88       1.0  0.18240  0.30656  0.13600  1.0000
  H   H89       1.0  0.13147  0.32256  0.14481  1.0000
  H   H90       1.0  0.22638  0.33842  0.23706  1.0000
  H   H91       1.0  0.26496  0.36367  0.21948  1.0000
  H   H92       1.0  0.50551  0.11658  0.26574  1.0000
  H   H93       1.0  0.44261  0.08977  0.09366  1.0000
  H   H94       1.0  0.27786  0.38344  0.16580  1.0000
  C   C59       1.0  0.16399  0.16606  0.32442  1.0000
  S   S18       1.0  0.04312  0.11354  0.15179  1.0000
  H   H95       1.0  0.46101  0.21719  0.18368  1.0000
  H   H96       1.0  0.10794  0.17378  0.08003  1.0000
  H   H97       1.0  0.46342  0.06657  0.12644  1.0000
  H   H98       1.0  0.18211  0.15596  0.22585  1.0000
  H   H99       1.0  0.30837  0.31942  0.20216  1.0000
  H   H100      1.0  0.29921  0.32067  0.24571  1.0000
  H   H101      1.0  0.27013  0.29414  0.22072  1.0000
  H   H102      1.0  0.11027  0.19850  0.25061  1.0000
  H   H103      1.0  0.23733  0.31722  0.31895  1.0000
  C   C60       1.0  0.15006  0.32421  0.09432  1.0000
  H   H104      1.0  0.13899  0.19248  0.21269  1.0000
  H   H105      1.0  0.19456  0.19795  0.10326  1.0000
  H   H106      1.0  0.31447  0.14071  0.28400  1.0000
  H   H107      1.0  0.32808  0.16297  0.24852  1.0000
  H   H108      1.0  0.36804  0.15330  0.27841  1.0000
  H   H109      1.0  0.23799  0.10105  0.04760  1.0000
  H   H110      1.0  0.32966  0.18416  0.32058  1.0000
  H   H111      1.0  0.24826  0.44957  0.16415  1.0000
  H   H112      1.0  0.28144  0.42790  0.03421  1.0000
  H   H113      1.0  0.13484  0.30211  0.08891  1.0000
  H   H114      1.0  0.47736  0.11758  0.14992  1.0000
  H   H115      1.0  0.13989  0.19922  0.05755  1.0000
  C   C61       1.0  0.35111  0.21573  0.28172  1.0000
  H   H116      1.0  0.46163  0.98607  0.30623  1.0000
  H   H117      1.0  0.29024  0.19296  0.29077  1.0000
  C   C62       1.0  0.06363  0.09530  0.25460  1.0000
  S   S19       1.0  0.12859  0.26319  0.35022  1.0000
  H   H118      1.0  0.38480  0.20843  0.28165  1.0000
  H   H119      1.0  0.22286  0.27783  0.31897  1.0000
  H   H120      1.0  0.39351  0.30347  0.20996  1.0000
  H   H121      1.0  0.40994  0.26987  0.34833  1.0000
  C   C63       1.0  0.16087  0.39616  0.02372  1.0000
  H   H122      1.0  0.20222  0.37483  0.05912  1.0000
  C   C64       1.0  0.09383  0.15611  0.22561  1.0000
  C   C65       1.0  0.22564  0.28228  0.02965  1.0000
  H   H123      1.0  0.16651  0.18086  0.27444  1.0000
  H   H124      1.0  0.41038  0.26008  0.29079  1.0000
  H   H125      1.0  0.30298  0.03542  0.12507  1.0000
  H   H126      1.0  0.15749  0.10177  0.18222  1.0000
  H   H127      1.0  0.31007  0.30522  0.30463  1.0000
  H   H128      1.0  0.09976  0.14734  0.28762  1.0000
  H   H129      1.0  0.33851  0.10182  0.19383  1.0000
  H   H130      1.0  0.47842  0.15015  0.19849  1.0000
  H   H131      1.0  0.16093  0.17031  0.12317  1.0000
  C   C66       1.0  0.29023  0.28636  0.31383  1.0000
  H   H132      1.0  0.12792  0.34268  0.08749  1.0000
  H   H133      1.0  0.38250  0.10985  0.16717  1.0000
  H   H134      1.0  0.04915  0.43620  0.22078  1.0000
  H   H135      1.0  0.10530  0.15856  0.02374  1.0000
  H   H136      1.0  0.50879  0.19157  0.14251  1.0000
  C   C67       1.0  0.03771  0.21286  0.08391  1.0000
  C   C68       1.0  0.21072  0.12994  0.17167  1.0000
  H   H137      1.0  0.14461  0.14058  0.17243  1.0000
  H   H138      1.0  0.51203  0.22388  0.03468  1.0000
  N   N4        1.0  0.07476  0.21308  0.06062  1.0000
  H   H139      1.0  0.03206  0.45364  0.07217  1.0000
  C   C69       1.0  0.08201  0.36695  0.21367  1.0000
  C   C70       1.0  0.50195  0.28586  0.18314  1.0000
  C   C71       1.0  0.02113  0.46286  0.26124  1.0000
  H   H140      1.0  0.19702  0.14766  0.28318  1.0000
  H   H141      1.0  0.22120  0.15393  0.17391  1.0000
  C   C72       1.0  0.51497  0.17589  0.02463  1.0000
  N   N5        1.0  0.31555  0.08944  0.07959  1.0000
  C   C73       1.0  0.34477  0.09193  0.10870  1.0000
  C   C74       1.0  0.34184  0.08798  0.04869  1.0000
  C   C75       1.0  0.28975  0.11828  0.07815  1.0000
  C   C76       1.0  0.28600  0.06259  0.08192  1.0000
  C   C77       1.0  0.30332  0.03311  0.09798  1.0000
  C   C78       1.0  0.32357  0.09957  0.14199  1.0000
  C   C79       1.0  0.25850  0.12128  0.04906  1.0000
  S   S20       1.0  0.13142  0.33583  0.33177  1.0000
  C   C80       1.0  0.27674  0.00547  0.08851  1.0000
  C   C81       1.0  0.35420  0.09527  0.17051  1.0000
  C   C82       1.0  0.47089  0.07759  0.10264  1.0000
  H   H142      1.0  0.36875  0.10989  0.10426  1.0000
  H   H143      1.0  0.36341  0.07099  0.11213  1.0000
  H   H144      1.0  0.20662  0.41550  0.05798  1.0000
  C   C83       1.0  0.46261  0.01110  0.30310  1.0000
  H   H145      1.0  0.31079  0.13854  0.07777  1.0000
  H   H146      1.0  0.26997  0.12042  0.10054  1.0000
  H   H147      1.0  0.25719  0.06861  0.09618  1.0000
  H   H148      1.0  0.27418  0.05671  0.05709  1.0000
  C   C84       1.0  0.37499  0.27182  0.24774  1.0000
  S   S21       1.0  0.22475  0.25217  0.05787  1.0000
  H   H149      1.0  0.06335  0.15571  0.23911  1.0000
  H   H150      1.0  0.43756  0.19434  0.21551  1.0000
  H   H151      1.0  0.27537  0.12428  0.02543  1.0000
  C   C85       1.0  0.50767  0.02295  0.30668  1.0000
  C   C86       1.0  0.35756  0.23946  0.33582  1.0000
  C   C87       1.0  0.14683  0.42050  0.27383  1.0000
  H   H152      1.0  0.45033  0.01678  0.27837  1.0000
  C   C88       1.0  0.22957  0.14872  0.05332  1.0000
  C   C89       1.0  0.29355  0.97344  0.33889  1.0000
  C   C90       1.0  0.12918  0.21194  0.10820  1.0000
  H   H153      1.0  0.07946  0.41962  0.27751  1.0000
  C   C91       1.0  0.49614  0.12660  0.12909  1.0000
  H   H154      1.0  0.04501  0.20836  0.21961  1.0000
  H   H155      1.0  0.10458  0.21026  0.12742  1.0000
  C   C92       1.0  0.11324  0.19828  0.07539  1.0000
  Fe  Fe11      1.0  0.29480  0.08213  0.33566  1.0000
  H   H156      1.0  0.24292  0.00943  0.09391  1.0000
  H   H157      1.0  0.08846  0.25878  0.07713  1.0000
  H   H158      1.0  0.02977  0.20274  0.02222  1.0000
  H   H159      1.0  0.01759  0.00213  0.04747  1.0000
  H   H160      1.0  0.30071  0.43534  0.15838  1.0000
  H   H161      1.0  0.50684  0.04776  0.30294  1.0000
  C   C93       1.0  0.06333  0.19798  0.02846  1.0000
  H   H162      1.0  0.14747  0.08092  0.33308  1.0000
  H   H163      1.0  0.04449  0.22703  0.10587  1.0000
  H   H164      1.0  0.02378  0.35666  0.07936  1.0000
  S   S22       1.0  0.04148  0.29808  0.32914  1.0000
  H   H165      1.0  0.11251  0.42914  0.03457  1.0000
  H   H166      1.0  0.13716  0.37761  0.02449  1.0000
  C   C94       1.0  0.02211  0.18144  0.09566  1.0000
  S   S23       1.0  0.40956  0.16485  0.34494  1.0000
  H   H167      1.0  0.27775  0.30569  0.05217  1.0000
  H   H168      1.0  0.13477  0.17886  0.33025  1.0000
  C   C95       1.0  0.05478  0.26373  0.03156  1.0000
  C   C96       1.0  0.10525  0.43583  0.28303  1.0000
  C   C97       1.0  0.15201  0.02003  0.34886  1.0000
  C   C98       1.0  0.49692  0.13722  0.27842  1.0000
  H   H169      1.0  0.44170  0.02179  0.32167  1.0000
  H   H170      1.0  0.05892  0.15033  0.04680  1.0000
  H   H171      1.0  0.30836  0.99256  0.35244  1.0000
  H   H172      1.0  0.02006  0.05796  0.26265  1.0000
  H   H173      1.0  0.04488  0.45117  0.32924  1.0000
  H   H174      1.0  0.16477  0.14475  0.33893  1.0000
  H   H175      1.0  0.28730  0.98535  0.10264  1.0000
  H   H176      1.0  0.10559  0.46168  0.23770  1.0000
  H   H177      1.0  0.21840  0.98322  0.22822  1.0000
  C   C99       1.0  0.50787  0.09954  0.10653  1.0000
  H   H178      1.0  0.35980  0.28780  0.35227  1.0000
  H   H179      1.0  0.49863  0.07433  0.34845  1.0000
  C   C100      1.0  0.07095  0.16322  0.02551  1.0000
  C   C101      1.0  0.25534  0.30565  0.03218  1.0000
  H   H180      1.0  0.11719  0.01654  0.35011  1.0000
  H   H181      1.0  0.13874  0.99013  0.29101  1.0000
  H   H182      1.0  0.51028  0.36157  0.19784  1.0000
  H   H183      1.0  0.32974  0.23029  0.34923  1.0000
  C   C102      1.0  0.01993  0.44897  0.22628  1.0000
  H   H184      1.0  0.42476  0.07986  0.02213  1.0000
  C   C103      1.0  0.50922  0.19036  0.28983  1.0000
  H   H185      1.0  0.02158  0.26086  0.03937  1.0000
  H   H186      1.0  0.16168  0.44533  0.02440  1.0000
  H   H187      1.0  0.01858  0.44349  0.27848  1.0000
  C   C104      1.0  0.09991  0.46605  0.26423  1.0000
  C   C105      1.0  0.15610  0.96963  0.29907  1.0000
  H   H188      1.0  0.25686  0.96727  0.25564  1.0000
  C   C106      1.0  0.01686  0.43258  0.06584  1.0000
  C   C107      1.0  0.24596  0.96782  0.22978  1.0000
  H   H189      1.0  0.09658  0.30208  0.02190  1.0000
  H   H190      1.0  0.19136  0.10729  0.65309  1.0000
  S   S24       1.0  0.08620  0.31387  0.40041  1.0000
  H   H191      1.0  0.45262  0.07523  0.41364  1.0000
  Fe  Fe12      1.0  0.14816  0.30649  0.37501  1.0000
  S   S25       1.0  0.21324  0.30760  0.39782  1.0000
  H   H192      1.0  0.39187  0.27777  0.40627  1.0000
  Fe  Fe13      1.0  0.30374  0.10464  0.40595  1.0000
  H   H193      1.0  0.45210  0.29023  0.66161  1.0000
  S   S26       1.0  0.26960  0.12083  0.45146  1.0000
  H   H194      1.0  0.48141  0.12302  0.66015  1.0000
  H   H195      1.0  0.17628  0.23171  0.50648  1.0000
  S   S27       1.0  0.37418  0.10482  0.40354  1.0000
  H   H196      1.0  0.46910  0.21053  0.64115  1.0000
  C   C108      1.0  0.51082  0.03555  0.46919  1.0000
  C   C109      1.0  0.44615  0.02739  0.42275  1.0000
  C   C110      1.0  0.46059  0.00287  0.44132  1.0000
  H   H197      1.0  0.24653  0.23058  0.53190  1.0000
  H   H198      1.0  0.44719  0.13341  0.44433  1.0000
  H   H199      1.0  0.44879  0.29515  0.51625  1.0000
  C   C111      1.0  0.17826  0.05285  0.49809  1.0000
  C   C112      1.0  0.19129  0.07846  0.51563  1.0000
  C   C113      1.0  0.21902  0.09941  0.50103  1.0000
  C   C114      1.0  0.23444  0.09452  0.46920  1.0000
  C   C115      1.0  0.22097  0.06906  0.45170  1.0000
  C   C116      1.0  0.19295  0.04836  0.46610  1.0000
  H   H200      1.0  0.17953  0.08231  0.54017  1.0000
  H   H201      1.0  0.22828  0.11944  0.51436  1.0000
  H   H202      1.0  0.23143  0.06553  0.42690  1.0000
  H   H203      1.0  0.18252  0.02872  0.45254  1.0000
  C   C117      1.0  0.21861  0.30391  0.44077  1.0000
  C   C118      1.0  0.18387  0.30681  0.46165  1.0000
  C   C119      1.0  0.18904  0.30391  0.49572  1.0000
  C   C120      1.0  0.22880  0.29784  0.50924  1.0000
  C   C121      1.0  0.26353  0.29459  0.48840  1.0000
  C   C122      1.0  0.25843  0.29776  0.45426  1.0000
  H   H204      1.0  0.15312  0.31156  0.45158  1.0000
  H   H205      1.0  0.16210  0.30627  0.51174  1.0000
  H   H206      1.0  0.29430  0.28988  0.49858  1.0000
  H   H207      1.0  0.28543  0.29544  0.43824  1.0000
  C   C123      1.0  0.01984  0.35521  0.47462  1.0000
  H   H208      1.0  0.12842  0.31324  0.65424  1.0000
  Fe  Fe14      1.0  0.29312  0.27968  0.57807  1.0000
  S   S28       1.0  0.29429  0.23350  0.60125  1.0000
  S   S29       1.0  0.23333  0.29474  0.55225  1.0000
  Fe  Fe15      1.0  0.37317  0.29911  0.61405  1.0000
  S   S30       1.0  0.37954  0.25503  0.64055  1.0000
  S   S31       1.0  0.41695  0.33895  0.62119  1.0000
  Fe  Fe16      1.0  0.36380  0.23457  0.59187  1.0000
  S   S32       1.0  0.39784  0.19098  0.58173  1.0000
  Fe  Fe17      1.0  0.30970  0.25753  0.64803  1.0000
  C   C124      1.0  0.13316  0.41311  0.39302  1.0000
  S   S33       1.0  0.36196  0.27870  0.56413  1.0000
  S   S34       1.0  0.30441  0.30379  0.62574  1.0000
  Fe  Fe18      1.0  0.07234  0.99112  0.61496  1.0000
  S   S35       1.0  0.06137  0.03336  0.58551  1.0000
  C   C125      1.0  0.46325  0.05628  0.42813  1.0000
  Fe  Fe19      1.0  0.15956  0.01179  0.63774  1.0000
  S   S36       1.0  0.15644  0.05509  0.60894  1.0000
  S   S37       1.0  0.21791  0.99960  0.66662  1.0000
  Fe  Fe20      1.0  0.09033  0.05744  0.62833  1.0000
  H   H209      1.0  0.26154  0.19845  0.50741  1.0000
  Fe  Fe21      1.0  0.12820  0.02704  0.56869  1.0000
  S   S38       1.0  0.14254  0.02643  0.51454  1.0000
  S   S39       1.0  0.09511  0.01595  0.65983  1.0000
  H   H210      1.0  0.03467  0.34382  0.49592  1.0000
  H   H211      1.0  0.50397  0.20253  0.42901  1.0000
  C   C126      1.0  0.44276  0.19269  0.55690  1.0000
  C   C127      1.0  0.47401  0.17070  0.56102  1.0000
  H   H212      1.0  0.10281  0.36082  0.48405  1.0000
  C   C128      1.0  0.44709  0.21461  0.53236  1.0000
  H   H213      1.0  0.47059  0.15366  0.57992  1.0000
  H   H214      1.0  0.42263  0.23134  0.52877  1.0000
  C   C129      1.0  0.49240  0.00701  0.46473  1.0000
  Fe  Fe22      1.0  0.36837  0.06053  0.37758  1.0000
  H   H215      1.0  0.06926  0.21261  0.46413  1.0000
  C   C130      1.0  0.45736  0.33782  0.65076  1.0000
  C   C131      1.0  0.16247  0.04781  0.37092  1.0000
  H   H216      1.0  0.16384  0.21028  0.64192  1.0000
  H   H217      1.0  0.25436  0.20087  0.37314  1.0000
  C   C132      1.0  0.46830  0.30629  0.53539  1.0000
  S   S40       1.0  0.03659  0.41681  0.60271  1.0000
  N   N6        1.0  0.06883  0.40243  0.47442  1.0000
  C   C133      1.0  0.09938  0.38405  0.49452  1.0000
  C   C134      1.0  0.08179  0.40067  0.43883  1.0000
  C   C135      1.0  0.06942  0.43467  0.48675  1.0000
  H   H218      1.0  0.10705  0.21713  0.49667  1.0000
  H   H219      1.0  0.48241  0.17543  0.40044  1.0000
  C   C136      1.0  0.19368  0.16604  0.63977  1.0000
  H   H220      1.0  0.22489  0.32168  0.65900  1.0000
  C   C137      1.0  0.12423  0.41610  0.42973  1.0000
  H   H221      1.0  0.19386  0.99696  0.40740  1.0000
  H   H222      1.0  0.05820  0.43557  0.51261  1.0000
  H   H223      1.0  0.12730  0.09124  0.43631  1.0000
  H   H224      1.0  0.13160  0.39393  0.49311  1.0000
  C   C138      1.0  0.21520  0.16536  0.67401  1.0000
  H   H225      1.0  0.08436  0.37660  0.43096  1.0000
  H   H226      1.0  0.05696  0.41037  0.42267  1.0000
  H   H227      1.0  0.10226  0.44362  0.48786  1.0000
  H   H228      1.0  0.48605  0.23124  0.49279  1.0000
  C   C139      1.0  0.16925  0.98464  0.39319  1.0000
  H   H229      1.0  0.21062  0.17571  0.46967  1.0000
  S   S41       1.0  0.29662  0.12879  0.35805  1.0000
  C   C140      1.0  0.02448  0.39015  0.47731  1.0000
  H   H230      1.0  0.19949  0.26702  0.66374  1.0000
  C   C141      1.0  0.51176  0.18303  0.41285  1.0000
  S   S42       1.0  0.40848  0.02076  0.39191  1.0000
  H   H231      1.0  0.44748  0.98049  0.43733  1.0000
  C   C142      1.0  0.51110  0.40303  0.49984  1.0000
  H   H232      1.0  0.50202  0.01690  0.35949  1.0000
  H   H233      1.0  0.26433  0.37698  0.56362  1.0000
  C   C143      1.0  0.13236  0.22564  0.44694  1.0000
  C   C144      1.0  0.26156  0.08072  0.63129  1.0000
  C   C145      1.0  0.48503  0.07648  0.56252  1.0000
  C   C146      1.0  0.26025  0.10593  0.65694  1.0000
  C   C147      1.0  0.51227  0.36480  0.68042  1.0000
  H   H234      1.0  0.08588  0.11670  0.42364  1.0000
  H   H235      1.0  0.50884  0.39635  0.52605  1.0000
  H   H236      1.0  0.45099  0.45798  0.39359  1.0000
  H   H237      1.0  0.05978  0.37090  0.66099  1.0000
  S   S43       1.0  0.06811  0.10245  0.64708  1.0000
  H   H238      1.0  0.32979  0.45918  0.45015  1.0000
  C   C148      1.0  0.14535  0.13874  0.43626  1.0000
  H   H239      1.0  0.16386  0.42395  0.38711  1.0000
  H   H240      1.0  0.16528  0.17836  0.49464  1.0000
  H   H241      1.0  0.34369  0.25651  0.40170  1.0000
  H   H242      1.0  0.10392  0.17526  0.42111  1.0000
  H   H243      1.0  0.14402  0.35419  0.54286  1.0000
  C   C149      1.0  0.21845  0.22183  0.41286  1.0000
  H   H244      1.0  0.11753  0.23037  0.42270  1.0000
  H   H245      1.0  0.50907  0.08260  0.45509  1.0000
  N   N7        1.0  0.37693  0.08829  0.51899  1.0000
  C   C150      1.0  0.40905  0.08725  0.54622  1.0000
  C   C151      1.0  0.33633  0.10160  0.53210  1.0000
  C   C152      1.0  0.36757  0.05599  0.50869  1.0000
  C   C153      1.0  0.39220  0.10566  0.48919  1.0000
  C   C154      1.0  0.42419  0.13184  0.49472  1.0000
  C   C155      1.0  0.44938  0.06860  0.53880  1.0000
  C   C156      1.0  0.33081  0.05205  0.48392  1.0000
  C   C157      1.0  0.33953  0.13261  0.54971  1.0000
  C   C158      1.0  0.29658  0.14343  0.56195  1.0000
  C   C159      1.0  0.43302  0.14886  0.46282  1.0000
  H   H246      1.0  0.17851  0.19826  0.60124  1.0000
  C   C160      1.0  0.32912  0.01980  0.47027  1.0000
  H   H247      1.0  0.39463  0.07736  0.56877  1.0000
  H   H248      1.0  0.41892  0.11050  0.55346  1.0000
  H   H249      1.0  0.31315  0.10475  0.51198  1.0000
  H   H250      1.0  0.32138  0.08547  0.54969  1.0000
  H   H251      1.0  0.36010  0.04174  0.53054  1.0000
  H   H252      1.0  0.39587  0.04550  0.49712  1.0000
  H   H253      1.0  0.40789  0.09011  0.47145  1.0000
  H   H254      1.0  0.36487  0.11523  0.47555  1.0000
  H   H255      1.0  0.45482  0.12305  0.50363  1.0000
  H   H256      1.0  0.41270  0.14845  0.51278  1.0000
  H   H257      1.0  0.44257  0.04396  0.54130  1.0000
  H   H258      1.0  0.24391  0.21725  0.43083  1.0000
  H   H259      1.0  0.33408  0.06788  0.46294  1.0000
  H   H260      1.0  0.30015  0.05639  0.49621  1.0000
  H   H261      1.0  0.36035  0.13114  0.57145  1.0000
  H   H262      1.0  0.35112  0.15025  0.53269  1.0000
  H   H263      1.0  0.30075  0.16420  0.57704  1.0000
  H   H264      1.0  0.27613  0.14926  0.54087  1.0000
  H   H265      1.0  0.28103  0.12583  0.57720  1.0000
  C   C161      1.0  0.50274  0.14291  0.66249  1.0000
  H   H266      1.0  0.45558  0.16756  0.46759  1.0000
  H   H267      1.0  0.09596  0.33293  0.53669  1.0000
  H   H268      1.0  0.48792  0.26367  0.55519  1.0000
  H   H269      1.0  0.15086  0.40540  0.44296  1.0000
  N   N8        1.0  0.15727  0.19646  0.44541  1.0000
  C   C162      1.0  0.23443  0.21006  0.51925  1.0000
  C   C163      1.0  0.16810  0.27679  0.66949  1.0000
  H   H270      1.0  0.47972  0.25674  0.60850  1.0000
  H   H271      1.0  0.50333  0.15546  0.63889  1.0000
  H   H272      1.0  0.05489  0.38028  0.53672  1.0000
  H   H273      1.0  0.51280  0.22591  0.59440  1.0000
  S   S44       1.0  0.14566  0.45446  0.59359  1.0000
  C   C164      1.0  0.02376  0.10073  0.67278  1.0000
  C   C165      1.0  0.50305  0.28465  0.54650  1.0000
  C   C166      1.0  0.12608  0.17068  0.44178  1.0000
  H   H274      1.0  0.10519  0.27331  0.48850  1.0000
  H   H275      1.0  0.24928  0.17045  0.67024  1.0000
  H   H276      1.0  0.48204  0.32741  0.52503  1.0000
  H   H277      1.0  0.21837  0.21125  0.62952  1.0000
  H   H278      1.0  0.28377  0.10016  0.67611  1.0000
  H   H279      1.0  0.44745  0.31225  0.55632  1.0000
  H   H280      1.0  0.17129  0.13446  0.45371  1.0000
  C   C167      1.0  0.08003  0.25861  0.47829  1.0000
  C   C168      1.0  0.48291  0.21450  0.51202  1.0000
  C   C169      1.0  0.26514  0.37973  0.65998  1.0000
  C   C170      1.0  0.18445  0.19673  0.41494  1.0000
  H   H281      1.0  0.21702  0.23539  0.47661  1.0000
  H   H282      1.0  0.32491  0.00310  0.49040  1.0000
  H   H283      1.0  0.26318  0.24106  0.37862  1.0000
  C   C171      1.0  0.13914  0.07600  0.35897  1.0000
  C   C172      1.0  0.50774  0.24265  0.61424  1.0000
  H   H284      1.0  0.20231  0.17513  0.41254  1.0000
  S   S45       1.0  0.29843  0.05824  0.38421  1.0000
  C   C173      1.0  0.47936  0.36462  0.65756  1.0000
  H   H285      1.0  0.13837  0.99360  0.40197  1.0000
  H   H286      1.0  0.47084  0.38539  0.64509  1.0000
  H   H287      1.0  0.06851  0.26840  0.45488  1.0000
  C   C174      1.0  0.23895  0.22286  0.37894  1.0000
  H   H288      1.0  0.21320  0.15342  0.62173  1.0000
  H   H289      1.0  0.22014  0.19481  0.53788  1.0000
  C   C175      1.0  0.21577  0.10879  0.67262  1.0000
  C   C176      1.0  0.18840  0.19848  0.62735  1.0000
  Fe  Fe23      1.0  0.07725  0.45888  0.60586  1.0000
  H   H290      1.0  0.49596  0.38539  0.48435  1.0000
  H   H291      1.0  0.15790  0.13675  0.41096  1.0000
  H   H292      1.0  0.30206  0.01768  0.45315  1.0000
  H   H293      1.0  0.12386  0.44067  0.43560  1.0000
  H   H294      1.0  0.46067  0.07260  0.51348  1.0000
  H   H295      1.0  0.02195  0.13646  0.59018  1.0000
  H   H296      1.0  0.20912  0.40758  0.65621  1.0000
  H   H297      1.0  0.35847  0.01448  0.45655  1.0000
  C   C177      1.0  0.09641  0.22643  0.47280  1.0000
  H   H298      1.0  0.15307  0.24545  0.45146  1.0000
  H   H299      1.0  0.10814  0.42447  0.37848  1.0000
  H   H300      1.0  0.16406  0.19846  0.39276  1.0000
  S   S46       1.0  0.03189  0.38373  0.35738  1.0000
  H   H301      1.0  0.29415  0.07828  0.62170  1.0000
  C   C178      1.0  0.18368  0.19096  0.47572  1.0000
  H   H302      1.0  0.10046  0.11370  0.46653  1.0000
  H   H303      1.0  0.10343  0.35408  0.57395  1.0000
  C   C179      1.0  0.20176  0.21925  0.49360  1.0000
  H   H304      1.0  0.27046  0.12723  0.64490  1.0000
  H   H305      1.0  0.03479  0.34651  0.45194  1.0000
  H   H306      1.0  0.50430  0.44828  0.43644  1.0000
  C   C180      1.0  0.11255  0.11367  0.44095  1.0000
  H   H307      1.0  0.10452  0.07278  0.36109  1.0000
  N   N9        1.0  0.18959  0.36147  0.64530  1.0000
  C   C181      1.0  0.20400  0.35760  0.61027  1.0000
  C   C182      1.0  0.19277  0.33115  0.66224  1.0000
  C   C183      1.0  0.14490  0.37305  0.64544  1.0000
  C   C184      1.0  0.21685  0.38394  0.66355  1.0000
  H   H308      1.0  0.20499  0.24448  0.41747  1.0000
  C   C185      1.0  0.20566  0.38692  0.58935  1.0000
  Fe  Fe24      1.0  0.06723  0.33914  0.35472  1.0000
  C   C186      1.0  0.16161  0.30625  0.65047  1.0000
  C   C187      1.0  0.49739  0.22489  0.64543  1.0000
  Fe  Fe25      1.0  0.06528  0.27268  0.37262  1.0000
  C   C188      1.0  0.23088  0.38209  0.55781  1.0000
  H   H309      1.0  0.40357  0.15882  0.45283  1.0000
  H   H310      1.0  0.18281  0.34182  0.59686  1.0000
  H   H311      1.0  0.23532  0.34633  0.60935  1.0000
  C   C189      1.0  0.10954  0.35405  0.54718  1.0000
  H   H312      1.0  0.25184  0.05875  0.64229  1.0000
  H   H313      1.0  0.12454  0.35887  0.62942  1.0000
  H   H314      1.0  0.14352  0.39616  0.63449  1.0000
  C   C190      1.0  0.37654  0.25899  0.39257  1.0000
  H   H315      1.0  0.47474  0.07317  0.58831  1.0000
  H   H316      1.0  0.27535  0.38249  0.63414  1.0000
  H   H317      1.0  0.10097  0.40248  0.54446  1.0000
  H   H318      1.0  0.17317  0.39349  0.58239  1.0000
  H   H319      1.0  0.22031  0.40616  0.60259  1.0000
  C   C191      1.0  0.08906  0.38187  0.53170  1.0000
  C   C192      1.0  0.46864  0.31103  0.66698  1.0000
  H   H320      1.0  0.14354  0.26011  0.66239  1.0000
  H   H321      1.0  0.16626  0.30100  0.62411  1.0000
  S   S47       1.0  0.13748  0.98325  0.59560  1.0000
  H   H322      1.0  0.23487  0.01294  0.36365  1.0000
  H   H323      1.0  0.24041  0.08619  0.61045  1.0000
  H   H324      1.0  0.13479  0.38882  0.38582  1.0000
  C   C193      1.0  0.49569  0.06036  0.45127  1.0000
  H   H325      1.0  0.10617  0.16879  0.46417  1.0000
  H   H326      1.0  0.21770  0.36304  0.54325  1.0000
  H   H327      1.0  0.22980  0.40300  0.54264  1.0000
  H   H328      1.0  0.16199  0.15545  0.64001  1.0000
  H   H329      1.0  0.49360  0.42460  0.49643  1.0000
  H   H330      1.0  0.15291  0.04386  0.39674  1.0000
  C   C194      1.0  0.12391  0.37539  0.67978  1.0000
  H   H331      1.0  0.49057  0.24052  0.66612  1.0000
  H   H332      1.0  0.27489  0.35697  0.66855  1.0000
  H   H333      1.0  0.05330  0.25810  0.49588  1.0000
  S   S48       1.0  0.02932  0.23419  0.39532  1.0000
  H   H334      1.0  0.02333  0.14905  0.68033  1.0000
  H   H335      1.0  0.49526  0.10036  0.55895  1.0000
  H   H336      1.0  0.14856  0.09578  0.37403  1.0000
  H   H337      1.0  0.19658  0.05310  0.37060  1.0000
  H   H338      1.0  0.39414  0.23767  0.39748  1.0000
  H   H339      1.0  0.50376  0.98776  0.47860  1.0000
  H   H340      1.0  0.48975  0.15814  0.68169  1.0000
  H   H341      1.0  0.50867  0.30838  0.59269  1.0000
  C   C195      1.0  0.07837  0.38616  0.67715  1.0000
  H   H342      1.0  0.21516  0.22824  0.35987  1.0000
  C   C196      1.0  0.50970  0.17069  0.54084  1.0000
  C   C197      1.0  0.37664  0.26615  0.35589  1.0000
  H   H343      1.0  0.07732  0.40959  0.66721  1.0000
  H   H344      1.0  0.44166  0.46594  0.55550  1.0000
  H   H345      1.0  0.27978  0.42666  0.67274  1.0000
  N   N10       1.0  0.17468  0.99081  0.35686  1.0000
  H   H346      1.0  0.51278  0.10603  0.39729  1.0000
  C   C198      1.0  0.51420  0.19243  0.51618  1.0000
  H   H347      1.0  0.05169  0.45836  0.44104  1.0000
  H   H348      1.0  0.51245  0.06152  0.55768  1.0000
  H   H349      1.0  0.32333  0.40091  0.67596  1.0000
  C   C199      1.0  0.04181  0.45728  0.46709  1.0000
  H   H350      1.0  0.50890  0.12823  0.36053  1.0000
  C   C200      1.0  0.28897  0.40336  0.68021  1.0000
  H   H351      1.0  0.14143  0.13565  0.68582  1.0000
  Fe  Fe26      1.0  0.36713  0.12456  0.35344  1.0000
  Fe  Fe27      1.0  0.12371  0.30116  0.88465  1.0000
  S   S49       1.0  0.11718  0.34090  0.91827  1.0000
  H   H352      1.0  0.20288  0.27832  0.79151  1.0000
  Fe  Fe28      1.0  0.17918  0.33570  0.83657  1.0000
  S   S50       1.0  0.17733  0.37778  0.86748  1.0000
  S   S51       1.0  0.21636  0.34402  0.79022  1.0000
  Fe  Fe29      1.0  0.18635  0.34670  0.91019  1.0000
  S   S52       1.0  0.23042  0.35712  0.95206  1.0000
  Fe  Fe30      1.0  0.10828  0.36821  0.87232  1.0000
  S   S53       1.0  0.06430  0.40875  0.87046  1.0000
  S   S54       1.0  0.19421  0.30519  0.87913  1.0000
  S   S55       1.0  0.10925  0.32775  0.83875  1.0000
  Fe  Fe31      1.0  0.35411  0.13293  0.84255  1.0000
  S   S56       1.0  0.35673  0.09555  0.80534  1.0000
  S   S57       1.0  0.37557  0.18102  0.83254  1.0000
  Fe  Fe32      1.0  0.32550  0.08974  0.89742  1.0000
  S   S58       1.0  0.32747  0.04899  0.86449  1.0000
  S   S59       1.0  0.31327  0.08316  0.95143  1.0000
  Fe  Fe33      1.0  0.38811  0.06911  0.84568  1.0000
  S   S60       1.0  0.45226  0.04841  0.83832  1.0000
  Fe  Fe34      1.0  0.29609  0.07974  0.82782  1.0000
  S   S61       1.0  0.23498  0.06906  0.80191  1.0000
  S   S62       1.0  0.38848  0.10735  0.88148  1.0000
  S   S63       1.0  0.29060  0.11953  0.86231  1.0000
  H   H353      1.0  0.27041  0.13671  0.78584  1.0000
  N   N11       1.0  0.50673  0.16125  0.90263  1.0000
  C   C201      1.0  0.47993  0.04373  0.87539  1.0000
  C   C202      1.0  0.45896  0.03384  0.90362  1.0000
  C   C203      1.0  0.27082  0.15898  0.77307  1.0000
  H   H354      1.0  0.42540  0.02951  0.90285  1.0000
  C   C204      1.0  0.44705  0.44236  0.96609  1.0000
  H   H355      1.0  0.28137  0.20740  0.84525  1.0000
  H   H356      1.0  0.21143  0.08782  0.68743  1.0000
  H   H357      1.0  0.23697  0.21962  0.98819  1.0000
  C   C205      1.0  0.18045  0.08075  0.99414  1.0000
  H   H358      1.0  0.06791  0.39267  0.01511  1.0000
  C   C206      1.0  0.25078  0.05960  0.98986  1.0000
  C   C207      1.0  0.26088  0.08041  0.96507  1.0000
  C   C208      1.0  0.23028  0.10072  0.95404  1.0000
  C   C209      1.0  0.19005  0.10080  0.96847  1.0000
  H   H359      1.0  0.15132  0.08847  0.71508  1.0000
  H   H360      1.0  0.46539  0.02019  0.95413  1.0000
  H   H361      1.0  0.23818  0.11714  0.93535  1.0000
  H   H362      1.0  0.16669  0.11701  0.96041  1.0000
  C   C210      1.0  0.46564  0.09910  0.96296  1.0000
  C   C211      1.0  0.13285  0.00987  0.93869  1.0000
  C   C212      1.0  0.19205  0.04329  0.75161  1.0000
  C   C213      1.0  0.23197  0.04854  0.76501  1.0000
  C   C214      1.0  0.26774  0.03804  0.74850  1.0000
  C   C215      1.0  0.06081  0.39624  0.98885  1.0000
  H   H363      1.0  0.19597  0.04732  0.85728  1.0000
  H   H364      1.0  0.16439  0.05145  0.76433  1.0000
  H   H365      1.0  0.29872  0.04192  0.75877  1.0000
  H   H366      1.0  0.42714  0.25227  0.91254  1.0000
  H   H367      1.0  0.03638  0.41413  0.98686  1.0000
  H   H368      1.0  0.18876  0.45827  0.88049  1.0000
  H   H369      1.0  0.09676  0.02442  0.89640  1.0000
  C   C216      1.0  0.23031  0.31467  0.76334  1.0000
  C   C217      1.0  0.22075  0.28426  0.76981  1.0000
  H   H370      1.0  0.14095  0.42542  0.91149  1.0000
  C   C218      1.0  0.25865  0.26911  0.72041  1.0000
  C   C219      1.0  0.26754  0.29952  0.71391  1.0000
  C   C220      1.0  0.25339  0.32221  0.73523  1.0000
  C   C221      1.0  0.23403  0.21280  0.96202  1.0000
  H   H371      1.0  0.45771  0.46626  0.96609  1.0000
  H   H372      1.0  0.26096  0.34571  0.73029  1.0000
  C   C222      1.0  0.22799  0.32860  0.98221  1.0000
  C   C223      1.0  0.19828  0.30523  0.97981  1.0000
  C   C224      1.0  0.19687  0.28230  0.00362  1.0000
  H   H373      1.0  0.04237  0.30475  0.92429  1.0000
  C   C225      1.0  0.24838  0.20485  0.85404  1.0000
  C   C226      1.0  0.25629  0.32892  0.00861  1.0000
  H   H374      1.0  0.17643  0.30467  0.95950  1.0000
  C   C227      1.0  0.26328  0.02262  0.71843  1.0000
  H   H375      1.0  0.14095  0.39189  0.69544  1.0000
  H   H376      1.0  0.15661  0.02491  0.71127  1.0000
  H   H377      1.0  0.49234  0.12026  0.87499  1.0000
  C   C228      1.0  0.44660  0.20814  0.80748  1.0000
  C   C229      1.0  0.41993  0.18280  0.80638  1.0000
  C   C230      1.0  0.42921  0.15924  0.78458  1.0000
  H   H378      1.0  0.43973  0.22638  0.82422  1.0000
  H   H379      1.0  0.40888  0.13981  0.78301  1.0000
  H   H380      1.0  0.26680  0.17719  0.79155  1.0000
  C   C231      1.0  0.46364  0.21071  0.91223  1.0000
  H   H381      1.0  0.04110  0.30953  0.01617  1.0000
  H   H382      1.0  0.49786  0.19856  0.86847  1.0000
  C   C232      1.0  0.48165  0.02849  0.93260  1.0000
  C   C233      1.0  0.03651  0.22888  0.93817  1.0000
  H   H383      1.0  0.51125  0.29027  0.70173  1.0000
  C   C234      1.0  0.17397  0.42778  0.75714  1.0000
  H   H384      1.0  0.07860  0.46086  0.95792  1.0000
  H   H385      1.0  0.25245  0.23942  0.89087  1.0000
  H   H386      1.0  0.18393  0.39029  0.00448  1.0000
  H   H387      1.0  0.45237  0.17618  0.87547  1.0000
  H   H388      1.0  0.10259  0.01660  0.98591  1.0000
  H   H389      1.0  0.50242  0.22949  0.78820  1.0000
  H   H390      1.0  0.12344  0.04759  0.82429  1.0000
  C   C235      1.0  0.33812  0.27885  0.97848  1.0000
  H   H391      1.0  0.29031  0.25001  0.99884  1.0000
  H   H392      1.0  0.31603  0.29580  0.96800  1.0000
  H   H393      1.0  0.34785  0.28677  0.00321  1.0000
  H   H394      1.0  0.36657  0.27735  0.96268  1.0000
  C   C236      1.0  0.21054  0.05963  0.00429  1.0000
  H   H395      1.0  0.16059  0.20415  0.99817  1.0000
  H   H396      1.0  0.37419  0.38843  0.72237  1.0000
  C   C237      1.0  0.47916  0.42426  0.98597  1.0000
  C   C238      1.0  0.09608  0.45962  0.98156  1.0000
  H   H397      1.0  0.04558  0.44388  0.77647  1.0000
  H   H398      1.0  0.20303  0.04376  0.89978  1.0000
  H   H399      1.0  0.45981  0.24757  0.87676  1.0000
  H   H400      1.0  0.21406  0.16742  0.97815  1.0000
  H   H401      1.0  0.41655  0.04090  0.01109  1.0000
  H   H402      1.0  0.08222  0.04025  0.95370  1.0000
  H   H403      1.0  0.29324  0.45705  0.86362  1.0000
  C   C239      1.0  0.18761  0.02843  0.72144  1.0000
  H   H404      1.0  0.17857  0.40362  0.76399  1.0000
  H   H405      1.0  0.17159  0.10076  0.84938  1.0000
  C   C240      1.0  0.46450  0.16110  0.76385  1.0000
  H   H406      1.0  0.13240  0.46449  0.92170  1.0000
  H   H407      1.0  0.41790  0.36400  0.71266  1.0000
  C   C241      1.0  0.22319  0.01816  0.70464  1.0000
  C   C242      1.0  0.48036  0.14593  0.92870  1.0000
  H   H408      1.0  0.30532  0.19531  0.90078  1.0000
  H   H409      1.0  0.21092  0.21256  0.89691  1.0000
  H   H410      1.0  0.44874  0.14027  0.91863  1.0000
  H   H411      1.0  0.47479  0.16143  0.94981  1.0000
  H   H412      1.0  0.44171  0.20057  0.93038  1.0000
  H   H413      1.0  0.11801  0.06789  0.87395  1.0000
  C   C243      1.0  0.05186  0.25640  0.92576  1.0000
  H   H414      1.0  0.24361  0.00778  0.85890  1.0000
  H   H415      1.0  0.10789  0.13510  0.75972  1.0000
  H   H416      1.0  0.17486  0.10752  0.74987  1.0000
  N   N12       1.0  0.38177  0.28916  0.76611  1.0000
  C   C244      1.0  0.37946  0.31027  0.73708  1.0000
  C   C245      1.0  0.38105  0.25682  0.75384  1.0000
  C   C246      1.0  0.34236  0.29347  0.78644  1.0000
  C   C247      1.0  0.41949  0.29526  0.78783  1.0000
  C   C248      1.0  0.46032  0.30751  0.77155  1.0000
  C   C249      1.0  0.37112  0.34408  0.74534  1.0000
  C   C250      1.0  0.33695  0.27144  0.81592  1.0000
  C   C251      1.0  0.41575  0.24745  0.72916  1.0000
  C   C252      1.0  0.14496  0.00413  0.84397  1.0000
  C   C253      1.0  0.49351  0.31459  0.79761  1.0000
  H   H417      1.0  0.13790  0.17528  0.97208  1.0000
  C   C254      1.0  0.30328  0.28274  0.83976  1.0000
  H   H418      1.0  0.35422  0.30279  0.71996  1.0000
  H   H419      1.0  0.40867  0.30912  0.72220  1.0000
  H   H420      1.0  0.38345  0.24057  0.77457  1.0000
  H   H421      1.0  0.35003  0.25199  0.74199  1.0000
  H   H422      1.0  0.31393  0.29094  0.77092  1.0000
  H   H423      1.0  0.34089  0.31693  0.79645  1.0000
  H   H424      1.0  0.41122  0.31212  0.80718  1.0000
  H   H425      1.0  0.42834  0.27436  0.80138  1.0000
  H   H426      1.0  0.45483  0.32896  0.75806  1.0000
  H   H427      1.0  0.47374  0.29079  0.75429  1.0000
  H   H428      1.0  0.33706  0.34750  0.75046  1.0000
  H   H429      1.0  0.14621  0.21292  0.95621  1.0000
  H   H430      1.0  0.36667  0.26879  0.82989  1.0000
  H   H431      1.0  0.32697  0.24866  0.80710  1.0000
  C   C255      1.0  0.32853  0.45513  0.98439  1.0000
  H   H432      1.0  0.44681  0.24689  0.74137  1.0000
  H   H433      1.0  0.40241  0.19922  0.73578  1.0000
  C   C256      1.0  0.05002  0.15032  0.99477  1.0000
  C   C257      1.0  0.23520  0.16065  0.74792  1.0000
  C   C258      1.0  0.15233  0.10989  0.72930  1.0000
  H   H434      1.0  0.06735  0.44556  0.71515  1.0000
  C   C259      1.0  0.49916  0.11677  0.94414  1.0000
  C   C260      1.0  0.04417  0.46511  0.76168  1.0000
  C   C261      1.0  0.13923  0.42715  0.01696  1.0000
  H   H435      1.0  0.38905  0.35141  0.76731  1.0000
  H   H436      1.0  0.31112  0.30578  0.84899  1.0000
  H   H437      1.0  0.27197  0.28341  0.82764  1.0000
  H   H438      1.0  0.30154  0.26719  0.86104  1.0000
  N   N13       1.0  0.27694  0.20705  0.94732  1.0000
  H   H439      1.0  0.32890  0.23548  0.93075  1.0000
  C   C262      1.0  0.23511  0.26145  0.74838  1.0000
  H   H440      1.0  0.17194  0.00605  0.82665  1.0000
  H   H441      1.0  0.51261  0.10109  0.92579  1.0000
  H   H442      1.0  0.10640  0.98526  0.89757  1.0000
  H   H443      1.0  0.03869  0.00001  0.72179  1.0000
  H   H444      1.0  0.10035  0.09455  0.75970  1.0000
  H   H445      1.0  0.29506  0.41718  0.96034  1.0000
  C   C263      1.0  0.30111  0.23663  0.94739  1.0000
  H   H446      1.0  0.30198  0.16224  0.76107  1.0000
  C   C264      1.0  0.10081  0.40531  0.96928  1.0000
  H   H447      1.0  0.14841  0.11906  0.88461  1.0000
  H   H448      1.0  0.41163  0.22564  0.88132  1.0000
  H   H449      1.0  0.10685  0.42265  0.75694  1.0000
  H   H450      1.0  0.23582  0.18366  0.73696  1.0000
  H   H451      1.0  0.41755  0.26286  0.70786  1.0000
  C   C265      1.0  0.40044  0.06283  0.01581  1.0000
  C   C266      1.0  0.24071  0.13602  0.72116  1.0000
  C   C267      1.0  0.19545  0.45373  0.90677  1.0000
  H   H452      1.0  0.20991  0.38313  0.69032  1.0000
  H   H453      1.0  0.31018  0.42130  0.88049  1.0000
  H   H454      1.0  0.20345  0.18525  0.68819  1.0000
  H   H455      1.0  0.19969  0.17565  0.93659  1.0000
  C   C268      1.0  0.20307  0.18555  0.96141  1.0000
  H   H456      1.0  0.35061  0.13522  0.98723  1.0000
  H   H457      1.0  0.29093  0.01456  0.70559  1.0000
  H   H458      1.0  0.07117  0.45727  0.00069  1.0000
  N   N14       1.0  0.20905  0.13658  0.69357  1.0000
  H   H459      1.0  0.40383  0.44455  0.00738  1.0000
  C   C269      1.0  0.23016  0.98522  0.86497  1.0000
  C   C270      1.0  0.11046  0.02456  0.82882  1.0000
  H   H460      1.0  0.36385  0.19651  0.95283  1.0000
  H   H461      1.0  0.06414  0.34775  0.97916  1.0000
  C   C271      1.0  0.31679  0.24785  0.98134  1.0000
  H   H462      1.0  0.22095  0.97370  0.84183  1.0000
  C   C272      1.0  0.10858  0.11441  0.74419  1.0000
  H   H463      1.0  0.22766  0.21903  0.83835  1.0000
  H   H464      1.0  0.22819  0.23792  0.75362  1.0000
  H   H465      1.0  0.20502  0.15760  0.76130  1.0000
  H   H466      1.0  0.48988  0.22193  0.92545  1.0000
  H   H467      1.0  0.20422  0.99327  0.91299  1.0000
  H   H468      1.0  0.19889  0.44149  0.76927  1.0000
  H   H469      1.0  0.08201  0.20794  0.00797  1.0000
  H   H470      1.0  0.08991  0.40946  0.94376  1.0000
  H   H471      1.0  0.18880  0.33372  0.68923  1.0000
  H   H472      1.0  0.06862  0.00033  0.95507  1.0000
  H   H473      1.0  0.34016  0.23202  0.99206  1.0000
  C   C273      1.0  0.04187  0.36682  0.97552  1.0000
  H   H474      1.0  0.39441  0.41469  0.97933  1.0000
  H   H475      1.0  0.48005  0.43245  0.01173  1.0000
  C   C274      1.0  0.17846  0.04264  0.88027  1.0000
  H   H476      1.0  0.21852  0.23248  0.94984  1.0000
  H   H477      1.0  0.39984  0.15229  0.97506  1.0000
  C   C275      1.0  0.16847  0.09984  0.87651  1.0000
  H   H478      1.0  0.05759  0.12580  0.99252  1.0000
  H   H479      1.0  0.17747  0.42992  0.73015  1.0000
  H   H480      1.0  0.28130  0.25518  0.93714  1.0000
  H   H481      1.0  0.27440  0.04373  0.99826  1.0000
  H   H482      1.0  0.48220  0.33273  0.81435  1.0000
  H   H483      1.0  0.48074  0.08017  0.97650  1.0000
  H   H484      1.0  0.36707  0.35737  0.69391  1.0000
  H   H485      1.0  0.28235  0.40037  0.70677  1.0000
  C   C276      1.0  0.15927  0.19521  0.97274  1.0000
  H   H486      1.0  0.34470  0.16248  0.93378  1.0000
  C   C277      1.0  0.36169  0.44615  0.92997  1.0000
  H   H487      1.0  0.20018  0.10243  0.88752  1.0000
  H   H488      1.0  0.25602  0.40007  0.00873  1.0000
  H   H489      1.0  0.44950  0.11394  0.98087  1.0000
  H   H490      1.0  0.12199  0.38530  0.96774  1.0000
  H   H491      1.0  0.23852  0.18077  0.85145  1.0000
  C   C278      1.0  0.30743  0.42337  0.98491  1.0000
  H   H492      1.0  0.15701  0.02753  0.94355  1.0000
  H   H493      1.0  0.24640  0.43990  0.00179  1.0000
  C   C279      1.0  0.48232  0.20983  0.78714  1.0000
  N   N15       1.0  0.12472  0.43235  0.98213  1.0000
  C   C280      1.0  0.34480  0.17580  0.95694  1.0000
  C   C281      1.0  0.16313  0.43732  0.96088  1.0000
  H   H494      1.0  0.17391  0.26426  0.00143  1.0000
  H   H495      1.0  0.14123  0.07119  0.91356  1.0000
  H   H496      1.0  0.15729  0.15815  0.71938  1.0000
  H   H497      1.0  0.28164  0.16117  0.96605  1.0000
  H   H498      1.0  0.46923  0.45625  0.87632  1.0000
  C   C282      1.0  0.24450  0.21501  0.88971  1.0000
  C   C283      1.0  0.09406  0.01715  0.95949  1.0000
  C   C284      1.0  0.16436  0.13652  0.70640  1.0000
  H   H499      1.0  0.47101  0.14287  0.74682  1.0000
  H   H500      1.0  0.27314  0.13907  0.71124  1.0000
  H   H501      1.0  0.18308  0.41664  0.96031  1.0000
  H   H502      1.0  0.08452  0.11645  0.72458  1.0000
  C   C285      1.0  0.29891  0.18314  0.96743  1.0000
  C   C286      1.0  0.12188  0.00772  0.90161  1.0000
  C   C287      1.0  0.43907  0.23551  0.89445  1.0000
  C   C288      1.0  0.36720  0.15709  0.98316  1.0000
  H   H503      1.0  0.44781  0.43364  0.94060  1.0000
  H   H504      1.0  0.39047  0.44999  0.91489  1.0000
  C   C289      1.0  0.14841  0.06981  0.88695  1.0000
  C   C290      1.0  0.40698  0.21570  0.71560  1.0000
  C   C291      1.0  0.13026  0.43825  0.76810  1.0000
  S   S64       1.0  0.09681  0.25594  0.90015  1.0000
  N   N16       1.0  0.36830  0.45787  0.96435  1.0000
  C   C292      1.0  0.38329  0.36468  0.71674  1.0000
  C   C293      1.0  0.02268  0.40704  0.84186  1.0000
  H   H505      1.0  0.29835  0.18932  0.99393  1.0000
  H   H506      1.0  0.21848  0.43480  0.90824  1.0000
  C   C294      1.0  0.15455  0.44526  0.92441  1.0000
  H   H507      1.0  0.07975  0.99003  0.79909  1.0000
  H   H508      1.0  0.43392  0.20806  0.70031  1.0000
  H   H509      1.0  0.47118  0.39972  0.98568  1.0000
  H   H510      1.0  0.35695  0.42111  0.93012  1.0000
  H   H511      1.0  0.08219  0.02613  0.84466  1.0000
  H   H512      1.0  0.24119  0.11339  0.73335  1.0000
  H   H513      1.0  0.37801  0.21574  0.70034  1.0000
  H   H514      1.0  0.05218  0.20791  0.93183  1.0000
  C   C295      1.0  0.27352  0.19597  0.91241  1.0000
  S   S65       1.0  0.13134  0.08358  0.01387  1.0000
  C   C296      1.0  0.40218  0.43925  0.98070  1.0000
  H   H515      1.0  0.26241  0.17201  0.91158  1.0000
  C   C297      1.0  0.32487  0.46087  0.91057  1.0000
  C   C298      1.0  0.48034  0.18630  0.88793  1.0000
  C   C299      1.0  0.09584  0.01212  0.79571  1.0000
  H   H516      1.0  0.06162  0.16211  0.97245  1.0000
  H   H517      1.0  0.02586  0.97967  0.75906  1.0000
  H   H518      1.0  0.32965  0.40548  0.99283  1.0000
  H   H519      1.0  0.34825  0.44714  0.86247  1.0000
  C   C300      1.0  0.31893  0.44554  0.87728  1.0000
  H   H520      1.0  0.05744  0.25593  0.00579  1.0000
  H   H521      1.0  0.33483  0.46132  0.01037  1.0000
  C   C301      1.0  0.49113  0.18643  0.76497  1.0000
  N   N17       1.0  0.15879  0.01142  0.87854  1.0000
  H   H522      1.0  0.38401  0.06979  0.99304  1.0000
  H   H523      1.0  0.18367  0.45528  0.97154  1.0000
  C   C302      1.0  0.27054  0.42294  0.00889  1.0000
  H   H524      1.0  0.50090  0.29401  0.81221  1.0000
  H   H525      1.0  0.44189  0.08953  0.94583  1.0000
  H   H526      1.0  0.12866  0.43559  0.79510  1.0000
  C   C303      1.0  0.02360  0.97929  0.73196  1.0000
  H   H527      1.0  0.03711  0.36223  0.82436  1.0000
  C   C304      1.0  0.50218  0.31109  0.68965  1.0000
  H   H528      1.0  0.12284  0.00882  0.77882  1.0000
  H   H529      1.0  0.27958  0.34676  0.01047  1.0000
  H   H530      1.0  0.07327  0.02817  0.78427  1.0000
  C   C305      1.0  0.03119  0.28344  0.93398  1.0000
  C   C306      1.0  0.03873  0.45656  0.72512  1.0000
  C   C307      1.0  0.19149  0.98812  0.88817  1.0000
  H   H531      1.0  0.50791  0.12784  0.01832  1.0000
  H   H532      1.0  0.13406  0.98011  0.84260  1.0000
  H   H533      1.0  0.49351  0.15575  0.83105  1.0000
  H   H534      1.0  0.14566  0.98778  0.94723  1.0000
  H   H535      1.0  0.10607  0.97194  0.72051  1.0000
  H   H536      1.0  0.51103  0.42732  0.97514  1.0000
  S   S66       1.0  0.27777  0.24062  0.69420  1.0000
  H   H537      1.0  0.27694  0.97717  0.90315  1.0000
  H   H538      1.0  0.03478  0.36885  0.94895  1.0000
  H   H539      1.0  0.06368  0.38614  0.70186  1.0000
  H   H540      1.0  0.36874  0.16978  0.00668  1.0000
  H   H541      1.0  0.28623  0.30555  0.69285  1.0000
  H   H542      1.0  0.29450  0.45906  0.92382  1.0000
  H   H543      1.0  0.16568  0.28079  0.69634  1.0000
  C   C308      1.0  0.01647  0.38150  0.82215  1.0000
  H   H544      1.0  0.12345  0.35320  0.69255  1.0000
  Fe  Fe35      1.0  0.16622  0.83842  0.32738  1.0000
  C   C309      1.0  0.15431  0.96599  0.33689  1.0000
  S   S67       1.0  0.21500  0.84131  0.28669  1.0000
  H   H545      1.0  0.37462  0.73134  0.22448  1.0000
  H   H546      1.0  0.24360  0.67760  0.34995  1.0000
  S   S68       1.0  0.09602  0.84008  0.31958  1.0000
  Fe  Fe36      1.0  0.29311  0.75491  0.06293  1.0000
  S   S69       1.0  0.28616  0.71372  0.09489  1.0000
  H   H547      1.0  0.43423  0.84220  0.03298  1.0000
  Fe  Fe37      1.0  0.35728  0.78265  0.10918  1.0000
  S   S70       1.0  0.35535  0.74368  0.14446  1.0000
  S   S71       1.0  0.39669  0.82460  0.11623  1.0000
  Fe  Fe38      1.0  0.35664  0.71474  0.09897  1.0000
  S   S72       1.0  0.39293  0.67033  0.09771  1.0000
  Fe  Fe39      1.0  0.28536  0.74646  0.13709  1.0000
  S   S73       1.0  0.23751  0.73966  0.17760  1.0000
  S   S74       1.0  0.36397  0.75369  0.06402  1.0000
  S   S75       1.0  0.28686  0.78764  0.10485  1.0000
  H   H548      1.0  0.03713  0.51663  0.30386  1.0000
  S   S76       1.0  0.10446  0.49019  0.07799  1.0000
  H   H549      1.0  0.48570  0.78365  0.20518  1.0000
  Fe  Fe40      1.0  0.15963  0.48379  0.16313  1.0000
  S   S77       1.0  0.16138  0.52649  0.13343  1.0000
  C   C310      1.0  0.03371  0.47490  0.32976  1.0000
  Fe  Fe41      1.0  0.09281  0.51639  0.12452  1.0000
  H   H550      1.0  0.04469  0.83385  0.07616  1.0000
  Fe  Fe42      1.0  0.17294  0.49633  0.08987  1.0000
  H   H551      1.0  0.29759  0.91186  0.16776  1.0000
  C   C311      1.0  0.51081  0.67775  0.27648  1.0000
  C   C312      1.0  0.16642  0.89421  0.18129  1.0000
  C   C313      1.0  0.45199  0.68608  0.18590  1.0000
  S   S78       1.0  0.37226  0.58487  0.32566  1.0000
  H   H552      1.0  0.10288  0.81221  0.05670  1.0000
  Fe  Fe43      1.0  0.30229  0.58556  0.33354  1.0000
  S   S79       1.0  0.25894  0.59071  0.28988  1.0000
  C   C314      1.0  0.49426  0.64897  0.28376  1.0000
  H   H553      1.0  0.17282  0.95424  0.12832  1.0000
  H   H554      1.0  0.33477  0.69554  0.31854  1.0000
  H   H555      1.0  0.16820  0.94355  0.34244  1.0000
  C   C315      1.0  0.21130  0.50783  0.23288  1.0000
  C   C316      1.0  0.20384  0.53723  0.22140  1.0000
  C   C317      1.0  0.21880  0.56241  0.23905  1.0000
  C   C318      1.0  0.24168  0.55841  0.26815  1.0000
  C   C319      1.0  0.24960  0.52901  0.27949  1.0000
  C   C320      1.0  0.23422  0.50380  0.26197  1.0000
  H   H556      1.0  0.18575  0.54068  0.19936  1.0000
  H   H557      1.0  0.21238  0.58509  0.23027  1.0000
  H   H558      1.0  0.26721  0.52573  0.30191  1.0000
  C   C321      1.0  0.50781  0.75221  0.09279  1.0000
  C   C322      1.0  0.43178  0.66413  0.06745  1.0000
  C   C323      1.0  0.45206  0.63590  0.06607  1.0000
  H   H559      1.0  0.32270  0.74533  0.21529  1.0000
  C   C324      1.0  0.44338  0.68686  0.04530  1.0000
  H   H560      1.0  0.44268  0.61805  0.08274  1.0000
  H   H561      1.0  0.42787  0.70863  0.04601  1.0000
  S   S80       1.0  0.04453  0.55332  0.12908  1.0000
  H   H562      1.0  0.12053  0.96407  0.34389  1.0000
  H   H563      1.0  0.19726  0.56814  0.08113  1.0000
  H   H564      1.0  0.46262  0.71699  0.10486  1.0000
  C   C325      1.0  0.22074  0.81261  0.25682  1.0000
  C   C326      1.0  0.25266  0.81552  0.23315  1.0000
  C   C327      1.0  0.25766  0.79356  0.20843  1.0000
  C   C328      1.0  0.23098  0.76832  0.20744  1.0000
  C   C329      1.0  0.19914  0.76533  0.23120  1.0000
  C   C330      1.0  0.19395  0.78742  0.25580  1.0000
  H   H565      1.0  0.27382  0.83474  0.23413  1.0000
  H   H566      1.0  0.28252  0.79591  0.19044  1.0000
  H   H567      1.0  0.17833  0.74588  0.23054  1.0000
  H   H568      1.0  0.16920  0.78501  0.27390  1.0000
  C   C331      1.0  0.30041  0.62385  0.11139  1.0000
  C   C332      1.0  0.46367  0.69975  0.31697  1.0000
  C   C333      1.0  0.44721  0.67100  0.32430  1.0000
  C   C334      1.0  0.46256  0.64559  0.30763  1.0000
  H   H569      1.0  0.08954  0.54415  0.27613  1.0000
  H   H570      1.0  0.30755  0.64455  0.09665  1.0000
  H   H571      1.0  0.35068  0.61219  0.06236  1.0000
  C   C335      1.0  0.45578  0.85374  0.15267  1.0000
  C   C336      1.0  0.43422  0.82639  0.14797  1.0000
  C   C337      1.0  0.44455  0.80118  0.16734  1.0000
  C   C338      1.0  0.47744  0.80317  0.19046  1.0000
  H   H572      1.0  0.44788  0.87331  0.13792  1.0000
  H   H573      1.0  0.42784  0.78007  0.16419  1.0000
  C   C339      1.0  0.38472  0.62924  0.24707  1.0000
  H   H574      1.0  0.12401  0.52460  0.24829  1.0000
  H   H575      1.0  0.19394  0.94033  0.07162  1.0000
  S   S81       1.0  0.05130  0.96352  0.09924  1.0000
  C   C340      1.0  0.13570  0.94240  0.28203  1.0000
  C   C341      1.0  0.27869  0.69836  0.24570  1.0000
  C   C342      1.0  0.25326  0.66833  0.24719  1.0000
  C   C343      1.0  0.27074  0.71276  0.31895  1.0000
  C   C344      1.0  0.21374  0.67012  0.22590  1.0000
  C   C345      1.0  0.49883  0.83071  0.19506  1.0000
  H   H576      1.0  0.30530  0.74930  0.27404  1.0000
  H   H577      1.0  0.25632  0.71728  0.25040  1.0000
  H   H578      1.0  0.35038  0.87173  0.15945  1.0000
  H   H579      1.0  0.24276  0.66296  0.27246  1.0000
  H   H580      1.0  0.27210  0.64926  0.23751  1.0000
  H   H581      1.0  0.28160  0.73645  0.32264  1.0000
  H   H582      1.0  0.24184  0.71312  0.30369  1.0000
  H   H583      1.0  0.19621  0.64833  0.22736  1.0000
  H   H584      1.0  0.19271  0.68860  0.23455  1.0000
  H   H585      1.0  0.22231  0.67433  0.19987  1.0000
  C   C346      1.0  0.48039  0.65916  0.17752  1.0000
  H   H586      1.0  0.27201  0.63013  0.04858  1.0000
  H   H587      1.0  0.09590  0.87102  0.04399  1.0000
  H   H588      1.0  0.18263  0.85168  0.05074  1.0000
  H   H589      1.0  0.45191  0.71952  0.32974  1.0000
  H   H590      1.0  0.49769  0.57782  0.32707  1.0000
  H   H591      1.0  0.13620  0.94583  0.25507  1.0000
  H   H592      1.0  0.12521  0.85210  0.24686  1.0000
  H   H593      1.0  0.14166  0.62513  0.08552  1.0000
  H   H594      1.0  0.49445  0.75599  0.06806  1.0000
  C   C347      1.0  0.25849  0.70030  0.35251  1.0000
  C   C348      1.0  0.10192  0.85329  0.02508  1.0000
  H   H595      1.0  0.28604  0.88915  0.13204  1.0000
  C   C349      1.0  0.31910  0.86584  0.16996  1.0000
  N   N18       1.0  0.05878  0.48264  0.26906  1.0000
  H   H596      1.0  0.01689  0.90212  0.15329  1.0000
  C   C350      1.0  0.02346  0.84998  0.02820  1.0000
  C   C351      1.0  0.22621  0.61104  0.09796  1.0000
  C   C352      1.0  0.12465  0.82626  0.04191  1.0000
  H   H597      1.0  0.48526  0.84154  0.07828  1.0000
  C   C353      1.0  0.49526  0.70315  0.29306  1.0000
  H   H598      1.0  0.22148  0.63550  0.09200  1.0000
  H   H599      1.0  0.21740  0.60877  0.12416  1.0000
  H   H600      1.0  0.23882  0.56592  0.14436  1.0000
  H   H601      1.0  0.29641  0.66919  0.30554  1.0000
  C   C354      1.0  0.05564  0.49511  0.30363  1.0000
  H   H602      1.0  0.09076  0.55100  0.20098  1.0000
  H   H603      1.0  0.25793  0.65266  0.14053  1.0000
  H   H604      1.0  0.24655  0.87712  0.19982  1.0000
  H   H605      1.0  0.10964  0.88971  0.23468  1.0000
  H   H606      1.0  0.18738  0.88218  0.23167  1.0000
  H   H607      1.0  0.34696  0.63842  0.16620  1.0000
  C   C355      1.0  0.47269  0.73940  0.11429  1.0000
  H   H608      1.0  0.50608  0.62922  0.27100  1.0000
  H   H609      1.0  0.12511  0.58730  0.07459  1.0000
  H   H610      1.0  0.45993  0.64122  0.16694  1.0000
  H   H611      1.0  0.26348  0.55442  0.08434  1.0000
  C   C356      1.0  0.35250  0.68140  0.25573  1.0000
  C   C357      1.0  0.23365  0.93586  0.21876  1.0000
  C   C358      1.0  0.33139  0.73363  0.26727  1.0000
  H   H612      1.0  0.45000  0.62337  0.31309  1.0000
  S   S82       1.0  0.22820  0.49919  0.05472  1.0000
  H   H613      1.0  0.49360  0.65047  0.20079  1.0000
  H   H614      1.0  0.28823  0.70146  0.21972  1.0000
  H   H615      1.0  0.38707  0.60594  0.25720  1.0000
  H   H616      1.0  0.23688  0.94698  0.33879  1.0000
  H   H617      1.0  0.31026  0.84289  0.16100  1.0000
  C   C359      1.0  0.24222  0.88176  0.17331  1.0000
  C   C360      1.0  0.30601  0.69329  0.30301  1.0000
  H   H618      1.0  0.32210  0.86536  0.19708  1.0000
  H   H619      1.0  0.37356  0.78656  0.21218  1.0000
  C   C361      1.0  0.27729  0.52616  0.14145  1.0000
  H   H620      1.0  0.14357  0.59483  0.11546  1.0000
  H   H621      1.0  0.46413  0.80452  0.07002  1.0000
  H   H622      1.0  0.14538  0.91376  0.18695  1.0000
  H   H623      1.0  0.50756  0.72544  0.28750  1.0000
  H   H624      1.0  0.24011  0.48114  0.27103  1.0000
  H   H625      1.0  0.49674  0.61992  0.12493  1.0000
  H   H626      1.0  0.30712  0.65961  0.18757  1.0000
  H   H627      1.0  0.32350  0.63657  0.26756  1.0000
  N   N19       1.0  0.31657  0.70099  0.26792  1.0000
  H   H628      1.0  0.39265  0.77883  0.25293  1.0000
  H   H629      1.0  0.35671  0.73716  0.28587  1.0000
  H   H630      1.0  0.44499  0.75473  0.11369  1.0000
  H   H631      1.0  0.19506  0.59863  0.05165  1.0000
  C   C362      1.0  0.14820  0.60061  0.08918  1.0000
  H   H632      1.0  0.26130  0.92100  0.22295  1.0000
  C   C363      1.0  0.28121  0.60679  0.05632  1.0000
  C   C364      1.0  0.16727  0.93062  0.11989  1.0000
  H   H633      1.0  0.02274  0.80419  0.05058  1.0000
  H   H634      1.0  0.29396  0.57163  0.15376  1.0000
  H   H635      1.0  0.23226  0.85962  0.16249  1.0000
  C   C365      1.0  0.27146  0.56035  0.13690  1.0000
  H   H636      1.0  0.26208  0.59099  0.04111  1.0000
  H   H637      1.0  0.02648  0.52053  0.24642  1.0000
  C   C366      1.0  0.15991  0.83729  0.06450  1.0000
  H   H638      1.0  0.41663  0.63957  0.24703  1.0000
  H   H639      1.0  0.13931  0.81133  0.02315  1.0000
  H   H640      1.0  0.01766  0.87536  0.31607  1.0000
  H   H641      1.0  0.19890  0.88689  0.11917  1.0000
  C   C367      1.0  0.16430  0.93136  0.08246  1.0000
  H   H642      1.0  0.31452  0.56467  0.09693  1.0000
  H   H643      1.0  0.12691  0.48051  0.27194  1.0000
  C   C368      1.0  0.19298  0.59290  0.07809  1.0000
  C   C369      1.0  0.28069  0.56997  0.10110  1.0000
  C   C370      1.0  0.12327  0.86802  0.22580  1.0000
  H   H644      1.0  0.18008  0.85051  0.20477  1.0000
  C   C371      1.0  0.16741  0.87310  0.21179  1.0000
  H   H645      1.0  0.42745  0.67886  0.20363  1.0000
  H   H646      1.0  0.15307  0.92119  0.28786  1.0000
  H   H647      1.0  0.33973  0.79308  0.24688  1.0000
  H   H648      1.0  0.20735  0.92853  0.23469  1.0000
  C   C372      1.0  0.23282  0.52457  0.02150  1.0000
  H   H649      1.0  0.49485  0.56516  0.10395  1.0000
  H   H650      1.0  0.31026  0.51947  0.13590  1.0000
  C   C373      1.0  0.21990  0.93571  0.18236  1.0000
  C   C374      1.0  0.28649  0.88934  0.15925  1.0000
  H   H651      1.0  0.14663  0.85046  0.08529  1.0000
  H   H652      1.0  0.35313  0.68123  0.22846  1.0000
  H   H653      1.0  0.36566  0.64762  0.29361  1.0000
  H   H654      1.0  0.23281  0.91908  0.12033  1.0000
  N   N20       1.0  0.27182  0.60261  0.09240  1.0000
  C   C375      1.0  0.36449  0.77794  0.23678  1.0000
  H   H655      1.0  0.05649  0.57109  0.22914  1.0000
  H   H656      1.0  0.19287  0.95171  0.18057  1.0000
  H   H657      1.0  0.49935  0.60864  0.04197  1.0000
  H   H658      1.0  0.27013  0.51986  0.16726  1.0000
  H   H659      1.0  0.02149  0.51633  0.06837  1.0000
  H   H660      1.0  0.33435  0.57649  0.04515  1.0000
  C   C376      1.0  0.34822  0.74539  0.23381  1.0000
  H   H661      1.0  0.37310  0.62753  0.22150  1.0000
  N   N21       1.0  0.20833  0.90529  0.16782  1.0000
  H   H662      1.0  0.32794  0.67397  0.14974  1.0000
  H   H663      1.0  0.43601  0.69465  0.16353  1.0000
  H   H664      1.0  0.25561  0.51330  0.12521  1.0000
  C   C377      1.0  0.48747  0.85600  0.17640  1.0000
  H   H665      1.0  0.38343  0.69129  0.26331  1.0000
  C   C378      1.0  0.20357  0.90938  0.13120  1.0000
  C   C379      1.0  0.05794  0.50924  0.24564  1.0000
  H   H666      1.0  0.24546  0.94667  0.16781  1.0000
  C   C380      1.0  0.28397  0.63625  0.14469  1.0000
  H   H667      1.0  0.10215  0.85794  0.20701  1.0000
  C   C381      1.0  0.09197  0.53408  0.25128  1.0000
  S   S83       1.0  0.09026  0.47594  0.15751  1.0000
  H   H668      1.0  0.13621  0.92305  0.12941  1.0000
  C   C382      1.0  0.35435  0.64806  0.26788  1.0000
  H   H669      1.0  0.17726  0.81747  0.07450  1.0000
  C   C383      1.0  0.08755  0.55979  0.22641  1.0000
  H   H670      1.0  0.11271  0.57691  0.23056  1.0000
  H   H671      1.0  0.13800  0.94642  0.07492  1.0000
  C   C384      1.0  0.01996  0.82830  0.05790  1.0000
  H   H672      1.0  0.33154  0.61295  0.11588  1.0000
  H   H673      1.0  0.08749  0.50145  0.31293  1.0000
  H   H674      1.0  0.06231  0.50152  0.21997  1.0000
  C   C385      1.0  0.48556  0.82242  0.06062  1.0000
  H   H675      1.0  0.14922  0.88069  0.16241  1.0000
  H   H676      1.0  0.47063  0.70466  0.19732  1.0000
  C   C386      1.0  0.48421  0.63054  0.04303  1.0000
  C   C387      1.0  0.31879  0.65304  0.16308  1.0000
  H   H677      1.0  0.02168  0.90230  0.19741  1.0000
  H   H678      1.0  0.26492  0.81780  0.03010  1.0000
  C   C388      1.0  0.32769  0.60123  0.04568  1.0000
  H   H679      1.0  0.31367  0.95305  0.34206  1.0000
  H   H680      1.0  0.49938  0.67531  0.12985  1.0000
  H   H681      1.0  0.27185  0.61809  0.16086  1.0000
  S   S84       1.0  0.19120  0.47583  0.21200  1.0000
  H   H682      1.0  0.15796  0.90835  0.07256  1.0000
  H   H683      1.0  0.10233  0.93981  0.28993  1.0000
  C   C389      1.0  0.47546  0.68150  0.02222  1.0000
  C   C390      1.0  0.49605  0.65336  0.02104  1.0000
  H   H684      1.0  0.50013  0.79568  0.11788  1.0000
  C   C391      1.0  0.46674  0.83380  0.02844  1.0000
  H   H685      1.0  0.02250  0.87312  0.03896  1.0000
  H   H686      1.0  0.48356  0.73671  0.14001  1.0000
  H   H687      1.0  0.17058  0.54354  0.02529  1.0000
  H   H688      1.0  0.50366  0.87736  0.18005  1.0000
  C   C392      1.0  0.51564  0.66857  0.15293  1.0000
  H   H689      1.0  0.01593  0.46685  0.20752  1.0000
  H   H690      1.0  0.02011  0.85559  0.56863  1.0000
  S   S85       1.0  0.08876  0.84701  0.40017  1.0000
  H   H691      1.0  0.12614  0.69990  0.48737  1.0000
  Fe  Fe44      1.0  0.15918  0.84478  0.40209  1.0000
  S   S86       1.0  0.18909  0.85342  0.45177  1.0000
  C   C393      1.0  0.11585  0.74024  0.54013  1.0000
  Fe  Fe45      1.0  0.31089  0.59189  0.40822  1.0000
  C   C394      1.0  0.34223  0.76071  0.39276  1.0000
  S   S87       1.0  0.28109  0.59876  0.45827  1.0000
  S   S88       1.0  0.40754  0.66778  0.35438  1.0000
  H   H692      1.0  0.31908  0.86797  0.65380  1.0000
  S   S89       1.0  0.38159  0.59296  0.40595  1.0000
  H   H693      1.0  0.47660  0.92027  0.61301  1.0000
  H   H694      1.0  0.46921  0.58039  0.36508  1.0000
  C   C395      1.0  0.44794  0.50600  0.40275  1.0000
  C   C396      1.0  0.46328  0.53001  0.42186  1.0000
  H   H695      1.0  0.19601  0.93803  0.39486  1.0000
  H   H696      1.0  0.45201  0.55276  0.41780  1.0000
  H   H697      1.0  0.24556  0.66169  0.66749  1.0000
  C   C397      1.0  0.19160  0.52630  0.49855  1.0000
  C   C398      1.0  0.20136  0.55193  0.51726  1.0000
  C   C399      1.0  0.22840  0.57427  0.50447  1.0000
  C   C400      1.0  0.24539  0.57126  0.47283  1.0000
  C   C401      1.0  0.23466  0.54602  0.45387  1.0000
  C   C402      1.0  0.20797  0.52356  0.46675  1.0000
  H   H698      1.0  0.18855  0.55425  0.54171  1.0000
  H   H699      1.0  0.23675  0.59365  0.51934  1.0000
  H   H700      1.0  0.24729  0.54353  0.42945  1.0000
  H   H701      1.0  0.20032  0.50383  0.45211  1.0000
  C   C403      1.0  0.21627  0.82376  0.47169  1.0000
  C   C404      1.0  0.22440  0.79639  0.45564  1.0000
  C   C405      1.0  0.24622  0.77315  0.47188  1.0000
  C   C406      1.0  0.25973  0.77680  0.50443  1.0000
  C   C407      1.0  0.25148  0.80414  0.52059  1.0000
  C   C408      1.0  0.22991  0.82758  0.50420  1.0000
  H   H702      1.0  0.21428  0.79327  0.43058  1.0000
  H   H703      1.0  0.25282  0.75244  0.45890  1.0000
  H   H704      1.0  0.26179  0.80729  0.54563  1.0000
  H   H705      1.0  0.22381  0.84876  0.51674  1.0000
  H   H706      1.0  0.04556  0.82255  0.55216  1.0000
  H   H707      1.0  0.23119  0.65429  0.44526  1.0000
  Fe  Fe46      1.0  0.31356  0.75084  0.57519  1.0000
  S   S90       1.0  0.30431  0.71104  0.60892  1.0000
  S   S91       1.0  0.28614  0.74645  0.52395  1.0000
  Fe  Fe47      1.0  0.37286  0.78160  0.62330  1.0000
  S   S92       1.0  0.36897  0.74407  0.66008  1.0000
  S   S93       1.0  0.41020  0.82406  0.63291  1.0000
  Fe  Fe48      1.0  0.37425  0.71304  0.61659  1.0000
  S   S94       1.0  0.41027  0.66862  0.61848  1.0000
  Fe  Fe49      1.0  0.29972  0.74552  0.64940  1.0000
  H   H708      1.0  0.40374  0.52684  0.55468  1.0000
  S   S95       1.0  0.38409  0.75065  0.58051  1.0000
  S   S96       1.0  0.30289  0.78531  0.61506  1.0000
  C   C409      1.0  0.51182  0.64831  0.54143  1.0000
  S   S97       1.0  0.06807  0.50136  0.57665  1.0000
  S   S98       1.0  0.04830  0.77056  0.36929  1.0000
  Fe  Fe50      1.0  0.15814  0.48295  0.63809  1.0000
  S   S99       1.0  0.15612  0.52681  0.61024  1.0000
  H   H709      1.0  0.50609  0.60203  0.55762  1.0000
  Fe  Fe51      1.0  0.08709  0.52517  0.62292  1.0000
  Fe  Fe52      1.0  0.09347  0.80953  0.36371  1.0000
  Fe  Fe53      1.0  0.13753  0.49840  0.56675  1.0000
  S   S100      1.0  0.15996  0.49692  0.51424  1.0000
  S   S101      1.0  0.09043  0.48301  0.65326  1.0000
  H   H710      1.0  0.50590  0.54312  0.46059  1.0000
  H   H711      1.0  0.08023  0.91291  0.66859  1.0000
  C   C410      1.0  0.44945  0.66129  0.58879  1.0000
  C   C411      1.0  0.46426  0.63156  0.58459  1.0000
  H   H712      1.0  0.37200  0.88301  0.65688  1.0000
  C   C412      1.0  0.46662  0.68461  0.56978  1.0000
  H   H713      1.0  0.45134  0.61343  0.59939  1.0000
  H   H714      1.0  0.45614  0.70766  0.57339  1.0000
  Fe  Fe54      1.0  0.37359  0.55485  0.37013  1.0000
  C   C413      1.0  0.49419  0.52457  0.44586  1.0000
  H   H715      1.0  0.45206  0.59095  0.47700  1.0000
  C   C414      1.0  0.44749  0.82255  0.66464  1.0000
  C   C415      1.0  0.33887  0.88603  0.66502  1.0000
  C   C416      1.0  0.32777  0.48146  0.43756  1.0000
  H   H716      1.0  0.32758  0.90838  0.65609  1.0000
  H   H717      1.0  0.12140  0.68167  0.52572  1.0000
  C   C417      1.0  0.09917  0.93856  0.52504  1.0000
  N   N22       1.0  0.36015  0.53081  0.51410  1.0000
  C   C418      1.0  0.38165  0.55567  0.49488  1.0000
  C   C419      1.0  0.33525  0.51053  0.49115  1.0000
  C   C420      1.0  0.32955  0.54564  0.53762  1.0000
  C   C421      1.0  0.40618  0.57966  0.51507  1.0000
  C   C422      1.0  0.29787  0.52398  0.55512  1.0000
  C   C423      1.0  0.35316  0.50543  0.45608  1.0000
  H   H718      1.0  0.32452  0.75234  0.37112  1.0000
  C   C424      1.0  0.42777  0.60237  0.49227  1.0000
  C   C425      1.0  0.27450  0.54014  0.58285  1.0000
  H   H719      1.0  0.35780  0.56806  0.47996  1.0000
  H   H720      1.0  0.40424  0.54622  0.47679  1.0000
  H   H721      1.0  0.51105  0.69627  0.53168  1.0000
  H   H722      1.0  0.30341  0.52031  0.48676  1.0000
  H   H723      1.0  0.31061  0.56317  0.52463  1.0000
  H   H724      1.0  0.34683  0.55803  0.55723  1.0000
  H   H725      1.0  0.44726  0.51575  0.50280  1.0000
  H   H726      1.0  0.02330  0.47261  0.38223  1.0000
  H   H727      1.0  0.38463  0.59278  0.53114  1.0000
  H   H728      1.0  0.43088  0.56888  0.53037  1.0000
  H   H729      1.0  0.10281  0.72660  0.56068  1.0000
  H   H730      1.0  0.35117  0.52678  0.44164  1.0000
  C   C426      1.0  0.14080  0.64744  0.45437  1.0000
  H   H731      1.0  0.13388  0.79441  0.49493  1.0000
  H   H732      1.0  0.31371  0.50408  0.56609  1.0000
  H   H733      1.0  0.29161  0.70729  0.45702  1.0000
  H   H734      1.0  0.40425  0.61341  0.47605  1.0000
  H   H735      1.0  0.12412  0.76311  0.54962  1.0000
  H   H736      1.0  0.10470  0.94891  0.66621  1.0000
  S   S102      1.0  0.05556  0.56693  0.64223  1.0000
  N   N23       1.0  0.04133  0.86376  0.49909  1.0000
  H   H737      1.0  0.47669  0.71387  0.63896  1.0000
  C   C427      1.0  0.07938  0.84341  0.49551  1.0000
  H   H738      1.0  0.13959  0.93970  0.39636  1.0000
  H   H739      1.0  0.22996  0.62560  0.58081  1.0000
  C   C428      1.0  0.37061  0.73549  0.40587  1.0000
  H   H740      1.0  0.29662  0.67677  0.42783  1.0000
  S   S103      1.0  0.41066  0.51154  0.37150  1.0000
  C   C429      1.0  0.07041  0.81045  0.48360  1.0000
  C   C430      1.0  0.11102  0.79396  0.47434  1.0000
  H   H741      1.0  0.36136  0.78063  0.38512  1.0000
  H   H742      1.0  0.11505  0.60150  0.45705  1.0000
  S   S104      1.0  0.30308  0.55173  0.37484  1.0000
  C   C431      1.0  0.20909  0.69100  0.47759  1.0000
  H   H743      1.0  0.05287  0.88315  0.45111  1.0000
  H   H744      1.0  0.48442  0.47175  0.52734  1.0000
  S   S105      1.0  0.16667  0.87860  0.36143  1.0000
  H   H745      1.0  0.45314  0.77393  0.66542  1.0000
  C   C432      1.0  0.49775  0.67813  0.54624  1.0000
  C   C433      1.0  0.13300  0.61601  0.43966  1.0000
  C   C434      1.0  0.05354  0.89155  0.51851  1.0000
  H   H746      1.0  0.06973  0.92490  0.48023  1.0000
  H   H747      1.0  0.10222  0.85354  0.47788  1.0000
  H   H748      1.0  0.16243  0.67485  0.57219  1.0000
  H   H749      1.0  0.30159  0.59150  0.64565  1.0000
  H   H750      1.0  0.35668  0.60949  0.60620  1.0000
  H   H751      1.0  0.05462  0.79707  0.50311  1.0000
  C   C435      1.0  0.21128  0.64542  0.58922  1.0000
  H   H752      1.0  0.04976  0.80996  0.46179  1.0000
  C   C436      1.0  0.15525  0.72505  0.52615  1.0000
  H   H753      1.0  0.10383  0.77003  0.46791  1.0000
  H   H754      1.0  0.36020  0.63011  0.66282  1.0000
  H   H755      1.0  0.37467  0.49347  0.54661  1.0000
  C   C437      1.0  0.10999  0.92518  0.67462  1.0000
  C   C438      1.0  0.08485  0.91361  0.50150  1.0000
  C   C439      1.0  0.18180  0.65610  0.56206  1.0000
  H   H756      1.0  0.19240  0.63846  0.61087  1.0000
  C   C440      1.0  0.46401  0.79503  0.67591  1.0000
  H   H757      1.0  0.46696  0.88010  0.60950  1.0000
  H   H758      1.0  0.15814  0.66095  0.43583  1.0000
  C   C441      1.0  0.49552  0.62508  0.56111  1.0000
  H   H759      1.0  0.22668  0.68671  0.53930  1.0000
  H   H760      1.0  0.10868  0.88264  0.62154  1.0000
  H   H761      1.0  0.22456  0.71047  0.49002  1.0000
  H   H762      1.0  0.44863  0.87111  0.66997  1.0000
  C   C442      1.0  0.46282  0.47659  0.40825  1.0000
  C   C443      1.0  0.20707  0.66693  0.53163  1.0000
  C   C444      1.0  0.12901  0.90300  0.61868  1.0000
  Fe  Fe55      1.0  0.09632  0.87748  0.35691  1.0000
  S   S106      1.0  0.16390  0.80437  0.36863  1.0000
  C   C445      1.0  0.16904  0.95103  0.40465  1.0000
  H   H763      1.0  0.47285  0.64812  0.40472  1.0000
  H   H764      1.0  0.28678  0.69848  0.36838  1.0000
  H   H765      1.0  0.09131  0.74276  0.52092  1.0000
  H   H766      1.0  0.07806  0.49775  0.47938  1.0000
  C   C446      1.0  0.42878  0.49844  0.51624  1.0000
  H   H767      1.0  0.16059  0.63691  0.55600  1.0000
  C   C447      1.0  0.45859  0.48327  0.54070  1.0000
  H   H768      1.0  0.23292  0.66400  0.59671  1.0000
  H   H769      1.0  0.17813  0.72263  0.54648  1.0000
  H   H770      1.0  0.25785  0.56051  0.57356  1.0000
  C   C448      1.0  0.17025  0.94882  0.44204  1.0000
  H   H771      1.0  0.19184  0.62876  0.48348  1.0000
  C   C449      1.0  0.24460  0.67188  0.46168  1.0000
  H   H772      1.0  0.14373  0.63328  0.50455  1.0000
  H   H773      1.0  0.23043  0.64889  0.52591  1.0000
  C   C450      1.0  0.14596  0.91319  0.65200  1.0000
  H   H774      1.0  0.16889  0.92460  0.44954  1.0000
  H   H775      1.0  0.11026  0.92127  0.60710  1.0000
  H   H776      1.0  0.12563  0.80471  0.45252  1.0000
  H   H777      1.0  0.44336  0.62030  0.50693  1.0000
  C   C451      1.0  0.27384  0.69150  0.44102  1.0000
  Fe  Fe56      1.0  0.37410  0.62300  0.36187  1.0000
  C   C452      1.0  0.49063  0.89832  0.60531  1.0000
  H   H778      1.0  0.15568  0.89722  0.60217  1.0000
  H   H779      1.0  0.09720  0.84182  0.51894  1.0000
  C   C453      1.0  0.50920  0.49506  0.45110  1.0000
  H   H780      1.0  0.19989  0.95882  0.45175  1.0000
  H   H781      1.0  0.25082  0.52448  0.59369  1.0000
  H   H782      1.0  0.10965  0.65824  0.45851  1.0000
  H   H783      1.0  0.16344  0.60477  0.43373  1.0000
  H   H784      1.0  0.51195  0.64024  0.43558  1.0000
  H   H785      1.0  0.16331  0.89378  0.66247  1.0000
  C   C454      1.0  0.32385  0.61817  0.60514  1.0000
  H   H786      1.0  0.26422  0.66069  0.48058  1.0000
  H   H787      1.0  0.11452  0.61821  0.41667  1.0000
  C   C455      1.0  0.39094  0.51270  0.53436  1.0000
  H   H788      1.0  0.23543  0.71580  0.36430  1.0000
  H   H789      1.0  0.14291  0.96085  0.45302  1.0000
  H   H790      1.0  0.07471  0.48647  0.37079  1.0000
  N   N24       1.0  0.18130  0.67430  0.50154  1.0000
  H   H791      1.0  0.49840  0.66539  0.66631  1.0000
  H   H792      1.0  0.35097  0.57566  0.67988  1.0000
  H   H793      1.0  0.16918  0.65840  0.67833  1.0000
  H   H794      1.0  0.26972  0.62335  0.63590  1.0000
  C   C456      1.0  0.49382  0.65859  0.42338  1.0000
  H   H795      1.0  0.29682  0.54696  0.60248  1.0000
  H   H796      1.0  0.25553  0.70479  0.42290  1.0000
  H   H797      1.0  0.47286  0.50046  0.55726  1.0000
  C   C457      1.0  0.49315  0.71351  0.66296  1.0000
  H   H798      1.0  0.07176  0.95162  0.53433  1.0000
  H   H799      1.0  0.17964  0.53271  0.68192  1.0000
  H   H800      1.0  0.27393  0.51541  0.53754  1.0000
  H   H801      1.0  0.19014  0.70148  0.45762  1.0000
  N   N25       1.0  0.41815  0.72240  0.45581  1.0000
  C   C458      1.0  0.44946  0.73765  0.47824  1.0000
  C   C459      1.0  0.44151  0.70121  0.43306  1.0000
  C   C460      1.0  0.39814  0.74678  0.43488  1.0000
  C   C461      1.0  0.38350  0.70584  0.47410  1.0000
  C   C462      1.0  0.39506  0.69095  0.50735  1.0000
  C   C463      1.0  0.43226  0.76490  0.49824  1.0000
  H   H802      1.0  0.32445  0.64215  0.59678  1.0000
  C   C464      1.0  0.46787  0.67566  0.44902  1.0000
  C   C465      1.0  0.35920  0.67094  0.52011  1.0000
  C   C466      1.0  0.46323  0.77453  0.52502  1.0000
  H   H803      1.0  0.06824  0.88474  0.54216  1.0000
  H   H804      1.0  0.47690  0.74619  0.46380  1.0000
  H   H805      1.0  0.46307  0.72127  0.49583  1.0000
  H   H806      1.0  0.41896  0.68927  0.41680  1.0000
  H   H807      1.0  0.46277  0.71448  0.41661  1.0000
  H   H808      1.0  0.42281  0.76194  0.42424  1.0000
  H   H809      1.0  0.37770  0.76167  0.45022  1.0000
  H   H810      1.0  0.35704  0.72155  0.47991  1.0000
  H   H811      1.0  0.36952  0.68790  0.45822  1.0000
  H   H812      1.0  0.40095  0.70869  0.52601  1.0000
  H   H813      1.0  0.42365  0.67686  0.50579  1.0000
  H   H814      1.0  0.42761  0.78482  0.48196  1.0000
  H   H815      1.0  0.40145  0.75935  0.50965  1.0000
  H   H816      1.0  0.35032  0.71619  0.41317  1.0000
  H   H817      1.0  0.30605  0.60471  0.58682  1.0000
  H   H818      1.0  0.49020  0.68441  0.46762  1.0000
  H   H819      1.0  0.44658  0.65876  0.46032  1.0000
  H   H820      1.0  0.33018  0.68460  0.52383  1.0000
  H   H821      1.0  0.35239  0.65223  0.50264  1.0000
  H   H822      1.0  0.36838  0.66088  0.54403  1.0000
  H   H823      1.0  0.49375  0.78160  0.51403  1.0000
  H   H824      1.0  0.45000  0.79401  0.53892  1.0000
  H   H825      1.0  0.46886  0.75564  0.54245  1.0000
  C   C467      1.0  0.16533  0.64491  0.48715  1.0000
  H   H826      1.0  0.31915  0.76785  0.41177  1.0000
  H   H827      1.0  0.39122  0.72795  0.38539  1.0000
  S   S107      1.0  0.30400  0.62568  0.36749  1.0000
  C   C468      1.0  0.14420  0.69416  0.50991  1.0000
  H   H828      1.0  0.16939  0.93162  0.64789  1.0000
  H   H829      1.0  0.11338  0.90151  0.49280  1.0000
  H   H830      1.0  0.41794  0.48057  0.49911  1.0000
  H   H831      1.0  0.16931  0.74060  0.50767  1.0000
  S   S108      1.0  0.05891  0.92101  0.35617  1.0000
  C   C469      1.0  0.04511  0.48933  0.48106  1.0000
  H   H832      1.0  0.11653  0.92864  0.54606  1.0000
  H   H833      1.0  0.18890  0.62106  0.66874  1.0000
  C   C470      1.0  0.30269  0.61572  0.63877  1.0000
  C   C471      1.0  0.32600  0.63548  0.66464  1.0000
  C   C472      1.0  0.02682  0.87237  0.46519  1.0000
  H   H834      1.0  0.32334  0.65933  0.65585  1.0000
  C   C473      1.0  0.04067  0.48705  0.36443  1.0000
  S   S109      1.0  0.20764  0.47049  0.67541  1.0000
  H   H835      1.0  0.49794  0.89954  0.57870  1.0000
  S   S110      1.0  0.02792  0.95101  0.61841  1.0000
  H   H836      1.0  0.32954  0.48797  0.50264  1.0000
  H   H837      1.0  0.02512  0.90485  0.52548  1.0000
  H   H838      1.0  0.11055  0.86403  0.68333  1.0000
  C   C474      1.0  0.49299  0.47109  0.43254  1.0000
  H   H839      1.0  0.34071  0.47890  0.41238  1.0000
  H   H840      1.0  0.38646  0.49821  0.45633  1.0000
  H   H841      1.0  0.03480  0.48975  0.50707  1.0000
  H   H842      1.0  0.46905  0.71390  0.68273  1.0000
  H   H843      1.0  0.01853  0.85181  0.45100  1.0000
  H   H844      1.0  0.26405  0.80363  0.67957  1.0000
  H   H845      1.0  0.51293  0.73413  0.66523  1.0000
  C   C475      1.0  0.46155  0.84980  0.67836  1.0000
  H   H846      1.0  0.12063  0.95453  0.51215  1.0000
  C   C476      1.0  0.50058  0.57572  0.35411  1.0000
  H   H847      1.0  0.25289  0.96138  0.37851  1.0000
  H   H848      1.0  0.02459  0.50489  0.46685  1.0000
  H   H849      1.0  0.50973  0.55210  0.36040  1.0000
  H   H850      1.0  0.02887  0.51069  0.36656  1.0000
  C   C477      1.0  0.01623  0.83612  0.55158  1.0000
  H   H851      1.0  0.29421  0.48840  0.43558  1.0000
  H   H852      1.0  0.51509  0.57293  0.63420  1.0000
  Fe  Fe57      1.0  0.08622  0.83055  0.85950  1.0000
  S   S111      1.0  0.08678  0.86982  0.89401  1.0000
  H   H853      1.0  0.32477  0.60768  0.74413  1.0000
  Fe  Fe58      1.0  0.15791  0.85536  0.81802  1.0000
  S   S112      1.0  0.16419  0.89664  0.85017  1.0000
  S   S113      1.0  0.19992  0.85582  0.77295  1.0000
  Fe  Fe59      1.0  0.15699  0.86434  0.89245  1.0000
  S   S114      1.0  0.19409  0.87055  0.93946  1.0000
  Fe  Fe60      1.0  0.09358  0.89810  0.84885  1.0000
  S   S115      1.0  0.05957  0.94285  0.84478  1.0000
  S   S116      1.0  0.15639  0.82283  0.86049  1.0000
  S   S117      1.0  0.08738  0.85918  0.81397  1.0000
  Fe  Fe61      1.0  0.36671  0.61064  0.85202  1.0000
  S   S118      1.0  0.36948  0.57256  0.81585  1.0000
  S   S119      1.0  0.40345  0.65444  0.84836  1.0000
  Fe  Fe62      1.0  0.29819  0.57969  0.89397  1.0000
  S   S120      1.0  0.29621  0.53870  0.86116  1.0000
  S   S121      1.0  0.25063  0.58906  0.93444  1.0000
  Fe  Fe63      1.0  0.36713  0.54321  0.86090  1.0000
  S   S122      1.0  0.40921  0.50211  0.86300  1.0000
  Fe  Fe64      1.0  0.29875  0.57165  0.81922  1.0000
  S   S123      1.0  0.25389  0.57503  0.77620  1.0000
  S   S124      1.0  0.36893  0.58146  0.89726  1.0000
  S   S125      1.0  0.29626  0.61252  0.85199  1.0000
  H   H854      1.0  0.18347  0.91093  0.71104  1.0000
  H   H855      1.0  0.09330  0.94766  0.75424  1.0000
  C   C478      1.0  0.45458  0.50273  0.88771  1.0000
  C   C479      1.0  0.46628  0.52828  0.90605  1.0000
  H   H856      1.0  0.35359  0.50462  0.95330  1.0000
  H   H857      1.0  0.44865  0.54911  0.90379  1.0000
  H   H858      1.0  0.35643  0.90301  0.71238  1.0000
  H   H859      1.0  0.17472  0.95013  0.70373  1.0000
  N   N26       1.0  0.11758  0.92437  0.71127  1.0000
  H   H860      1.0  0.16188  0.95987  0.76222  1.0000
  H   H861      1.0  0.23616  0.95798  0.74333  1.0000
  H   H862      1.0  0.06860  0.89223  0.72391  1.0000
  C   C480      1.0  0.20563  0.56343  0.98505  1.0000
  C   C481      1.0  0.24358  0.56345  0.96721  1.0000
  C   C482      1.0  0.27617  0.54425  0.97685  1.0000
  C   C483      1.0  0.27103  0.52537  0.00428  1.0000
  H   H863      1.0  0.07767  0.51219  0.72489  1.0000
  C   C484      1.0  0.11784  0.49074  0.98736  1.0000
  H   H864      1.0  0.30562  0.54471  0.96360  1.0000
  H   H865      1.0  0.42372  0.49489  0.00489  1.0000
  H   H866      1.0  0.50247  0.62217  0.76210  1.0000
  H   H867      1.0  0.18043  0.57856  0.97789  1.0000
  C   C485      1.0  0.21262  0.55085  0.72376  1.0000
  C   C486      1.0  0.24104  0.54508  0.74933  1.0000
  C   C487      1.0  0.25881  0.51618  0.75232  1.0000
  C   C488      1.0  0.24837  0.49332  0.72957  1.0000
  H   H868      1.0  0.07958  0.81932  0.94046  1.0000
  H   H869      1.0  0.19852  0.57307  0.72146  1.0000
  H   H870      1.0  0.28073  0.51154  0.77198  1.0000
  H   H871      1.0  0.10398  0.56379  0.71343  1.0000
  H   H872      1.0  0.25955  0.71931  0.83062  1.0000
  H   H873      1.0  0.26236  0.47104  0.73180  1.0000
  H   H874      1.0  0.17761  0.63132  0.71079  1.0000
  C   C489      1.0  0.21307  0.82292  0.75043  1.0000
  C   C490      1.0  0.23450  0.82628  0.72052  1.0000
  C   C491      1.0  0.24738  0.80073  0.70248  1.0000
  C   C492      1.0  0.36682  0.67325  0.71860  1.0000
  C   C493      1.0  0.21638  0.76817  0.74367  1.0000
  C   C494      1.0  0.20379  0.79377  0.76190  1.0000
  H   H875      1.0  0.24137  0.84875  0.71130  1.0000
  H   H876      1.0  0.11714  0.81641  0.71294  1.0000
  H   H877      1.0  0.18717  0.79093  0.78489  1.0000
  C   C495      1.0  0.21133  0.83789  0.96062  1.0000
  C   C496      1.0  0.20239  0.80884  0.94878  1.0000
  C   C497      1.0  0.21492  0.78315  0.96658  1.0000
  C   C498      1.0  0.23777  0.78620  0.99584  1.0000
  C   C499      1.0  0.34814  0.85305  0.71565  1.0000
  C   C500      1.0  0.23373  0.84101  0.99013  1.0000
  H   H878      1.0  0.18519  0.80615  0.92615  1.0000
  H   H879      1.0  0.20746  0.76078  0.95732  1.0000
  H   H880      1.0  0.21814  0.68454  0.98320  1.0000
  H   H881      1.0  0.48420  0.69915  0.00508  1.0000
  H   H882      1.0  0.12480  0.47283  0.73039  1.0000
  C   C501      1.0  0.47090  0.68527  0.82325  1.0000
  C   C502      1.0  0.44719  0.65841  0.82200  1.0000
  C   C503      1.0  0.45877  0.63556  0.79997  1.0000
  H   H883      1.0  0.46205  0.70306  0.84017  1.0000
  H   H884      1.0  0.44046  0.61493  0.79858  1.0000
  C   C504      1.0  0.09914  0.56908  0.73982  1.0000
  H   H885      1.0  0.41966  0.89333  0.73304  1.0000
  H   H886      1.0  0.35797  0.79769  0.94506  1.0000
  C   C505      1.0  0.49237  0.84968  0.70284  1.0000
  H   H887      1.0  0.20952  0.47449  0.91774  1.0000
  C   C506      1.0  0.26493  0.96608  0.88054  1.0000
  C   C507      1.0  0.38150  0.67946  0.95284  1.0000
  H   H888      1.0  0.40099  0.79404  0.74609  1.0000
  H   H889      1.0  0.37846  0.68943  0.90163  1.0000
  C   C508      1.0  0.26501  0.62630  0.70309  1.0000
  H   H890      1.0  0.26526  0.71795  0.89362  1.0000
  H   H891      1.0  0.37745  0.84562  0.70299  1.0000
  H   H892      1.0  0.12300  0.82056  0.96845  1.0000
  H   H893      1.0  0.30839  0.70846  0.97458  1.0000
  N   N27       1.0  0.32118  0.70758  0.92228  1.0000
  C   C509      1.0  0.20188  0.52798  0.70131  1.0000
  C   C510      1.0  0.32067  0.86729  0.80803  1.0000
  C   C511      1.0  0.50994  0.82235  0.71352  1.0000
  H   H894      1.0  0.40124  0.69977  0.95771  1.0000
  H   H895      1.0  0.30444  0.47161  0.97586  1.0000
  H   H896      1.0  0.14939  0.48509  0.76675  1.0000
  H   H897      1.0  0.10347  0.54772  0.78692  1.0000
  H   H898      1.0  0.08666  0.86849  0.96340  1.0000
  C   C512      1.0  0.10658  0.54090  0.76087  1.0000
  H   H899      1.0  0.41517  0.54970  0.01391  1.0000
  H   H900      1.0  0.30303  0.68153  0.70449  1.0000
  C   C513      1.0  0.09242  0.80947  0.96338  1.0000
  C   C514      1.0  0.36654  0.79214  0.74208  1.0000
  H   H901      1.0  0.25673  0.62222  0.72927  1.0000
  H   H902      1.0  0.23179  0.64492  0.98670  1.0000
  C   C515      1.0  0.49999  0.52647  0.92841  1.0000
  C   C516      1.0  0.29549  0.70533  0.89120  1.0000
  H   H903      1.0  0.36137  0.67538  0.97455  1.0000
  H   H904      1.0  0.42997  0.64966  0.97215  1.0000
  H   H905      1.0  0.03122  0.86220  0.96210  1.0000
  H   H906      1.0  0.25981  0.88985  0.81365  1.0000
  C   C517      1.0  0.12101  0.86542  0.70922  1.0000
  C   C518      1.0  0.09984  0.77570  0.95724  1.0000
  H   H907      1.0  0.30286  0.89019  0.70917  1.0000
  H   H908      1.0  0.08223  0.52422  0.86375  1.0000
  H   H909      1.0  0.36884  0.69709  0.71007  1.0000
  N   N28       1.0  0.08118  0.48545  0.76927  1.0000
  H   H910      1.0  0.36973  0.61432  0.71940  1.0000
  C   C519      1.0  0.40517  0.53951  0.99025  1.0000
  H   H911      1.0  0.37712  0.55202  0.98130  1.0000
  H   H912      1.0  0.36897  0.60862  0.00398  1.0000
  H   H913      1.0  0.13956  0.49650  0.96695  1.0000
  C   C520      1.0  0.38050  0.49095  0.96249  1.0000
  C   C521      1.0  0.10481  0.83666  0.72600  1.0000
  C   C522      1.0  0.34195  0.73822  0.92549  1.0000
  H   H914      1.0  0.06943  0.76374  0.95334  1.0000
  H   H915      1.0  0.41799  0.67980  0.75314  1.0000
  C   C523      1.0  0.08538  0.51623  0.98968  1.0000
  H   H916      1.0  0.30625  0.66242  0.74233  1.0000
  H   H917      1.0  0.05691  0.48794  0.87078  1.0000
  H   H918      1.0  0.36662  0.68782  0.76975  1.0000
  H   H919      1.0  0.11664  0.76535  0.97833  1.0000
  N   N29       1.0  0.31152  0.63296  0.69991  1.0000
  H   H920      1.0  0.24093  0.86343  0.99937  1.0000
  H   H921      1.0  0.50879  0.54481  0.74032  1.0000
  C   C524      1.0  0.50653  0.68907  0.80315  1.0000
  C   C525      1.0  0.04436  0.95070  0.71823  1.0000
  C   C526      1.0  0.51146  0.47419  0.91278  1.0000
  H   H922      1.0  0.15587  0.86498  0.71008  1.0000
  S   S126      1.0  0.04093  0.79189  0.86663  1.0000
  C   C527      1.0  0.24716  0.81523  0.00764  1.0000
  H   H923      1.0  0.13946  0.53348  0.75677  1.0000
  C   C528      1.0  0.47797  0.47599  0.89056  1.0000
  H   H924      1.0  0.06983  0.83582  0.72571  1.0000
  H   H925      1.0  0.51065  0.59340  0.84095  1.0000
  C   C529      1.0  0.39496  0.50588  0.99512  1.0000
  C   C530      1.0  0.04645  0.50703  0.82203  1.0000
  H   H926      1.0  0.40575  0.49445  0.94397  1.0000
  H   H927      1.0  0.29683  0.51151  0.01254  1.0000
  H   H928      1.0  0.46894  0.91533  0.77215  1.0000
  H   H929      1.0  0.10175  0.53825  0.99336  1.0000
  C   C531      1.0  0.31164  0.76573  0.92586  1.0000
  H   H930      1.0  0.35259  0.87016  0.81858  1.0000
  H   H931      1.0  0.06386  0.51239  0.01076  1.0000
  H   H932      1.0  0.36587  0.74158  0.90581  1.0000
  C   C532      1.0  0.16359  0.93040  0.71852  1.0000
  H   H933      1.0  0.28905  0.86465  0.76126  1.0000
  C   C533      1.0  0.35534  0.55343  0.72618  1.0000
  C   C534      1.0  0.38454  0.67232  0.75342  1.0000
  C   C535      1.0  0.49395  0.63965  0.77941  1.0000
  H   H934      1.0  0.02603  0.52227  0.87010  1.0000
  C   C536      1.0  0.34208  0.81707  0.76120  1.0000
  C   C537      1.0  0.31992  0.66275  0.71709  1.0000
  C   C538      1.0  0.05761  0.86878  0.97869  1.0000
  C   C539      1.0  0.33571  0.79572  0.92415  1.0000
  H   H935      1.0  0.11353  0.50127  0.81285  1.0000
  C   C540      1.0  0.07496  0.51534  0.75189  1.0000
  H   H936      1.0  0.25256  0.66539  0.93258  1.0000
  H   H937      1.0  0.06660  0.57778  0.74338  1.0000
  N   N30       1.0  0.06170  0.84632  0.00652  1.0000
  H   H938      1.0  0.29709  0.65285  0.95605  1.0000
  C   C541      1.0  0.12211  0.47162  0.75761  1.0000
  H   H939      1.0  0.26521  0.71886  0.95003  1.0000
  H   H940      1.0  0.28887  0.76521  0.90529  1.0000
  C   C542      1.0  0.35326  0.76050  0.75338  1.0000
  H   H941      1.0  0.34810  0.81276  0.78766  1.0000
  H   H942      1.0  0.28785  0.68380  0.82648  1.0000
  H   H943      1.0  0.50344  0.87094  0.71291  1.0000
  H   H944      1.0  0.33143  0.48523  0.90596  1.0000
  C   C543      1.0  0.41105  0.65230  0.94949  1.0000
  H   H945      1.0  0.32169  0.74152  0.85987  1.0000
  C   C544      1.0  0.23844  0.77155  0.71399  1.0000
  H   H946      1.0  0.23814  0.91786  0.75295  1.0000
  H   H947      1.0  0.23025  0.94528  0.78512  1.0000
  C   C545      1.0  0.29129  0.70879  0.82902  1.0000
  C   C546      1.0  0.29218  0.70277  0.95115  1.0000
  C   C547      1.0  0.27255  0.67062  0.95418  1.0000
  H   H948      1.0  0.47659  0.62814  0.88420  1.0000
  H   H949      1.0  0.31302  0.81487  0.92559  1.0000
  H   H950      1.0  0.06665  0.51760  0.96674  1.0000
  C   C548      1.0  0.32150  0.86970  0.77007  1.0000
  H   H951      1.0  0.45122  0.89029  0.80424  1.0000
  H   H952      1.0  0.30491  0.91476  0.81745  1.0000
  H   H953      1.0  0.43285  0.65565  0.92850  1.0000
  H   H954      1.0  0.34201  0.66134  0.91371  1.0000
  H   H955      1.0  0.48584  0.85276  0.01833  1.0000
  H   H956      1.0  0.43122  0.54235  0.97234  1.0000
  H   H957      1.0  0.11944  0.77276  0.93489  1.0000
  H   H958      1.0  0.35993  0.73958  0.94885  1.0000
  H   H959      1.0  0.30731  0.71753  0.80672  1.0000
  H   H960      1.0  0.28586  0.68134  0.88685  1.0000
  H   H961      1.0  0.35338  0.79747  0.90070  1.0000
  H   H962      1.0  0.16317  0.91996  0.77167  1.0000
  H   H963      1.0  0.30776  0.84497  0.81575  1.0000
  N   N31       1.0  0.35267  0.84954  0.75245  1.0000
  H   H964      1.0  0.38786  0.66036  0.70199  1.0000
  H   H965      1.0  0.50799  0.77371  0.70910  1.0000
  C   C549      1.0  0.39751  0.85548  0.76306  1.0000
  C   C550      1.0  0.41400  0.88834  0.75935  1.0000
  H   H966      1.0  0.39273  0.63113  0.94569  1.0000
  C   C551      1.0  0.45592  0.89243  0.77734  1.0000
  H   H967      1.0  0.32304  0.83770  0.70617  1.0000
  H   H968      1.0  0.32650  0.89393  0.76403  1.0000
  H   H969      1.0  0.37194  0.74328  0.73994  1.0000
  H   H970      1.0  0.12178  0.58717  0.74692  1.0000
  H   H971      1.0  0.40230  0.84814  0.78889  1.0000
  H   H972      1.0  0.41976  0.84128  0.74864  1.0000
  H   H973      1.0  0.39196  0.90532  0.76958  1.0000
  H   H974      1.0  0.37012  0.50433  0.01412  1.0000
  C   C552      1.0  0.09206  0.94948  0.72700  1.0000
  C   C553      1.0  0.20002  0.54372  0.01191  1.0000
  H   H975      1.0  0.23371  0.67030  0.70944  1.0000
  H   H976      1.0  0.03181  0.47702  0.71035  1.0000
  H   H977      1.0  0.50871  0.64043  0.91810  1.0000
  H   H978      1.0  0.11604  0.83554  0.75167  1.0000
  H   H979      1.0  0.38879  0.55978  0.73040  1.0000
  H   H980      1.0  0.06685  0.79721  0.01074  1.0000
  H   H981      1.0  0.35423  0.53052  0.71487  1.0000
  H   H982      1.0  0.07206  0.90946  0.00852  1.0000
  H   H983      1.0  0.30779  0.81273  0.75746  1.0000
  C   C554      1.0  0.49539  0.79493  0.70031  1.0000
  H   H984      1.0  0.31424  0.60348  0.99322  1.0000
  H   H985      1.0  0.50553  0.57253  0.79227  1.0000
  H   H986      1.0  0.04270  0.53006  0.81156  1.0000
  C   C555      1.0  0.29250  0.89177  0.82311  1.0000
  C   C556      1.0  0.21997  0.49921  0.70397  1.0000
  H   H987      1.0  0.02744  0.93105  0.72897  1.0000
  H   H988      1.0  0.34885  0.70606  0.85625  1.0000
  C   C557      1.0  0.33566  0.60872  0.71812  1.0000
  C   C558      1.0  0.05031  0.90237  0.98864  1.0000
  H   H989      1.0  0.33870  0.55227  0.75008  1.0000
  H   H990      1.0  0.29149  0.88900  0.85017  1.0000
  H   H991      1.0  0.31931  0.75654  0.74823  1.0000
  H   H992      1.0  0.35921  0.75759  0.78003  1.0000
  H   H993      1.0  0.11047  0.89343  0.75224  1.0000
  C   C559      1.0  0.17515  0.93762  0.75472  1.0000
  C   C560      1.0  0.35525  0.68376  0.92107  1.0000
  C   C561      1.0  0.31745  0.71654  0.85937  1.0000
  H   H994      1.0  0.29381  0.76575  0.94912  1.0000
  H   H995      1.0  0.01738  0.90540  0.99714  1.0000
  C   C562      1.0  0.08363  0.48963  0.80594  1.0000
  H   H996      1.0  0.36047  0.79356  0.71532  1.0000
  C   C563      1.0  0.22291  0.93979  0.75918  1.0000
  H   H997      1.0  0.47928  0.87520  0.76932  1.0000
  H   H998      1.0  0.08965  0.92307  0.95079  1.0000
  C   C564      1.0  0.10334  0.89446  0.72563  1.0000
  H   H999      1.0  0.20922  0.74566  0.75269  1.0000
  C   C565      1.0  0.06108  0.81482  0.99191  1.0000
  C   C566      1.0  0.33600  0.88488  0.70240  1.0000
  H   H1000     1.0  0.25292  0.94306  0.88667  1.0000
  H   H1001     1.0  0.12607  0.86355  0.00850  1.0000
  H   H1002     1.0  0.04241  0.52411  0.75582  1.0000
  H   H1003     1.0  0.13643  0.49061  0.01032  1.0000
  H   H1004     1.0  0.02912  0.80937  0.98231  1.0000
  H   H1005     1.0  0.33197  0.63875  0.01137  1.0000
  H   H1006     1.0  0.38290  0.64903  0.76365  1.0000
  C   C567      1.0  0.33383  0.57630  0.70360  1.0000
  H   H1007     1.0  0.04918  0.94736  0.96739  1.0000
  C   C568      1.0  0.05346  0.51052  0.85893  1.0000
  C   C569      1.0  0.05651  0.92381  0.95960  1.0000
  C   C570      1.0  0.33605  0.61375  0.01139  1.0000
  C   C571      1.0  0.24480  0.66828  0.98473  1.0000
  H   H1008     1.0  0.26342  0.67331  0.00713  1.0000
  C   C572      1.0  0.50872  0.63560  0.89137  1.0000
  H   H1009     1.0  0.50775  0.54581  0.94356  1.0000
  H   H1010     1.0  0.03902  0.95085  0.69141  1.0000
  H   H1011     1.0  0.25651  0.60489  0.69046  1.0000
  H   H1012     1.0  0.30100  0.56848  0.69992  1.0000
  H   H1013     1.0  0.03497  0.91765  0.93917  1.0000
  S   S127      1.0  0.25469  0.73903  0.69196  1.0000
  S   S128      1.0  0.25556  0.75308  0.01578  1.0000
  H   H1014     1.0  0.46505  0.81513  0.01019  1.0000
  H   H1015     1.0  0.01932  0.80978  0.79938  1.0000
  H   H1016     1.0  0.29158  0.96372  0.86305  1.0000
  C   C573      1.0  0.23490  0.65170  0.69105  1.0000
  H   H1017     1.0  0.01634  0.49468  0.81860  1.0000
  H   H1018     1.0  0.17680  0.96515  0.89004  1.0000
  C   C574      1.0  0.18994  0.63978  0.68696  1.0000
  H   H1019     1.0  0.08490  0.46718  0.81842  1.0000
  H   H1020     1.0  0.97684  0.16182  0.12943  1.0000
  H   H1021     1.0  0.68690  0.35016  0.35119  1.0000
  H   H1022     1.0  0.53440  0.16851  0.09442  1.0000
  H   H1023     1.0  0.56368  0.07211  0.22380  1.0000
  H   H1024     1.0  0.61158  0.03117  0.25459  1.0000
  C   C575      1.0  0.72496  0.03667  0.34034  1.0000
  Fe  Fe65      1.0  0.67206  0.23301  0.19828  1.0000
  S   S129      1.0  0.67530  0.27613  0.22738  1.0000
  S   S130      1.0  0.71843  0.22013  0.15886  1.0000
  Fe  Fe66      1.0  0.60185  0.20623  0.24072  1.0000
  S   S131      1.0  0.59999  0.24685  0.27375  1.0000
  S   S132      1.0  0.56351  0.16328  0.24602  1.0000
  Fe  Fe67      1.0  0.60424  0.27308  0.22668  1.0000
  H   H1025     1.0  0.59792  0.07403  0.18852  1.0000
  Fe  Fe68      1.0  0.67071  0.24607  0.27159  1.0000
  H   H1026     1.0  0.66812  0.36115  0.29214  1.0000
  S   S133      1.0  0.60161  0.23254  0.19359  1.0000
  S   S134      1.0  0.67212  0.20300  0.24246  1.0000
  C   C576      1.0  0.00151  0.98056  0.04674  1.0000
  S   S135      1.0  0.79280  0.03991  0.23765  1.0000
  H   H1027     1.0  0.69382  0.00358  0.04882  1.0000
  C   C577      1.0  0.98143  0.43277  0.04534  1.0000
  C   C578      1.0  0.89256  0.42640  0.11536  1.0000
  S   S136      1.0  0.87455  0.39420  0.26245  1.0000
  C   C579      1.0  0.57822  0.08762  0.20556  1.0000
  S   S137      1.0  0.73392  0.00451  0.31595  1.0000
  Fe  Fe69      1.0  0.86192  0.03869  0.24936  1.0000
  S   S138      1.0  0.89443  0.08415  0.25039  1.0000
  C   C580      1.0  0.98173  0.36552  0.30573  1.0000
  H   H1028     1.0  0.99279  0.15071  0.19320  1.0000
  H   H1029     1.0  0.90827  0.20426  0.04502  1.0000
  H   H1030     1.0  0.77765  0.15786  0.03352  1.0000
  C   C581      1.0  0.96328  0.41301  0.33142  1.0000
  H   H1031     1.0  0.63173  0.12313  0.32067  1.0000
  H   H1032     1.0  0.90796  0.43526  0.31226  1.0000
  S   S139      1.0  0.57727  0.09273  0.02981  1.0000
  H   H1033     1.0  0.66625  0.06191  0.16472  1.0000
  H   H1034     1.0  0.77982  0.43851  0.32850  1.0000
  H   H1035     1.0  0.91238  0.31348  0.32511  1.0000
  C   C582      1.0  0.64813  0.35760  0.04165  1.0000
  H   H1036     1.0  0.70401  0.97542  0.09793  1.0000
  C   C583      1.0  0.68991  0.05287  0.14835  1.0000
  H   H1037     1.0  0.99978  0.96863  0.34308  1.0000
  C   C584      1.0  0.63537  0.02115  0.27130  1.0000
  H   H1038     1.0  0.72125  0.05660  0.06873  1.0000
  H   H1039     1.0  0.77549  0.02106  0.09007  1.0000
  H   H1040     1.0  0.80267  0.38835  0.30854  1.0000
  C   C585      1.0  0.65857  0.42624  0.20103  1.0000
  C   C586      1.0  0.94912  0.12102  0.21784  1.0000
  C   C587      1.0  0.93484  0.09119  0.22174  1.0000
  C   C588      1.0  0.95330  0.06792  0.20323  1.0000
  C   C589      1.0  0.77372  0.39050  0.32366  1.0000
  H   H1041     1.0  0.93505  0.13907  0.23209  1.0000
  H   H1042     1.0  0.66047  0.03810  0.27644  1.0000
  H   H1043     1.0  0.71983  0.02592  0.18588  1.0000
  C   C590      1.0  0.68975  0.06105  0.11515  1.0000
  C   C591      1.0  0.72663  0.09111  0.34889  1.0000
  S   S140      1.0  0.75554  0.32255  0.05425  1.0000
  C   C592      1.0  0.94626  0.36778  0.28539  1.0000
  C   C593      1.0  0.91949  0.39289  0.28761  1.0000
  C   C594      1.0  0.92847  0.41584  0.31029  1.0000
  H   H1044     1.0  0.93988  0.35018  0.26755  1.0000
  H   H1045     1.0  0.79800  0.39810  0.05846  1.0000
  H   H1046     1.0  0.74617  0.39208  0.30698  1.0000
  C   C595      1.0  0.85972  0.97813  0.08527  1.0000
  H   H1047     1.0  0.62719  0.42657  0.21318  1.0000
  C   C596      1.0  0.87982  0.21424  0.05669  1.0000
  H   H1048     1.0  0.90460  0.45453  0.07369  1.0000
  H   H1049     1.0  0.67959  0.30633  0.31287  1.0000
  H   H1050     1.0  0.59101  0.99312  0.29772  1.0000
  S   S141      1.0  0.85446  0.00838  0.29348  1.0000
  C   C597      1.0  0.63996  0.35564  0.27710  1.0000
  H   H1051     1.0  0.61644  0.99295  0.02103  1.0000
  C   C598      1.0  0.74623  0.29362  0.08293  1.0000
  C   C599      1.0  0.71213  0.29672  0.10451  1.0000
  C   C600      1.0  0.70370  0.27435  0.12808  1.0000
  C   C601      1.0  0.72901  0.24853  0.12978  1.0000
  C   C602      1.0  0.76294  0.24521  0.10797  1.0000
  C   C603      1.0  0.77173  0.26783  0.08461  1.0000
  H   H1052     1.0  0.69226  0.31652  0.10294  1.0000
  H   H1053     1.0  0.67749  0.27689  0.14480  1.0000
  H   H1054     1.0  0.78280  0.22538  0.10954  1.0000
  H   H1055     1.0  0.79821  0.26548  0.06809  1.0000
  C   C604      1.0  0.75119  0.02956  0.10619  1.0000
  H   H1056     1.0  0.80962  0.35442  0.17021  1.0000
  C   C605      1.0  0.72070  0.04968  0.09414  1.0000
  H   H1057     1.0  0.52411  0.11610  0.20500  1.0000
  H   H1058     1.0  0.63768  0.46624  0.05593  1.0000
  H   H1059     1.0  0.56335  0.45682  0.07278  1.0000
  H   H1060     1.0  0.63262  0.15737  0.29646  1.0000
  C   C606      1.0  0.61516  0.18930  0.08748  1.0000
  H   H1061     1.0  0.85937  0.29311  0.26781  1.0000
  Fe  Fe70      1.0  0.78639  0.00646  0.27864  1.0000
  C   C607      1.0  0.78612  0.37179  0.16287  1.0000
  H   H1062     1.0  0.53523  0.08665  0.11605  1.0000
  H   H1063     1.0  0.85540  0.32505  0.29509  1.0000
  H   H1064     1.0  0.64142  0.20504  0.09351  1.0000
  C   C608      1.0  0.75071  0.02076  0.13919  1.0000
  S   S142      1.0  0.78777  0.99438  0.15320  1.0000
  N   N32       1.0  0.67277  0.39410  0.19442  1.0000
  C   C609      1.0  0.67615  0.37814  0.22708  1.0000
  C   C610      1.0  0.71552  0.39550  0.17768  1.0000
  C   C611      1.0  0.59534  0.03785  0.32226  1.0000
  C   C612      1.0  0.64063  0.37935  0.17226  1.0000
  C   C613      1.0  0.64640  0.34514  0.16551  1.0000
  C   C614      1.0  0.63584  0.37797  0.24869  1.0000
  Fe  Fe71      1.0  0.84545  0.43996  0.25323  1.0000
  C   C615      1.0  0.74766  0.36986  0.18540  1.0000
  C   C616      1.0  0.97101  0.22582  0.30268  1.0000
  C   C617      1.0  0.61277  0.33352  0.14172  1.0000
  H   H1065     1.0  0.84427  0.33296  0.35204  1.0000
  H   H1066     1.0  0.70146  0.38895  0.24206  1.0000
  H   H1067     1.0  0.68604  0.35418  0.22385  1.0000
  H   H1068     1.0  0.71189  0.39688  0.15055  1.0000
  H   H1069     1.0  0.73242  0.41673  0.18450  1.0000
  H   H1070     1.0  0.68083  0.43747  0.21844  1.0000
  C   C618      1.0  0.57573  0.29219  0.34838  1.0000
  H   H1071     1.0  0.60815  0.38276  0.18191  1.0000
  H   H1072     1.0  0.64078  0.39052  0.14782  1.0000
  H   H1073     1.0  0.64371  0.33180  0.18842  1.0000
  H   H1074     1.0  0.67736  0.34082  0.15406  1.0000
  H   H1075     1.0  0.63062  0.40076  0.25959  1.0000
  H   H1076     1.0  0.60753  0.37157  0.23445  1.0000
  H   H1077     1.0  0.96916  0.43014  0.34980  1.0000
  H   H1078     1.0  0.75919  0.37218  0.21102  1.0000
  H   H1079     1.0  0.73390  0.34692  0.18271  1.0000
  Fe  Fe72      1.0  0.80723  0.99978  0.20595  1.0000
  H   H1080     1.0  0.61720  0.34374  0.11708  1.0000
  H   H1081     1.0  0.00059  0.05648  0.16705  1.0000
  H   H1082     1.0  0.58067  0.33901  0.15078  1.0000
  H   H1083     1.0  0.88276  0.21197  0.08371  1.0000
  H   H1084     1.0  0.89212  0.40535  0.10035  1.0000
  H   H1085     1.0  0.52658  0.01318  0.28638  1.0000
  H   H1086     1.0  0.68159  0.44584  0.15424  1.0000
  H   H1087     1.0  0.80156  0.32738  0.25205  1.0000
  C   C619      1.0  0.97600  0.37821  0.04986  1.0000
  H   H1088     1.0  0.81143  0.29085  0.33392  1.0000
  C   C620      1.0  0.69840  0.30428  0.33481  1.0000
  C   C621      1.0  0.69268  0.41773  0.04389  1.0000
  C   C622      1.0  0.01185  0.37796  0.07006  1.0000
  H   H1089     1.0  0.62831  0.16942  0.07427  1.0000
  H   H1090     1.0  0.58960  0.19999  0.33505  1.0000
  H   H1091     1.0  0.95268  0.43836  0.22867  1.0000
  H   H1092     1.0  0.77170  0.43244  0.07097  1.0000
  H   H1093     1.0  0.80119  0.39453  0.16467  1.0000
  H   H1094     1.0  0.77023  0.36986  0.33899  1.0000
  H   H1095     1.0  0.84191  0.17413  0.05344  1.0000
  N   N33       1.0  0.53264  0.14538  0.14127  1.0000
  C   C623      1.0  0.98981  0.38766  0.32943  1.0000
  C   C624      1.0  0.84014  0.30350  0.28757  1.0000
  H   H1096     1.0  0.55347  0.97876  0.05387  1.0000
  C   C625      1.0  0.52033  0.16384  0.27319  1.0000
  H   H1097     1.0  0.77690  0.36740  0.13703  1.0000
  H   H1098     1.0  0.96051  0.35715  0.04361  1.0000
  C   C626      1.0  0.72029  0.03265  0.16037  1.0000
  H   H1099     1.0  0.63310  0.97890  0.07617  1.0000
  H   H1100     1.0  0.86943  0.42388  0.13567  1.0000
  S   S143      1.0  0.71576  0.24587  0.31460  1.0000
  H   H1101     1.0  0.51614  0.10805  0.08179  1.0000
  C   C627      1.0  0.73681  0.40469  0.03575  1.0000
  S   S144      1.0  0.65086  0.08575  0.10060  1.0000
  H   H1102     1.0  0.82526  0.97417  0.08413  1.0000
  H   H1103     1.0  0.96197  0.19858  0.11403  1.0000
  Fe  Fe73      1.0  0.81244  0.32117  0.02114  1.0000
  C   C628      1.0  0.89793  0.30126  0.34623  1.0000
  C   C629      1.0  0.52678  0.01374  0.34033  1.0000
  H   H1104     1.0  0.58430  0.14237  0.17595  1.0000
  H   H1105     1.0  0.00274  0.34665  0.30283  1.0000
  H   H1106     1.0  0.62573  0.43974  0.15587  1.0000
  C   C630      1.0  0.73611  0.06565  0.32951  1.0000
  C   C631      1.0  0.79719  0.31164  0.27305  1.0000
  H   H1107     1.0  0.91507  0.27089  0.29213  1.0000
  H   H1108     1.0  0.54144  0.18208  0.17621  1.0000
  H   H1109     1.0  0.77722  0.32309  0.29172  1.0000
  C   C632      1.0  0.77598  0.41888  0.34517  1.0000
  H   H1110     1.0  0.70579  0.09113  0.26723  1.0000
  S   S145      1.0  0.87687  0.00069  0.21480  1.0000
  H   H1111     1.0  0.98207  0.24227  0.28389  1.0000
  C   C633      1.0  0.65361  0.44685  0.17041  1.0000
  H   H1112     1.0  0.98124  0.41881  0.19682  1.0000
  H   H1113     1.0  0.61727  0.16834  0.13488  1.0000
  H   H1114     1.0  0.68276  0.40919  0.06842  1.0000
  C   C634      1.0  0.59323  0.17920  0.11901  1.0000
  H   H1115     1.0  0.81994  0.26043  0.30665  1.0000
  C   C635      1.0  0.96083  0.40566  0.03741  1.0000
  H   H1116     1.0  0.87141  0.98356  0.06025  1.0000
  Fe  Fe74      1.0  0.64431  0.08895  0.04567  1.0000
  C   C636      1.0  0.98170  0.12762  0.19576  1.0000
  H   H1117     1.0  0.94283  0.04480  0.20631  1.0000
  H   H1118     1.0  0.93492  0.22455  0.34702  1.0000
  C   C637      1.0  0.76693  0.40815  0.06477  1.0000
  H   H1119     1.0  0.75446  0.39597  0.08656  1.0000
  H   H1120     1.0  0.81280  0.20884  0.05730  1.0000
  H   H1121     1.0  0.78065  0.29094  0.26421  1.0000
  H   H1122     1.0  0.57051  0.13783  0.09750  1.0000
  C   C638      1.0  0.94344  0.24165  0.32819  1.0000
  H   H1123     1.0  0.54674  0.46194  0.03058  1.0000
  C   C639      1.0  0.96965  0.97555  0.02340  1.0000
  C   C640      1.0  0.98293  0.42702  0.22254  1.0000
  C   C641      1.0  0.62045  0.19839  0.34765  1.0000
  H   H1124     1.0  0.58485  0.14592  0.31766  1.0000
  C   C642      1.0  0.53134  0.08252  0.35244  1.0000
  H   H1125     1.0  0.92472  0.42917  0.12573  1.0000
  C   C643      1.0  0.61975  0.14674  0.31904  1.0000
  C   C644      1.0  0.51836  0.31315  0.19552  1.0000
  H   H1126     1.0  0.99911  0.21599  0.31496  1.0000
  H   H1127     1.0  0.87826  0.23880  0.05063  1.0000
  H   H1128     1.0  0.75212  0.06840  0.30628  1.0000
  C   C645      1.0  0.56302  0.12706  0.16187  1.0000
  C   C646      1.0  0.98613  0.07453  0.18107  1.0000
  H   H1129     1.0  0.64002  0.00004  0.31828  1.0000
  H   H1130     1.0  0.56317  0.24538  0.33803  1.0000
  C   C647      1.0  0.98892  0.18464  0.12264  1.0000
  H   H1131     1.0  0.67559  0.35895  0.05838  1.0000
  N   N34       1.0  0.76962  0.13081  0.18696  1.0000
  C   C648      1.0  0.74216  0.13527  0.15715  1.0000
  C   C649      1.0  0.74682  0.11005  0.21044  1.0000
  C   C650      1.0  0.77787  0.16137  0.20240  1.0000
  C   C651      1.0  0.81128  0.11658  0.17797  1.0000
  C   C652      1.0  0.80864  0.08632  0.15859  1.0000
  C   C653      1.0  0.76296  0.15159  0.12754  1.0000
  C   C654      1.0  0.80247  0.16107  0.23532  1.0000
  C   C655      1.0  0.70630  0.12306  0.22648  1.0000
  C   C656      1.0  0.68440  0.09915  0.24759  1.0000
  C   C657      1.0  0.85247  0.07420  0.15040  1.0000
  C   C658      1.0  0.73076  0.15688  0.10026  1.0000
  C   C659      1.0  0.80513  0.19296  0.25001  1.0000
  H   H1132     1.0  0.71388  0.14889  0.16372  1.0000
  H   H1133     1.0  0.72946  0.11322  0.14823  1.0000
  H   H1134     1.0  0.73728  0.08881  0.19775  1.0000
  H   H1135     1.0  0.76823  0.10264  0.23047  1.0000
  H   H1136     1.0  0.74778  0.17382  0.20622  1.0000
  H   H1137     1.0  0.79640  0.17601  0.18551  1.0000
  H   H1138     1.0  0.83108  0.13280  0.16377  1.0000
  H   H1139     1.0  0.82979  0.11147  0.20049  1.0000
  H   H1140     1.0  0.79113  0.08888  0.13528  1.0000
  H   H1141     1.0  0.79265  0.06874  0.17339  1.0000
  H   H1142     1.0  0.77579  0.17395  0.13475  1.0000
  H   H1143     1.0  0.78918  0.13809  0.11708  1.0000
  H   H1144     1.0  0.83518  0.15288  0.23149  1.0000
  H   H1145     1.0  0.78716  0.14631  0.25384  1.0000
  H   H1146     1.0  0.71397  0.14248  0.24268  1.0000
  H   H1147     1.0  0.68335  0.13069  0.20775  1.0000
  H   H1148     1.0  0.67448  0.07952  0.23233  1.0000
  H   H1149     1.0  0.59848  0.10407  0.21884  1.0000
  H   H1150     1.0  0.65603  0.10915  0.25932  1.0000
  H   H1151     1.0  0.84950  0.05269  0.13636  1.0000
  H   H1152     1.0  0.87043  0.09080  0.13539  1.0000
  H   H1153     1.0  0.87016  0.06933  0.17327  1.0000
  H   H1154     1.0  0.70223  0.16834  0.11001  1.0000
  H   H1155     1.0  0.74454  0.17187  0.08128  1.0000
  H   H1156     1.0  0.72135  0.13498  0.08890  1.0000
  H   H1157     1.0  0.77309  0.20170  0.25569  1.0000
  H   H1158     1.0  0.82351  0.19228  0.27316  1.0000
  H   H1159     1.0  0.82098  0.20876  0.23270  1.0000
  H   H1160     1.0  0.64254  0.33210  0.26762  1.0000
  H   H1161     1.0  0.61941  0.36374  0.05563  1.0000
  C   C660      1.0  0.61754  0.42377  0.03212  1.0000
  H   H1162     1.0  0.84980  0.44889  0.08304  1.0000
  C   C661      1.0  0.55643  0.15694  0.11162  1.0000
  S   S146      1.0  0.77642  0.44375  0.24280  1.0000
  C   C662      1.0  0.90361  0.25578  0.31213  1.0000
  H   H1163     1.0  0.58460  0.11365  0.14588  1.0000
  H   H1164     1.0  0.54557  0.08930  0.32873  1.0000
  H   H1165     1.0  0.69754  0.44249  0.04719  1.0000
  S   S147      1.0  0.88035  0.32318  0.03641  1.0000
  H   H1166     1.0  0.81285  0.22530  0.34511  1.0000
  C   C663      1.0  0.70133  0.98261  0.03470  1.0000
  H   H1167     1.0  0.61509  0.30848  0.13940  1.0000
  H   H1168     1.0  0.75657  0.03159  0.02268  1.0000
  H   H1169     1.0  0.59268  0.20133  0.07119  1.0000
  H   H1170     1.0  0.73513  0.11355  0.34040  1.0000
  H   H1171     1.0  0.61092  0.41346  0.05648  1.0000
  H   H1172     1.0  0.80689  0.10727  0.04707  1.0000
  H   H1173     1.0  0.62229  0.05199  0.33108  1.0000
  H   H1174     1.0  0.61150  0.35692  0.29292  1.0000
  C   C664      1.0  0.54373  0.10434  0.18673  1.0000
  H   H1175     1.0  0.64285  0.20965  0.33048  1.0000
  H   H1176     1.0  0.58161  0.19995  0.13139  1.0000
  C   C665      1.0  0.83510  0.28119  0.31678  1.0000
  S   S148      1.0  0.56423  0.31470  0.21996  1.0000
  H   H1177     1.0  0.96979  0.45393  0.03562  1.0000
  H   H1178     1.0  0.98720  0.40710  0.23883  1.0000
  H   H1179     1.0  0.95330  0.20717  0.29056  1.0000
  H   H1180     1.0  0.59994  0.29482  0.32888  1.0000
  C   C666      1.0  0.84000  0.19801  0.04501  1.0000
  C   C667      1.0  0.88126  0.45354  0.09381  1.0000
  H   H1181     1.0  0.52670  0.21100  0.28574  1.0000
  C   C668      1.0  0.74940  0.98253  0.02750  1.0000
  Fe  Fe75      1.0  0.86325  0.97022  0.25762  1.0000
  H   H1182     1.0  0.96309  0.25925  0.34012  1.0000
  H   H1183     1.0  0.73523  0.38033  0.02958  1.0000
  H   H1184     1.0  0.88597  0.23737  0.29942  1.0000
  H   H1185     1.0  0.75269  0.20665  0.03011  1.0000
  N   N35       1.0  0.87498  0.27316  0.33491  1.0000
  H   H1186     1.0  0.57879  0.05245  0.30431  1.0000
  C   C669      1.0  0.61142  0.96865  0.02728  1.0000
  C   C670      1.0  0.71906  0.27701  0.34143  1.0000
  H   H1187     1.0  0.93650  0.97124  0.30730  1.0000
  H   H1188     1.0  0.00680  0.16925  0.07506  1.0000
  H   H1189     1.0  0.86607  0.99780  0.10158  1.0000
  H   H1190     1.0  0.65018  0.00141  0.25888  1.0000
  N   N36       1.0  0.56704  0.02949  0.35068  1.0000
  H   H1191     1.0  0.67655  0.21538  0.02709  1.0000
  H   H1192     1.0  0.53135  0.98870  0.33901  1.0000
  C   C671      1.0  0.00057  0.10439  0.17758  1.0000
  C   C672      1.0  0.51645  0.17282  0.15990  1.0000
  C   C673      1.0  0.61475  0.45863  0.03716  1.0000
  C   C674      1.0  0.63364  0.16449  0.34924  1.0000
  H   H1193     1.0  0.00291  0.19520  0.14484  1.0000
  H   H1194     1.0  0.76784  0.98252  0.05043  1.0000
  H   H1195     1.0  0.86437  0.20867  0.34225  1.0000
  H   H1196     1.0  0.63999  0.30983  0.05313  1.0000
  H   H1197     1.0  0.66857  0.16296  0.35060  1.0000
  C   C675      1.0  0.61489  0.01076  0.30332  1.0000
  H   H1198     1.0  0.52437  0.08684  0.17429  1.0000
  C   C676      1.0  0.64354  0.32446  0.03112  1.0000
  H   H1199     1.0  0.54491  0.29956  0.33825  1.0000
  H   H1200     1.0  0.00986  0.22378  0.07241  1.0000
  H   H1201     1.0  0.51749  0.26467  0.18856  1.0000
  C   C677      1.0  0.80718  0.10285  0.02024  1.0000
  Fe  Fe76      1.0  0.83614  0.30609  0.48785  1.0000
  S   S149      1.0  0.84518  0.34484  0.45309  1.0000
  S   S150      1.0  0.86713  0.26065  0.48153  1.0000
  Fe  Fe77      1.0  0.77477  0.34789  0.45468  1.0000
  S   S151      1.0  0.73433  0.35785  0.41070  1.0000
  S   S152      1.0  0.76522  0.30704  0.48636  1.0000
  Fe  Fe78      1.0  0.65942  0.11349  0.45026  1.0000
  C   C678      1.0  0.81573  0.39901  0.61861  1.0000
  S   S153      1.0  0.69466  0.11991  0.40280  1.0000
  Fe  Fe79      1.0  0.66701  0.11327  0.52463  1.0000
  N   N37       1.0  0.81844  0.44315  0.39323  1.0000
  S   S154      1.0  0.58881  0.11453  0.45111  1.0000
  C   C679      1.0  0.70634  0.08760  0.37924  1.0000
  H   H1202     1.0  0.88669  0.06433  0.53039  1.0000
  C   C680      1.0  0.92578  0.41577  0.53092  1.0000
  C   C681      1.0  0.95120  0.44166  0.53361  1.0000
  H   H1203     1.0  0.00947  0.39740  0.50069  1.0000
  C   C682      1.0  0.69578  0.05854  0.39027  1.0000
  H   H1204     1.0  0.58401  0.30715  0.36933  1.0000
  C   C683      1.0  0.76671  0.07172  0.63903  1.0000
  H   H1205     1.0  0.76101  0.28285  0.57349  1.0000
  H   H1206     1.0  0.68043  0.05566  0.41375  1.0000
  C   C684      1.0  0.70525  0.03313  0.37085  1.0000
  H   H1207     1.0  0.68843  0.21586  0.37796  1.0000
  H   H1208     1.0  0.95633  0.98141  0.51696  1.0000
  H   H1209     1.0  0.84724  0.99946  0.36389  1.0000
  C   C685      1.0  0.91136  0.25490  0.45609  1.0000
  C   C686      1.0  0.93062  0.27840  0.43832  1.0000
  H   H1210     1.0  0.55721  0.41626  0.46434  1.0000
  C   C687      1.0  0.54677  0.26316  0.61934  1.0000
  H   H1211     1.0  0.85015  0.02506  0.42387  1.0000
  C   C688      1.0  0.92786  0.22557  0.45408  1.0000
  H   H1212     1.0  0.91757  0.30099  0.43933  1.0000
  H   H1213     1.0  0.85112  0.40692  0.57365  1.0000
  H   H1214     1.0  0.52240  0.27911  0.52459  1.0000
  H   H1215     1.0  0.91297  0.20727  0.46750  1.0000
  C   C689      1.0  0.72769  0.32640  0.38463  1.0000
  C   C690      1.0  0.74770  0.29891  0.39149  1.0000
  C   C691      1.0  0.74304  0.27423  0.37009  1.0000
  H   H1216     1.0  0.97152  0.32071  0.47694  1.0000
  C   C692      1.0  0.55712  0.40761  0.48985  1.0000
  H   H1217     1.0  0.64467  0.36732  0.53737  1.0000
  H   H1218     1.0  0.76712  0.29667  0.41313  1.0000
  H   H1219     1.0  0.75852  0.25301  0.37554  1.0000
  C   C693      1.0  0.57103  0.00033  0.40608  1.0000
  Fe  Fe80      1.0  0.77059  0.33907  0.52877  1.0000
  S   S155      1.0  0.77441  0.38033  0.49675  1.0000
  S   S156      1.0  0.72364  0.34321  0.57019  1.0000
  Fe  Fe81      1.0  0.84420  0.37350  0.49859  1.0000
  C   C694      1.0  0.99391  0.12825  0.57649  1.0000
  S   S157      1.0  0.84077  0.33441  0.53378  1.0000
  Fe  Fe82      1.0  0.59578  0.14862  0.49158  1.0000
  S   S158      1.0  0.59698  0.11411  0.53198  1.0000
  S   S159      1.0  0.55866  0.19236  0.49048  1.0000
  H   H1220     1.0  0.88465  0.13912  0.67686  1.0000
  H   H1221     1.0  0.56663  0.06136  0.60461  1.0000
  S   S160      1.0  0.66590  0.15066  0.48740  1.0000
  H   H1222     1.0  0.84754  0.30906  0.67725  1.0000
  C   C695      1.0  0.86471  0.36573  0.67459  1.0000
  H   H1223     1.0  0.85616  0.45094  0.43729  1.0000
  C   C696      1.0  0.96779  0.10747  0.59858  1.0000
  C   C697      1.0  0.96367  0.21967  0.43509  1.0000
  S   S161      1.0  0.66593  0.07590  0.48716  1.0000
  H   H1224     1.0  0.63110  0.42589  0.46990  1.0000
  H   H1225     1.0  0.73837  0.01264  0.59021  1.0000
  H   H1226     1.0  0.71248  0.45042  0.45567  1.0000
  H   H1227     1.0  0.82007  0.18380  0.38448  1.0000
  H   H1228     1.0  0.53891  0.05231  0.39225  1.0000
  S   S162      1.0  0.88351  0.41594  0.50305  1.0000
  H   H1229     1.0  0.94029  0.08295  0.55866  1.0000
  C   C698      1.0  0.82453  0.02575  0.40553  1.0000
  H   H1230     1.0  0.86515  0.98092  0.44267  1.0000
  H   H1231     1.0  0.53771  0.27968  0.63852  1.0000
  H   H1232     1.0  0.92279  0.40018  0.43549  1.0000
  H   H1233     1.0  0.83262  0.30519  0.60264  1.0000
  H   H1234     1.0  0.75535  0.11877  0.62784  1.0000
  C   C699      1.0  0.63928  0.32139  0.49771  1.0000
  H   H1235     1.0  0.62035  0.15315  0.37121  1.0000
  H   H1236     1.0  0.86628  0.20104  0.40230  1.0000
  C   C700      1.0  0.86345  0.25452  0.36465  1.0000
  C   C701      1.0  0.72227  0.31454  0.60011  1.0000
  C   C702      1.0  0.69931  0.31958  0.62893  1.0000
  C   C703      1.0  0.69692  0.29718  0.65323  1.0000
  C   C704      1.0  0.71789  0.26962  0.64898  1.0000
  C   C705      1.0  0.74109  0.26452  0.62021  1.0000
  C   C706      1.0  0.74328  0.28697  0.59574  1.0000
  H   H1237     1.0  0.68372  0.34104  0.63277  1.0000
  H   H1238     1.0  0.52984  0.20987  0.37172  1.0000
  N   N38       1.0  0.62008  0.21469  0.38027  1.0000
  C   C707      1.0  0.83176  0.31771  0.65472  1.0000
  C   C708      1.0  0.61497  0.24830  0.37436  1.0000
  C   C709      1.0  0.66296  0.20991  0.39573  1.0000
  C   C710      1.0  0.58640  0.20282  0.40322  1.0000
  C   C711      1.0  0.99426  0.41678  0.57480  1.0000
  H   H1239     1.0  0.71118  0.40806  0.66330  1.0000
  C   C712      1.0  0.67198  0.22748  0.42794  1.0000
  C   C713      1.0  0.94235  0.37749  0.68071  1.0000
  H   H1240     1.0  0.53369  0.15391  0.54454  1.0000
  C   C714      1.0  0.92350  0.99574  0.63772  1.0000
  H   H1241     1.0  0.80768  0.05601  0.36534  1.0000
  C   C715      1.0  0.71405  0.21787  0.44293  1.0000
  H   H1242     1.0  0.90913  0.37743  0.63499  1.0000
  H   H1243     1.0  0.80988  0.43396  0.58148  1.0000
  H   H1244     1.0  0.61744  0.26118  0.39763  1.0000
  C   C716      1.0  0.89850  0.43365  0.40114  1.0000
  C   C717      1.0  0.62499  0.08330  0.62151  1.0000
  H   H1245     1.0  0.66770  0.18553  0.40176  1.0000
  H   H1246     1.0  0.59830  0.18296  0.41738  1.0000
  H   H1247     1.0  0.57876  0.22017  0.42218  1.0000
  H   H1248     1.0  0.00816  0.45049  0.46816  1.0000
  C   C718      1.0  0.96875  0.39090  0.57218  1.0000
  C   C719      1.0  0.64245  0.41550  0.53675  1.0000
  H   H1249     1.0  0.56003  0.12037  0.37811  1.0000
  H   H1250     1.0  0.64669  0.22341  0.44628  1.0000
  H   H1251     1.0  0.67477  0.25215  0.42312  1.0000
  H   H1252     1.0  0.61057  0.41443  0.54794  1.0000
  H   H1253     1.0  0.57170  0.24943  0.63118  1.0000
  H   H1254     1.0  0.67383  0.40214  0.58221  1.0000
  C   C720      1.0  0.77863  0.46093  0.44626  1.0000
  H   H1255     1.0  0.98267  0.29082  0.40651  1.0000
  H   H1256     1.0  0.84022  0.26685  0.38012  1.0000
  C   C721      1.0  0.86196  0.26946  0.62980  1.0000
  H   H1257     1.0  0.89136  0.25126  0.38078  1.0000
  C   C722      1.0  0.67378  0.42127  0.56453  1.0000
  C   C723      1.0  0.96728  0.27260  0.41966  1.0000
  C   C724      1.0  0.61166  0.08204  0.68165  1.0000
  H   H1258     1.0  0.71481  0.19304  0.44736  1.0000
  H   H1259     1.0  0.74046  0.22392  0.42630  1.0000
  H   H1260     1.0  0.71887  0.22972  0.46667  1.0000
  H   H1261     1.0  0.93858  0.00104  0.43999  1.0000
  H   H1262     1.0  0.66332  0.32231  0.51746  1.0000
  C   C725      1.0  0.00384  0.07316  0.68014  1.0000
  H   H1263     1.0  0.67112  0.19541  0.61801  1.0000
  C   C726      1.0  0.74193  0.03580  0.59856  1.0000
  C   C727      1.0  0.93064  0.45168  0.64142  1.0000
  H   H1264     1.0  0.82888  0.07476  0.40087  1.0000
  H   H1265     1.0  0.83219  0.03039  0.50812  1.0000
  H   H1266     1.0  0.56382  0.12370  0.62107  1.0000
  H   H1267     1.0  0.62233  0.28645  0.61556  1.0000
  H   H1268     1.0  0.79769  0.99514  0.45907  1.0000
  C   C728      1.0  0.73097  0.08970  0.58999  1.0000
  C   C729      1.0  0.89823  0.35152  0.37610  1.0000
  H   H1269     1.0  0.61729  0.22865  0.60002  1.0000
  H   H1270     1.0  0.66625  0.43351  0.40541  1.0000
  S   S163      1.0  0.71053  0.12042  0.56773  1.0000
  H   H1271     1.0  0.88491  0.26621  0.65004  1.0000
  H   H1272     1.0  0.62800  0.34299  0.45117  1.0000
  H   H1273     1.0  0.80533  0.98007  0.57826  1.0000
  H   H1274     1.0  0.58747  0.06830  0.37900  1.0000
  H   H1275     1.0  0.94657  0.00481  0.65575  1.0000
  C   C730      1.0  0.93131  0.42292  0.42580  1.0000
  C   C731      1.0  0.56620  0.11195  0.64520  1.0000
  H   H1276     1.0  0.64427  0.43535  0.52018  1.0000
  H   H1277     1.0  0.64538  0.27229  0.49702  1.0000
  H   H1278     1.0  0.84042  0.15858  0.65887  1.0000
  N   N39       1.0  0.62935  0.37920  0.48714  1.0000
  H   H1279     1.0  0.97510  0.14822  0.56872  1.0000
  H   H1280     1.0  0.95596  0.35617  0.49473  1.0000
  C   C732      1.0  0.64463  0.34894  0.47432  1.0000
  C   C733      1.0  0.58221  0.37748  0.49231  1.0000
  H   H1281     1.0  0.62960  0.35926  0.59855  1.0000
  C   C734      1.0  0.62745  0.39759  0.42668  1.0000
  H   H1282     1.0  0.60737  0.16587  0.63185  1.0000
  H   H1283     1.0  0.59784  0.98648  0.36009  1.0000
  H   H1284     1.0  0.95009  0.46445  0.65938  1.0000
  H   H1285     1.0  0.57577  0.36154  0.58442  1.0000
  C   C735      1.0  0.98381  0.24310  0.41812  1.0000
  C   C736      1.0  0.83156  0.05434  0.38504  1.0000
  H   H1286     1.0  0.83227  0.25729  0.63585  1.0000
  H   H1287     1.0  0.95066  0.43398  0.63010  1.0000
  H   H1288     1.0  0.87905  0.36720  0.39113  1.0000
  H   H1289     1.0  0.67875  0.35028  0.46781  1.0000
  H   H1290     1.0  0.58542  0.06525  0.68170  1.0000
  H   H1291     1.0  0.97523  0.98006  0.41488  1.0000
  H   H1292     1.0  0.56749  0.36191  0.47406  1.0000
  H   H1293     1.0  0.57514  0.36725  0.51667  1.0000
  C   C737      1.0  0.81348  0.41692  0.36953  1.0000
  H   H1294     1.0  0.81548  0.21913  0.40648  1.0000
  S   S164      1.0  0.77695  0.45787  0.66752  1.0000
  H   H1295     1.0  0.59400  0.39034  0.42566  1.0000
  H   H1296     1.0  0.60755  0.32093  0.50912  1.0000
  H   H1297     1.0  0.92606  0.34434  0.39067  1.0000
  C   C738      1.0  0.67701  0.41251  0.66000  1.0000
  H   H1298     1.0  0.96250  0.42130  0.41353  1.0000
  H   H1299     1.0  0.68672  0.38387  0.51500  1.0000
  H   H1300     1.0  0.89981  0.41797  0.38009  1.0000
  C   C739      1.0  0.64563  0.29148  0.47940  1.0000
  H   H1301     1.0  0.67726  0.40476  0.46163  1.0000
  H   H1302     1.0  0.62002  0.28787  0.46126  1.0000
  C   C740      1.0  0.64222  0.40305  0.46250  1.0000
  C   C741      1.0  0.54436  0.19228  0.38720  1.0000
  C   C742      1.0  0.63272  0.42619  0.40584  1.0000
  N   N40       1.0  0.82839  0.35203  0.65579  1.0000
  C   C743      1.0  0.97359  0.34569  0.47416  1.0000
  H   H1303     1.0  0.86342  0.05407  0.37370  1.0000
  C   C744      1.0  0.85354  0.30321  0.62435  1.0000
  H   H1304     1.0  0.64103  0.14516  0.60472  1.0000
  C   C745      1.0  0.85570  0.13611  0.66188  1.0000
  H   H1305     1.0  0.63608  0.13804  0.68035  1.0000
  C   C746      1.0  0.93455  0.39040  0.55034  1.0000
  H   H1306     1.0  0.54537  0.31916  0.56175  1.0000
  C   C747      1.0  0.76204  0.04174  0.62852  1.0000
  Fe  Fe83      1.0  0.59524  0.08005  0.49118  1.0000
  H   H1307     1.0  0.75469  0.46057  0.39631  1.0000
  N   N41       1.0  0.61067  0.10124  0.65099  1.0000
  H   H1308     1.0  0.78306  0.40374  0.62689  1.0000
  H   H1309     1.0  0.60711  0.19588  0.55245  1.0000
  H   H1310     1.0  0.80986  0.39522  0.38334  1.0000
  H   H1311     1.0  0.71065  0.05506  0.55630  1.0000
  H   H1312     1.0  0.85421  0.96943  0.55835  1.0000
  H   H1313     1.0  0.76140  0.42443  0.41477  1.0000
  H   H1314     1.0  0.91521  0.37033  0.54844  1.0000
  C   C748      1.0  0.65207  0.38519  0.51903  1.0000
  H   H1315     1.0  0.62414  0.05089  0.56354  1.0000
  C   C749      1.0  0.70258  0.32895  0.35647  1.0000
  H   H1316     1.0  0.62274  0.42147  0.38024  1.0000
  H   H1317     1.0  0.94069  0.98437  0.61755  1.0000
  H   H1318     1.0  0.79958  0.35266  0.60799  1.0000
  C   C750      1.0  0.83592  0.20576  0.38974  1.0000
  H   H1319     1.0  0.97545  0.37120  0.58711  1.0000
  C   C751      1.0  0.67302  0.17670  0.63605  1.0000
  H   H1320     1.0  0.52411  0.20997  0.65239  1.0000
  H   H1321     1.0  0.67289  0.43399  0.64613  1.0000
  H   H1322     1.0  0.52377  0.16401  0.42801  1.0000
  H   H1323     1.0  0.79159  0.44402  0.46378  1.0000
  H   H1324     1.0  0.79274  0.99830  0.37027  1.0000
  H   H1325     1.0  0.62785  0.98017  0.42676  1.0000
  H   H1326     1.0  0.58973  0.37654  0.62388  1.0000
  H   H1327     1.0  0.61295  0.44495  0.41561  1.0000
  H   H1328     1.0  0.63445  0.22254  0.52612  1.0000
  H   H1329     1.0  0.90745  0.99085  0.38658  1.0000
  H   H1330     1.0  0.84679  0.41258  0.42831  1.0000
  H   H1331     1.0  0.67901  0.30132  0.67535  1.0000
  H   H1332     1.0  0.79382  0.02832  0.41832  1.0000
  H   H1333     1.0  0.64670  0.37951  0.41509  1.0000
  H   H1334     1.0  0.75713  0.24310  0.61674  1.0000
  C   C752      1.0  0.75144  0.09559  0.61972  1.0000
  C   C753      1.0  0.77707  0.44690  0.41135  1.0000
  S   S165      1.0  0.55362  0.03894  0.49641  1.0000
  C   C754      1.0  0.72630  0.05975  0.57931  1.0000
  C   C755      1.0  0.82517  0.36464  0.62146  1.0000
  H   H1335     1.0  0.52915  0.38564  0.68529  1.0000
  H   H1336     1.0  0.61801  0.30785  0.57920  1.0000
  H   H1337     1.0  0.85429  0.36018  0.60719  1.0000
  H   H1338     1.0  0.66240  0.20309  0.55818  1.0000
  N   N42       1.0  0.89932  0.07540  0.60026  1.0000
  C   C756      1.0  0.86050  0.06848  0.58026  1.0000
  C   C757      1.0  0.88590  0.09077  0.63170  1.0000
  C   C758      1.0  0.92819  0.09547  0.58040  1.0000
  C   C759      1.0  0.92278  0.04676  0.60895  1.0000
  C   C760      1.0  0.89574  0.02098  0.62408  1.0000
  C   C761      1.0  0.86792  0.05061  0.54794  1.0000
  H   H1339     1.0  0.78258  0.07660  0.66178  1.0000
  C   C762      1.0  0.86675  0.12298  0.62825  1.0000
  H   H1340     1.0  0.79975  0.30718  0.65489  1.0000
  H   H1341     1.0  0.00505  0.11573  0.55449  1.0000
  C   C763      1.0  0.82611  0.04303  0.53120  1.0000
  C   C764      1.0  0.81856  0.40965  0.58306  1.0000
  H   H1342     1.0  0.84425  0.08981  0.57313  1.0000
  H   H1343     1.0  0.83708  0.05580  0.59526  1.0000
  H   H1344     1.0  0.86167  0.07698  0.64459  1.0000
  H   H1345     1.0  0.91269  0.09217  0.64924  1.0000
  H   H1346     1.0  0.91057  0.11513  0.57016  1.0000
  H   H1347     1.0  0.70616  0.42423  0.55459  1.0000
  H   H1348     1.0  0.93955  0.03729  0.58723  1.0000
  H   H1349     1.0  0.94818  0.05196  0.62691  1.0000
  H   H1350     1.0  0.87447  0.01081  0.60549  1.0000
  H   H1351     1.0  0.87594  0.02941  0.64437  1.0000
  H   H1352     1.0  0.90427  0.44021  0.65432  1.0000
  H   H1353     1.0  0.88476  0.02898  0.55232  1.0000
  C   C765      1.0  0.94458  0.97882  0.42802  1.0000
  H   H1354     1.0  0.95927  0.12063  0.62078  1.0000
  H   H1355     1.0  0.88910  0.13892  0.61639  1.0000
  H   H1356     1.0  0.83738  0.12236  0.61356  1.0000
  H   H1357     1.0  0.74536  0.42101  0.35814  1.0000
  H   H1358     1.0  0.64926  0.25454  0.57662  1.0000
  C   C766      1.0  0.82325  0.99711  0.38355  1.0000
  H   H1359     1.0  0.83815  0.41265  0.63335  1.0000
  H   H1360     1.0  0.54442  0.09222  0.64350  1.0000
  H   H1361     1.0  0.67644  0.29147  0.46645  1.0000
  C   C767      1.0  0.59165  0.00841  0.37274  1.0000
  H   H1362     1.0  0.80627  0.02865  0.54736  1.0000
  H   H1363     1.0  0.91775  0.34047  0.65335  1.0000
  H   H1364     1.0  0.62465  0.09766  0.59918  1.0000
  C   C768      1.0  0.54716  0.13279  0.67206  1.0000
  H   H1365     1.0  0.84198  0.41425  0.35396  1.0000
  N   N43       1.0  0.56383  0.27933  0.58950  1.0000
  C   C769      1.0  0.58158  0.25708  0.56487  1.0000
  C   C770      1.0  0.87144  0.32425  0.36628  1.0000
  C   C771      1.0  0.59939  0.29969  0.60070  1.0000
  H   H1366     1.0  0.54763  0.25788  0.37838  1.0000
  H   H1367     1.0  0.80855  0.06411  0.52519  1.0000
  C   C772      1.0  0.62145  0.23919  0.57564  1.0000
  C   C773      1.0  0.58664  0.32742  0.62246  1.0000
  C   C774      1.0  0.98527  0.44216  0.55551  1.0000
  S   S166      1.0  0.78255  0.01145  0.65161  1.0000
  C   C775      1.0  0.63186  0.21371  0.55154  1.0000
  C   C776      1.0  0.59609  0.35796  0.60616  1.0000
  H   H1368     1.0  0.59048  0.26931  0.54200  1.0000
  H   H1369     1.0  0.55743  0.24025  0.55729  1.0000
  H   H1370     1.0  0.66480  0.44225  0.57785  1.0000
  H   H1371     1.0  0.54986  0.17244  0.37125  1.0000
  C   C777      1.0  0.90858  0.36423  0.65816  1.0000
  H   H1372     1.0  0.97608  0.19685  0.43389  1.0000
  H   H1373     1.0  0.57046  0.42565  0.50552  1.0000
  C   C778      1.0  0.85368  0.43485  0.41651  1.0000
  H   H1374     1.0  0.56649  0.15343  0.67603  1.0000
  H   H1375     1.0  0.66341  0.39371  0.64535  1.0000
  C   C779      1.0  0.64045  0.12761  0.65568  1.0000
  H   H1376     1.0  0.95868  0.35229  0.45061  1.0000
  H   H1377     1.0  0.79646  0.39651  0.56744  1.0000
  C   C780      1.0  0.78814  0.97111  0.45684  1.0000
  H   H1378     1.0  0.55304  0.32737  0.62953  1.0000
  C   C781      1.0  0.63781  0.15364  0.63012  1.0000
  H   H1379     1.0  0.60453  0.32649  0.64589  1.0000
  H   H1380     1.0  0.88382  0.31417  0.61807  1.0000
  H   H1381     1.0  0.90349  0.97882  0.65042  1.0000
  H   H1382     1.0  0.67028  0.18650  0.66104  1.0000
  H   H1383     1.0  0.70441  0.16586  0.63326  1.0000
  S   S167      1.0  0.71564  0.24179  0.67976  1.0000
  C   C782      1.0  0.57278  0.25908  0.35946  1.0000
  H   H1384     1.0  0.59761  0.01747  0.57827  1.0000
  C   C783      1.0  0.53053  0.29915  0.57373  1.0000
  C   C784      1.0  0.59849  0.05471  0.61314  1.0000
  C   C785      1.0  0.61876  0.03643  0.58548  1.0000
  H   H1385     1.0  0.64922  0.02671  0.59369  1.0000
  H   H1386     1.0  0.59510  0.03948  0.63460  1.0000
  H   H1387     1.0  0.00786  0.98824  0.56175  1.0000
  H   H1388     1.0  0.65846  0.07640  0.62425  1.0000
  H   H1389     1.0  0.93379  0.43921  0.44647  1.0000
  H   H1390     1.0  0.98840  0.08838  0.60603  1.0000
  C   C786      1.0  0.90937  0.97143  0.40367  1.0000
  H   H1391     1.0  0.64101  0.25652  0.35840  1.0000
  H   H1392     1.0  0.87532  0.25938  0.60708  1.0000
  H   H1393     1.0  0.57956  0.96995  0.44730  1.0000
  H   H1394     1.0  0.85934  0.31370  0.38908  1.0000
  H   H1395     1.0  0.76043  0.35366  0.65874  1.0000
  H   H1396     1.0  0.69745  0.01061  0.37951  1.0000
  C   C787      1.0  0.84363  0.22295  0.35773  1.0000
  H   H1397     1.0  0.62297  0.01837  0.37839  1.0000
  C   C788      1.0  0.59414  0.97427  0.42296  1.0000
  H   H1398     1.0  0.72123  0.98229  0.45876  1.0000
  H   H1399     1.0  0.83366  0.12088  0.67522  1.0000
  H   H1400     1.0  0.57291  0.02006  0.42293  1.0000
  H   H1401     1.0  0.00408  0.40009  0.45800  1.0000
  H   H1402     1.0  0.67362  0.11946  0.65518  1.0000
  H   H1403     1.0  0.97292  0.37877  0.66746  1.0000
  H   H1404     1.0  0.53758  0.99365  0.40291  1.0000
  H   H1405     1.0  0.73632  0.45938  0.60476  1.0000
  H   H1406     1.0  0.75858  0.14342  0.68029  1.0000
  H   H1407     1.0  0.74511  0.97500  0.49805  1.0000
  H   H1408     1.0  0.90848  0.45645  0.39256  1.0000
  H   H1409     1.0  0.65798  0.04639  0.66957  1.0000
  C   C789      1.0  0.52815  0.11100  0.37347  1.0000
  C   C790      1.0  0.55752  0.05785  0.37004  1.0000
  H   H1410     1.0  0.00434  0.46226  0.55752  1.0000
  H   H1411     1.0  0.92499  0.29499  0.36209  1.0000
  H   H1412     1.0  0.89599  0.45868  0.59727  1.0000
  C   C791      1.0  0.78829  0.36015  0.67378  1.0000
  H   H1413     1.0  0.78606  0.38515  0.67740  1.0000
  H   H1414     1.0  0.85829  0.38998  0.68051  1.0000
  H   H1415     1.0  0.90901  0.36383  0.35395  1.0000
  C   C792      1.0  0.98940  0.96776  0.56065  1.0000
  H   H1416     1.0  0.94452  0.46139  0.51874  1.0000
  H   H1417     1.0  0.76002  0.96894  0.40834  1.0000
  C   C793      1.0  0.74427  0.96780  0.47197  1.0000
  N   N44       1.0  0.82765  0.96690  0.40056  1.0000
  H   H1418     1.0  0.01574  0.05223  0.66992  1.0000
  C   C794      1.0  0.00809  0.12771  0.68599  1.0000
  Fe  Fe84      1.0  0.89211  0.29445  0.99158  1.0000
  S   S168      1.0  0.90175  0.33365  0.95734  1.0000
  S   S169      1.0  0.93494  0.25354  0.99211  1.0000
  Fe  Fe85      1.0  0.83212  0.33006  0.94870  1.0000
  S   S170      1.0  0.80573  0.33844  0.89819  1.0000
  S   S171      1.0  0.82318  0.28860  0.97969  1.0000
  Fe  Fe86      1.0  0.66360  0.25092  0.71594  1.0000
  S   S172      1.0  0.66451  0.29092  0.74987  1.0000
  N   N45       1.0  0.65746  0.44309  0.74913  1.0000
  Fe  Fe87      1.0  0.57996  0.22714  0.74287  1.0000
  S   S173      1.0  0.57412  0.26525  0.77876  1.0000
  C   C795      1.0  0.61007  0.44598  0.75164  1.0000
  Fe  Fe88      1.0  0.59573  0.29430  0.73686  1.0000
  H   H1419     1.0  0.85497  0.42229  0.96142  1.0000
  Fe  Fe89      1.0  0.64295  0.25781  0.78829  1.0000
  S   S174      1.0  0.66602  0.25087  0.84008  1.0000
  S   S175      1.0  0.59662  0.25676  0.69999  1.0000
  S   S176      1.0  0.64724  0.21735  0.75516  1.0000
  N   N46       1.0  0.86416  0.45731  0.90311  1.0000
  S   S177      1.0  0.80158  0.06596  0.72867  1.0000
  C   C796      1.0  0.52502  0.03443  0.93399  1.0000
  H   H1420     1.0  0.60161  0.22052  0.93442  1.0000
  S   S178      1.0  0.66496  0.13082  0.01909  1.0000
  S   S179      1.0  0.91320  0.40297  0.76874  1.0000
  H   H1421     1.0  0.59298  0.40012  0.73382  1.0000
  S   S180      1.0  0.72842  0.05051  0.80177  1.0000
  Fe  Fe90      1.0  0.86887  0.05879  0.74317  1.0000
  S   S181      1.0  0.90892  0.10063  0.74041  1.0000
  C   C797      1.0  0.99510  0.43172  0.83895  1.0000
  H   H1422     1.0  0.62658  0.03334  0.72408  1.0000
  Fe  Fe91      1.0  0.67672  0.09977  0.97624  1.0000
  H   H1423     1.0  0.52443  0.12298  0.96161  1.0000
  S   S182      1.0  0.73597  0.10437  0.94581  1.0000
  C   C798      1.0  0.83983  0.01917  0.88716  1.0000
  C   C799      1.0  0.78266  0.34592  0.70840  1.0000
  S   S183      1.0  0.61204  0.10587  0.95518  1.0000
  C   C800      1.0  0.73395  0.08913  0.90588  1.0000
  C   C801      1.0  0.94936  0.97221  0.80582  1.0000
  C   C802      1.0  0.65166  0.44699  0.93059  1.0000
  C   C803      1.0  0.73153  0.06575  0.84161  1.0000
  C   C804      1.0  0.69485  0.06687  0.86076  1.0000
  C   C805      1.0  0.69619  0.07800  0.89298  1.0000
  H   H1424     1.0  0.76117  0.00272  0.90157  1.0000
  H   H1425     1.0  0.51942  0.10419  0.81874  1.0000
  H   H1426     1.0  0.66531  0.05873  0.85083  1.0000
  H   H1427     1.0  0.66783  0.07827  0.90760  1.0000
  Fe  Fe92      1.0  0.78671  0.03822  0.77307  1.0000
  H   H1428     1.0  0.90265  0.42450  0.87757  1.0000
  C   C806      1.0  0.74406  0.14192  0.70498  1.0000
  H   H1429     1.0  0.86141  0.46341  0.00430  1.0000
  H   H1430     1.0  0.63722  0.42499  0.81244  1.0000
  C   C807      1.0  0.54582  0.17347  0.91890  1.0000
  H   H1431     1.0  0.94646  0.36303  0.70280  1.0000
  C   C808      1.0  0.98284  0.38053  0.79980  1.0000
  C   C809      1.0  0.95525  0.40516  0.79689  1.0000
  C   C810      1.0  0.96168  0.43090  0.81636  1.0000
  H   H1432     1.0  0.97804  0.36051  0.78491  1.0000
  C   C811      1.0  0.67170  0.44122  0.71379  1.0000
  C   C812      1.0  0.52410  0.33804  0.69631  1.0000
  H   H1433     1.0  0.70657  0.37588  0.81367  1.0000
  C   C813      1.0  0.75949  0.20905  0.00346  1.0000
  H   H1434     1.0  0.93216  0.44516  0.94659  1.0000
  H   H1435     1.0  0.86012  0.10225  0.81197  1.0000
  C   C814      1.0  0.97970  0.25527  0.96636  1.0000
  C   C815      1.0  0.99535  0.28289  0.95439  1.0000
  H   H1436     1.0  0.54465  0.12061  0.69580  1.0000
  C   C816      1.0  0.83553  0.19962  0.00714  1.0000
  H   H1437     1.0  0.56317  0.20862  0.88264  1.0000
  H   H1438     1.0  0.62743  0.44599  0.91099  1.0000
  H   H1439     1.0  0.98020  0.30388  0.96102  1.0000
  H   H1440     1.0  0.66058  0.39452  0.75806  1.0000
  S   S184      1.0  0.78751  0.99413  0.74539  1.0000
  H   H1441     1.0  0.68319  0.03692  0.72551  1.0000
  C   C817      1.0  0.76658  0.31408  0.88257  1.0000
  C   C818      1.0  0.75032  0.29018  0.90126  1.0000
  C   C819      1.0  0.71924  0.27104  0.88803  1.0000
  C   C820      1.0  0.70405  0.27584  0.85617  1.0000
  C   C821      1.0  0.72003  0.29989  0.83756  1.0000
  C   C822      1.0  0.75133  0.31889  0.85071  1.0000
  H   H1442     1.0  0.76162  0.28649  0.92588  1.0000
  H   H1443     1.0  0.70694  0.25247  0.90253  1.0000
  H   H1444     1.0  0.70861  0.30371  0.81298  1.0000
  H   H1445     1.0  0.76401  0.33726  0.83612  1.0000
  H   H1446     1.0  0.01524  0.15279  0.99631  1.0000
  H   H1447     1.0  0.82078  0.03701  0.89932  1.0000
  H   H1448     1.0  0.60686  0.43699  0.96819  1.0000
  C   C823      1.0  0.51783  0.13771  0.87691  1.0000
  C   C824      1.0  0.79822  0.18555  0.95667  1.0000
  H   H1449     1.0  0.94083  0.45005  0.81422  1.0000
  H   H1450     1.0  0.54669  0.12502  0.88428  1.0000
  C   C825      1.0  0.57797  0.18988  0.89658  1.0000
  C   C826      1.0  0.80682  0.21593  0.93862  1.0000
  H   H1451     1.0  0.60112  0.45913  0.77393  1.0000
  C   C827      1.0  0.54162  0.12374  0.81932  1.0000
  H   H1452     1.0  0.74563  0.01219  0.98458  1.0000
  C   C828      1.0  0.74015  0.35481  0.72310  1.0000
  C   C829      1.0  0.80275  0.21217  0.90151  1.0000
  S   S185      1.0  0.91640  0.40703  0.01181  1.0000
  H   H1453     1.0  0.63064  0.18535  0.93069  1.0000
  Fe  Fe93      1.0  0.87232  0.44423  0.76289  1.0000
  H   H1454     1.0  0.83313  0.98031  0.85689  1.0000
  H   H1455     1.0  0.76960  0.17463  0.94606  1.0000
  H   H1456     1.0  0.82468  0.17031  0.94975  1.0000
  H   H1457     1.0  0.54542  0.13240  0.79391  1.0000
  H   H1458     1.0  0.57283  0.11596  0.82829  1.0000
  H   H1459     1.0  0.59235  0.17344  0.87930  1.0000
  H   H1460     1.0  0.70898  0.41374  0.76292  1.0000
  C   C830      1.0  0.71689  0.20510  0.98515  1.0000
  H   H1461     1.0  0.01206  0.36149  0.98858  1.0000
  H   H1462     1.0  0.83933  0.22398  0.94390  1.0000
  H   H1463     1.0  0.78451  0.23389  0.94618  1.0000
  H   H1464     1.0  0.71954  0.21303  0.95940  1.0000
  H   H1465     1.0  0.54646  0.97077  0.01091  1.0000
  C   C831      1.0  0.83055  0.45465  0.99556  1.0000
  H   H1466     1.0  0.84002  0.22381  0.00008  1.0000
  H   H1467     1.0  0.65435  0.97622  0.85961  1.0000
  H   H1468     1.0  0.70990  0.14683  0.70269  1.0000
  C   C832      1.0  0.89495  0.43117  0.90330  1.0000
  H   H1469     1.0  0.62612  0.37474  0.99539  1.0000
  H   H1470     1.0  0.98968  0.97958  0.72525  1.0000
  H   H1471     1.0  0.65205  0.22068  0.98777  1.0000
  Fe  Fe94      1.0  0.59842  0.13291  0.00081  1.0000
  H   H1472     1.0  0.82497  0.19463  0.89238  1.0000
  H   H1473     1.0  0.76999  0.20563  0.89505  1.0000
  H   H1474     1.0  0.81015  0.23404  0.88922  1.0000
  C   C833      1.0  0.67097  0.42811  0.98741  1.0000
  H   H1475     1.0  0.65082  0.06691  0.74156  1.0000
  H   H1476     1.0  0.82110  0.43600  0.01226  1.0000
  H   H1477     1.0  0.71867  0.00531  0.85531  1.0000
  C   C834      1.0  0.93732  0.43700  0.92118  1.0000
  H   H1478     1.0  0.79808  0.07506  0.84024  1.0000
  C   C835      1.0  0.81178  0.99769  0.86736  1.0000
  C   C836      1.0  0.72165  0.98137  0.84718  1.0000
  H   H1479     1.0  0.86809  0.35445  0.69885  1.0000
  Fe  Fe95      1.0  0.59614  0.06535  0.98606  1.0000
  C   C837      1.0  0.97302  0.12723  0.70681  1.0000
  H   H1480     1.0  0.67970  0.98391  0.78729  1.0000
  C   C838      1.0  0.63743  0.42776  0.95974  1.0000
  Fe  Fe96      1.0  0.80804  0.02185  0.70215  1.0000
  H   H1481     1.0  0.96706  0.39734  0.89873  1.0000
  N   N47       1.0  0.76585  0.18337  0.78819  1.0000
  C   C839      1.0  0.74438  0.16435  0.76228  1.0000
  C   C840      1.0  0.73706  0.18572  0.81762  1.0000
  C   C841      1.0  0.77130  0.21508  0.77452  1.0000
  C   C842      1.0  0.80866  0.17128  0.79784  1.0000
  C   C843      1.0  0.81480  0.13633  0.79696  1.0000
  C   C844      1.0  0.95306  0.09980  0.71436  1.0000
  C   C845      1.0  0.78813  0.23947  0.79869  1.0000
  C   C846      1.0  0.72514  0.15581  0.83526  1.0000
  C   C847      1.0  0.69103  0.16150  0.86107  1.0000
  C   C848      1.0  0.85530  0.12708  0.81454  1.0000
  C   C849      1.0  0.79795  0.26919  0.78090  1.0000
  H   H1482     1.0  0.71116  0.17183  0.75918  1.0000
  H   H1483     1.0  0.74178  0.14026  0.76986  1.0000
  H   H1484     1.0  0.75143  0.20006  0.83699  1.0000
  H   H1485     1.0  0.70728  0.19736  0.81046  1.0000
  H   H1486     1.0  0.74086  0.22360  0.76446  1.0000
  H   H1487     1.0  0.79383  0.21490  0.75359  1.0000
  H   H1488     1.0  0.83374  0.18062  0.78153  1.0000
  H   H1489     1.0  0.81705  0.17943  0.82287  1.0000
  H   H1490     1.0  0.81726  0.12831  0.77122  1.0000
  H   H1491     1.0  0.78838  0.12394  0.80846  1.0000
  H   H1492     1.0  0.69269  0.43156  0.81643  1.0000
  Fe  Fe97      1.0  0.88532  0.36205  0.00109  1.0000
  H   H1493     1.0  0.81726  0.23169  0.81113  1.0000
  H   H1494     1.0  0.76415  0.24482  0.81757  1.0000
  H   H1495     1.0  0.71271  0.13847  0.81813  1.0000
  H   H1496     1.0  0.75302  0.14660  0.84827  1.0000
  H   H1497     1.0  0.66200  0.17044  0.84934  1.0000
  H   H1498     1.0  0.68302  0.13995  0.87370  1.0000
  H   H1499     1.0  0.70217  0.17801  0.87974  1.0000
  C   C850      1.0  0.65326  0.04956  0.72186  1.0000
  H   H1500     1.0  0.85332  0.13264  0.84106  1.0000
  C   C851      1.0  0.67590  0.97099  0.83895  1.0000
  C   C852      1.0  0.77723  0.98327  0.88944  1.0000
  H   H1501     1.0  0.76924  0.27805  0.76861  1.0000
  H   H1502     1.0  0.80892  0.28640  0.79891  1.0000
  H   H1503     1.0  0.83212  0.45333  0.85632  1.0000
  C   C853      1.0  0.96844  0.07269  0.70097  1.0000
  H   H1504     1.0  0.73754  0.37987  0.72440  1.0000
  H   H1505     1.0  0.80668  0.40743  0.90949  1.0000
  H   H1506     1.0  0.86293  0.03034  0.87060  1.0000
  C   C854      1.0  0.81831  0.13176  0.00132  1.0000
  H   H1507     1.0  0.95646  0.45398  0.90768  1.0000
  C   C855      1.0  0.76957  0.07621  0.85471  1.0000
  H   H1508     1.0  0.83280  0.40086  0.87125  1.0000
  H   H1509     1.0  0.62693  0.97834  0.80270  1.0000
  H   H1510     1.0  0.99549  0.41371  0.93255  1.0000
  H   H1511     1.0  0.79997  0.09686  0.89649  1.0000
  C   C856      1.0  0.65869  0.98734  0.80878  1.0000
  H   H1512     1.0  0.71394  0.34570  0.70796  1.0000
  H   H1513     1.0  0.76926  0.23318  0.00056  1.0000
  C   C857      1.0  0.69438  0.97443  0.92056  1.0000
  H   H1514     1.0  0.63690  0.21477  0.90034  1.0000
  H   H1515     1.0  0.52850  0.45310  0.91552  1.0000
  H   H1516     1.0  0.88298  0.13876  0.80355  1.0000
  H   H1517     1.0  0.80748  0.35414  0.72539  1.0000
  H   H1518     1.0  0.95358  0.05138  0.70702  1.0000
  H   H1519     1.0  0.88089  0.41047  0.91432  1.0000
  C   C858      1.0  0.96360  0.40807  0.92323  1.0000
  Fe  Fe98      1.0  0.85615  0.99248  0.75867  1.0000
  H   H1520     1.0  0.71601  0.98164  0.94050  1.0000
  H   H1521     1.0  0.99942  0.45137  0.85439  1.0000
  H   H1522     1.0  0.56347  0.15480  0.93075  1.0000
  C   C859      1.0  0.82577  0.44924  0.88284  1.0000
  C   C860      1.0  0.78447  0.15664  0.00687  1.0000
  S   S186      1.0  0.85372  0.03441  0.79022  1.0000
  H   H1523     1.0  0.74010  0.98254  0.82393  1.0000
  H   H1524     1.0  0.61533  0.32139  0.01535  1.0000
  H   H1525     1.0  0.52282  0.32277  0.78563  1.0000
  S   S187      1.0  0.56700  0.33920  0.72363  1.0000
  C   C861      1.0  0.77060  0.08838  0.88660  1.0000
  H   H1526     1.0  0.67231  0.38612  0.84712  1.0000
  S   S188      1.0  0.55262  0.02769  0.97072  1.0000
  H   H1527     1.0  0.68569  0.99503  0.90648  1.0000
  H   H1528     1.0  0.82022  0.12569  0.97494  1.0000
  C   C862      1.0  0.76484  0.16501  0.72772  1.0000
  S   S189      1.0  0.81652  0.36240  0.98911  1.0000
  H   H1529     1.0  0.69978  0.41764  0.97669  1.0000
  H   H1530     1.0  0.75629  0.38859  0.86939  1.0000
  C   C863      1.0  0.81005  0.41589  0.88415  1.0000
  H   H1531     1.0  0.53988  0.05665  0.85475  1.0000
  H   H1532     1.0  0.70666  0.18111  0.98453  1.0000
  H   H1533     1.0  0.77075  0.41755  0.84044  1.0000
  H   H1534     1.0  0.96139  0.99343  0.00642  1.0000
  C   C864      1.0  0.58422  0.41607  0.75346  1.0000
  H   H1535     1.0  0.80223  0.43549  0.95277  1.0000
  H   H1536     1.0  0.67201  0.31686  0.01752  1.0000
  H   H1537     1.0  0.73728  0.34541  0.74828  1.0000
  C   C865      1.0  0.76752  0.41234  0.86697  1.0000
  H   H1538     1.0  0.74359  0.42755  0.87807  1.0000
  S   S190      1.0  0.87685  0.01669  0.71311  1.0000
  H   H1539     1.0  0.79351  0.97050  0.90937  1.0000
  H   H1540     1.0  0.52613  0.43722  0.77078  1.0000
  S   S191      1.0  0.53429  0.18830  0.73778  1.0000
  S   S192      1.0  0.80224  0.43981  0.75816  1.0000
  H   H1541     1.0  0.74820  0.11854  0.71446  1.0000
  H   H1542     1.0  0.52946  0.43272  0.72664  1.0000
  H   H1543     1.0  0.94871  0.39161  0.94028  1.0000
  H   H1544     1.0  0.96131  0.14821  0.71712  1.0000
  H   H1545     1.0  0.76034  0.18758  0.71614  1.0000
  H   H1546     1.0  0.99899  0.99041  0.83622  1.0000
  H   H1547     1.0  0.78387  0.32077  0.70767  1.0000
  H   H1548     1.0  0.60587  0.09643  0.70364  1.0000
  H   H1549     1.0  0.00692  0.41349  0.73429  1.0000
  H   H1550     1.0  0.79915  0.16028  0.72898  1.0000
  H   H1551     1.0  0.63222  0.40429  0.95075  1.0000
  C   C866      1.0  0.61392  0.20341  0.91685  1.0000
  S   S193      1.0  0.66183  0.05724  0.00460  1.0000
  H   H1552     1.0  0.82319  0.26579  0.76237  1.0000
  H   H1553     1.0  0.67997  0.45210  0.99244  1.0000
  C   C867      1.0  0.54590  0.04506  0.90599  1.0000
  H   H1554     1.0  0.79729  0.01073  0.84702  1.0000
  H   H1555     1.0  0.66198  0.46173  0.69991  1.0000
  C   C868      1.0  0.52349  0.04917  0.87657  1.0000
  C   C869      1.0  0.67487  0.38487  0.81999  1.0000
  C   C870      1.0  0.53695  0.42214  0.75065  1.0000
  H   H1556     1.0  0.65042  0.36891  0.81081  1.0000
  N   N48       1.0  0.79452  0.18772  0.99345  1.0000
  H   H1557     1.0  0.65560  0.01199  0.81375  1.0000
  H   H1558     1.0  0.57945  0.04940  0.90678  1.0000
  H   H1559     1.0  0.58948  0.40429  0.77713  1.0000
  C   C871      1.0  0.68194  0.22348  0.00162  1.0000
  H   H1560     1.0  0.93079  0.99275  0.80650  1.0000
  H   H1561     1.0  0.54579  0.16865  0.83954  1.0000
  H   H1562     1.0  0.86299  0.18774  0.99599  1.0000
  C   C872      1.0  0.66872  0.41643  0.80521  1.0000
  C   C873      1.0  0.83429  0.44244  0.96053  1.0000
  H   H1563     1.0  0.75498  0.14778  0.99584  1.0000
  H   H1564     1.0  0.97195  0.44544  0.72845  1.0000
  C   C874      1.0  0.67448  0.41594  0.76739  1.0000
  C   C875      1.0  0.00064  0.22832  0.95834  1.0000
  H   H1565     1.0  0.98879  0.20689  0.96741  1.0000
  H   H1566     1.0  0.65935  0.39215  0.70546  1.0000
  H   H1567     1.0  0.68126  0.37004  0.99695  1.0000
  S   S194      1.0  0.56374  0.17766  0.00394  1.0000
  C   C876      1.0  0.98791  0.97080  0.82276  1.0000
  H   H1568     1.0  0.85748  0.00637  0.90617  1.0000
  H   H1569     1.0  0.53737  0.18891  0.93935  1.0000
  C   C877      1.0  0.65476  0.41429  0.69320  1.0000
  H   H1570     1.0  0.79888  0.46437  0.88923  1.0000
  H   H1571     1.0  0.69028  0.24797  0.00217  1.0000
  H   H1572     1.0  0.59069  0.41653  0.01638  1.0000
  H   H1573     1.0  0.70684  0.44080  0.71268  1.0000
  H   H1574     1.0  0.68193  0.43843  0.92049  1.0000
  C   C878      1.0  0.65396  0.37863  0.01143  1.0000
  C   C879      1.0  0.52431  0.14894  0.84125  1.0000
  C   C880      1.0  0.00190  0.43480  0.72031  1.0000
  H   H1575     1.0  0.59787  0.45943  0.73056  1.0000
  H   H1576     1.0  0.64030  0.97932  0.95266  1.0000
  C   C881      1.0  0.76277  0.01072  0.00823  1.0000
  H   H1577     1.0  0.79711  0.00963  0.00297  1.0000
  H   H1578     1.0  0.84998  0.13917  0.00949  1.0000
  H   H1579     1.0  0.51946  0.40032  0.75235  1.0000
  H   H1580     1.0  0.68597  0.98535  0.01038  1.0000
  H   H1581     1.0  0.77576  0.09416  0.01267  1.0000
  H   H1582     1.0  0.83097  0.08503  0.01502  1.0000
  C   C882      1.0  0.65343  0.06458  0.68807  1.0000
  H   H1583     1.0  0.93347  0.40062  0.68888  1.0000
  H   H1584     1.0  0.99925  0.42916  0.69387  1.0000
  H   H1585     1.0  0.75075  0.41679  0.01452  1.0000
  N   N49       1.0  0.65880  0.41205  0.01870  1.0000
  H   H1586     1.0  0.68114  0.07991  0.68711  1.0000
  H   H1587     1.0  0.62070  0.41759  0.68813  1.0000
  C   C883      1.0  0.98963  0.52046  0.05827  1.0000
  S   S195      1.0  0.84623  0.47904  0.28826  1.0000
  S   S196      1.0  0.77016  0.86846  0.08117  1.0000
  S   S197      1.0  0.56719  0.56466  0.02559  1.0000
  C   C884      1.0  0.62111  0.69499  0.08914  1.0000
  C   C885      1.0  0.52622  0.78156  0.10819  1.0000
  Fe  Fe99      1.0  0.64829  0.75922  0.19594  1.0000
  S   S198      1.0  0.65147  0.79990  0.22890  1.0000
  S   S199      1.0  0.68281  0.75406  0.14743  1.0000
  Fe  Fe100     1.0  0.58496  0.72618  0.24116  1.0000
  S   S200      1.0  0.58274  0.76480  0.27696  1.0000
  S   S201      1.0  0.55109  0.68109  0.24683  1.0000
  Fe  Fe101     1.0  0.58099  0.79397  0.23174  1.0000
  H   H1588     1.0  0.65696  0.64772  0.20371  1.0000
  Fe  Fe102     1.0  0.65327  0.76672  0.27079  1.0000
  S   S202      1.0  0.69885  0.76295  0.31358  1.0000
  S   S203      1.0  0.57773  0.75524  0.19631  1.0000
  S   S204      1.0  0.65548  0.72606  0.23735  1.0000
  C   C886      1.0  0.81822  0.90339  0.18216  1.0000
  S   S205      1.0  0.79176  0.51685  0.23266  1.0000
  H   H1589     1.0  0.98729  0.54496  0.05213  1.0000
  H   H1590     1.0  0.99919  0.47477  0.32511  1.0000
  H   H1591     1.0  0.76363  0.64435  0.02393  1.0000
  H   H1592     1.0  0.74484  0.52786  0.17421  1.0000
  H   H1593     1.0  0.58132  0.76238  0.06028  1.0000
  H   H1594     1.0  0.91608  0.95512  0.09913  1.0000
  Fe  Fe103     1.0  0.86005  0.50661  0.24313  1.0000
  S   S206      1.0  0.91024  0.54269  0.24387  1.0000
  H   H1595     1.0  0.95148  0.82522  0.05796  1.0000
  H   H1596     1.0  0.62532  0.84961  0.17360  1.0000
  C   C887      1.0  0.95738  0.90662  0.17981  1.0000
  C   C888      1.0  0.90707  0.84327  0.35285  1.0000
  C   C889      1.0  0.64941  0.59651  0.30705  1.0000
  H   H1597     1.0  0.76959  0.88602  0.21467  1.0000
  H   H1598     1.0  0.69074  0.82909  0.30971  1.0000
  H   H1599     1.0  0.79777  0.81354  0.30366  1.0000
  H   H1600     1.0  0.57742  0.70502  0.12761  1.0000
  H   H1601     1.0  0.58796  0.66476  0.18363  1.0000
  C   C890      1.0  0.69343  0.59543  0.29188  1.0000
  C   C891      1.0  0.99164  0.92961  0.06718  1.0000
  H   H1602     1.0  0.54384  0.77404  0.13027  1.0000
  H   H1603     1.0  0.81484  0.90141  0.23567  1.0000
  H   H1604     1.0  0.87675  0.93147  0.07987  1.0000
  S   S207      1.0  0.65908  0.57276  0.08774  1.0000
  C   C892      1.0  0.74844  0.53425  0.34996  1.0000
  H   H1605     1.0  0.61816  0.48212  0.19594  1.0000
  C   C893      1.0  0.66184  0.90016  0.03388  1.0000
  H   H1606     1.0  0.65620  0.93108  0.11485  1.0000
  C   C894      1.0  0.96021  0.51827  0.19458  1.0000
  C   C895      1.0  0.94670  0.54433  0.21127  1.0000
  C   C896      1.0  0.96338  0.57257  0.20252  1.0000
  H   H1607     1.0  0.80090  0.92518  0.18001  1.0000
  H   H1608     1.0  0.94760  0.49636  0.20127  1.0000
  N   N50       1.0  0.68410  0.95500  0.05227  1.0000
  C   C897      1.0  0.95408  0.95032  0.30923  1.0000
  H   H1609     1.0  0.61509  0.81384  0.03946  1.0000
  C   C898      1.0  0.00471  0.91244  0.17628  1.0000
  H   H1610     1.0  0.99148  0.47610  0.26467  1.0000
  C   C899      1.0  0.96445  0.89780  0.29400  1.0000
  H   H1611     1.0  0.62279  0.94002  0.06949  1.0000
  H   H1612     1.0  0.83027  0.93588  0.12877  1.0000
  H   H1613     1.0  0.95475  0.87806  0.28019  1.0000
  H   H1614     1.0  0.53281  0.73473  0.09060  1.0000
  C   C900      1.0  0.62752  0.79850  0.05859  1.0000
  C   C901      1.0  0.71925  0.51102  0.34466  1.0000
  H   H1615     1.0  0.86897  0.80292  0.27248  1.0000
  H   H1616     1.0  0.83425  0.49233  0.05888  1.0000
  H   H1617     1.0  0.94096  0.79069  0.34387  1.0000
  H   H1618     1.0  0.95229  0.88184  0.18090  1.0000
  C   C902      1.0  0.65094  0.60605  0.34369  1.0000
  C   C903      1.0  0.80739  0.79213  0.29146  1.0000
  C   C904      1.0  0.68764  0.54286  0.10543  1.0000
  S   S208      1.0  0.87546  0.86374  0.03102  1.0000
  C   C905      1.0  0.74804  0.83611  0.10003  1.0000
  C   C906      1.0  0.72628  0.83947  0.12974  1.0000
  C   C907      1.0  0.70722  0.81434  0.14496  1.0000
  C   C908      1.0  0.70964  0.78562  0.13053  1.0000
  C   C909      1.0  0.73258  0.78211  0.10131  1.0000
  C   C910      1.0  0.75153  0.80729  0.08597  1.0000
  H   H1619     1.0  0.72400  0.86158  0.14105  1.0000
  H   H1620     1.0  0.69028  0.81728  0.16767  1.0000
  H   H1621     1.0  0.73542  0.75986  0.09037  1.0000
  H   H1622     1.0  0.76877  0.80436  0.06331  1.0000
  Fe  Fe104     1.0  0.77808  0.48531  0.27483  1.0000
  C   C911      1.0  0.61477  0.62053  0.17329  1.0000
  C   C912      1.0  0.65774  0.77644  0.04179  1.0000
  C   C913      1.0  0.56425  0.96422  0.03325  1.0000
  H   H1623     1.0  0.74791  0.92740  0.13799  1.0000
  H   H1624     1.0  0.00579  0.77566  0.30032  1.0000
  H   H1625     1.0  0.94390  0.90300  0.04291  1.0000
  H   H1626     1.0  0.67451  0.48853  0.19422  1.0000
  H   H1627     1.0  0.93704  0.82358  0.28747  1.0000
  C   C914      1.0  0.70609  0.54715  0.13630  1.0000
  N   N51       1.0  0.54905  0.64498  0.14566  1.0000
  H   H1628     1.0  0.75940  0.54653  0.06388  1.0000
  C   C915      1.0  0.57729  0.59267  0.35246  1.0000
  H   H1629     1.0  0.95312  0.59279  0.21529  1.0000
  H   H1630     1.0  0.93965  0.78673  0.26902  1.0000
  C   C916      1.0  0.71507  0.79287  0.33953  1.0000
  C   C917      1.0  0.71765  0.49231  0.10339  1.0000
  C   C918      1.0  0.64373  0.62436  0.20298  1.0000
  H   H1631     1.0  0.86267  0.76425  0.28402  1.0000
  C   C919      1.0  0.89093  0.85510  0.14141  1.0000
  H   H1632     1.0  0.70796  0.61839  0.29186  1.0000
  C   C920      1.0  0.99109  0.52056  0.16979  1.0000
  H   H1633     1.0  0.64359  0.67697  0.08158  1.0000
  N   N52       1.0  0.87737  0.79451  0.32444  1.0000
  S   S209      1.0  0.53957  0.83466  0.22400  1.0000
  H   H1634     1.0  0.64068  0.66227  0.30564  1.0000
  H   H1635     1.0  0.62972  0.61216  0.29232  1.0000
  C   C921      1.0  0.69312  0.51527  0.08907  1.0000
  C   C922      1.0  0.85600  0.78797  0.29204  1.0000
  H   H1636     1.0  0.65590  0.89291  0.05940  1.0000
  C   C923      1.0  0.79024  0.79260  0.25646  1.0000
  C   C924      1.0  0.73654  0.49675  0.13408  1.0000
  H   H1637     1.0  0.57016  0.49297  0.05274  1.0000
  C   C925      1.0  0.00740  0.54904  0.16096  1.0000
  N   N53       1.0  0.55401  0.80028  0.08615  1.0000
  H   H1638     1.0  0.75533  0.79469  0.25720  1.0000
  H   H1639     1.0  0.80313  0.81225  0.24266  1.0000
  C   C926      1.0  0.92306  0.78545  0.32120  1.0000
  C   C927      1.0  0.80449  0.88804  0.21406  1.0000
  H   H1640     1.0  0.58300  0.70131  0.31097  1.0000
  C   C928      1.0  0.00016  0.89627  0.31422  1.0000
  H   H1641     1.0  0.94927  0.91673  0.12819  1.0000
  H   H1642     1.0  0.63517  0.71629  0.31633  1.0000
  C   C929      1.0  0.56727  0.82857  0.10431  1.0000
  H   H1643     1.0  0.79197  0.77283  0.30422  1.0000
  H   H1644     1.0  0.88427  0.80712  0.13027  1.0000
  C   C930      1.0  0.59156  0.78133  0.07651  1.0000
  H   H1645     1.0  0.55230  0.65858  0.09485  1.0000
  C   C931      1.0  0.59271  0.82356  0.13628  1.0000
  Fe  Fe105     1.0  0.79484  0.47478  0.20166  1.0000
  H   H1646     1.0  0.71392  0.57958  0.30575  1.0000
  H   H1647     1.0  0.63396  0.62483  0.15106  1.0000
  H   H1648     1.0  0.79829  0.77122  0.24347  1.0000
  C   C932      1.0  0.60913  0.85365  0.14987  1.0000
  H   H1649     1.0  0.92561  0.85261  0.14309  1.0000
  H   H1650     1.0  0.82779  0.91467  0.31264  1.0000
  H   H1651     1.0  0.58584  0.84380  0.08800  1.0000
  H   H1652     1.0  0.97589  0.81684  0.09675  1.0000
  H   H1653     1.0  0.82268  0.78025  0.35229  1.0000
  C   C933      1.0  0.69326  0.92714  0.03177  1.0000
  C   C934      1.0  0.78050  0.54100  0.04307  1.0000
  H   H1654     1.0  0.60562  0.76993  0.09831  1.0000
  H   H1655     1.0  0.55708  0.94010  0.03881  1.0000
  H   H1656     1.0  0.64585  0.81230  0.07641  1.0000
  H   H1657     1.0  0.57484  0.64140  0.32009  1.0000
  H   H1658     1.0  0.57237  0.81335  0.15546  1.0000
  H   H1659     1.0  0.62001  0.80843  0.13232  1.0000
  C   C935      1.0  0.94150  0.92484  0.29130  1.0000
  C   C936      1.0  0.69021  0.92861  0.10933  1.0000
  H   H1660     1.0  0.55760  0.63361  0.19685  1.0000
  H   H1661     1.0  0.59801  0.69885  0.06911  1.0000
  C   C937      1.0  0.87455  0.82929  0.11983  1.0000
  C   C938      1.0  0.73053  0.52418  0.15057  1.0000
  C   C939      1.0  0.70610  0.95314  0.08508  1.0000
  C   C940      1.0  0.70787  0.82333  0.33176  1.0000
  H   H1662     1.0  0.63197  0.86414  0.13258  1.0000
  H   H1663     1.0  0.58262  0.86955  0.15446  1.0000
  C   C941      1.0  0.57640  0.64203  0.17574  1.0000
  C   C942      1.0  0.57100  0.46799  0.04909  1.0000
  H   H1664     1.0  0.72512  0.91817  0.03783  1.0000
  H   H1665     1.0  0.71769  0.86991  0.34635  1.0000
  N   N54       1.0  0.87618  0.51235  0.09467  1.0000
  C   C943      1.0  0.91152  0.51571  0.07018  1.0000
  C   C944      1.0  0.83507  0.51179  0.07617  1.0000
  C   C945      1.0  0.87797  0.53869  0.11844  1.0000
  C   C946      1.0  0.88036  0.48336  0.11407  1.0000
  C   C947      1.0  0.59455  0.64633  0.34207  1.0000
  C   C948      1.0  0.95660  0.51185  0.08393  1.0000
  C   C949      1.0  0.83814  0.54360  0.13996  1.0000
  C   C950      1.0  0.82608  0.54033  0.05495  1.0000
  H   H1666     1.0  0.83956  0.82978  0.11868  1.0000
  H   H1667     1.0  0.70204  0.91308  0.15905  1.0000
  H   H1668     1.0  0.53026  0.68956  0.16302  1.0000
  C   C951      1.0  0.84435  0.56979  0.16400  1.0000
  H   H1669     1.0  0.91044  0.53866  0.05880  1.0000
  H   H1670     1.0  0.90764  0.49957  0.04939  1.0000
  H   H1671     1.0  0.89904  0.88856  0.10379  1.0000
  H   H1672     1.0  0.80822  0.50757  0.09314  1.0000
  H   H1673     1.0  0.88462  0.56038  0.10545  1.0000
  H   H1674     1.0  0.90491  0.53593  0.13568  1.0000
  H   H1675     1.0  0.90893  0.48412  0.12992  1.0000
  H   H1676     1.0  0.85368  0.48098  0.13152  1.0000
  C   C952      1.0  0.64678  0.47990  0.18042  1.0000
  H   H1677     1.0  0.86874  0.84156  0.30973  1.0000
  H   H1678     1.0  0.96153  0.52677  0.10537  1.0000
  H   H1679     1.0  0.96235  0.48802  0.09147  1.0000
  H   H1680     1.0  0.83062  0.52302  0.15445  1.0000
  H   H1681     1.0  0.81043  0.54941  0.12465  1.0000
  H   H1682     1.0  0.83195  0.56166  0.06859  1.0000
  H   H1683     1.0  0.64173  0.76467  0.02117  1.0000
  H   H1684     1.0  0.54467  0.54634  0.09766  1.0000
  H   H1685     1.0  0.59750  0.63889  0.10837  1.0000
  C   C953      1.0  0.88193  0.94983  0.09806  1.0000
  C   C954      1.0  0.97731  0.83186  0.07492  1.0000
  H   H1686     1.0  0.77109  0.51890  0.03220  1.0000
  H   H1687     1.0  0.62618  0.62001  0.22611  1.0000
  H   H1688     1.0  0.88735  0.83109  0.09460  1.0000
  H   H1689     1.0  0.81819  0.86493  0.21570  1.0000
  C   C955      1.0  0.87987  0.88642  0.12653  1.0000
  H   H1690     1.0  0.81528  0.57287  0.17884  1.0000
  H   H1691     1.0  0.87076  0.56490  0.18096  1.0000
  H   H1692     1.0  0.85099  0.59125  0.15068  1.0000
  C   C956      1.0  0.63766  0.96019  0.05805  1.0000
  C   C957      1.0  0.55022  0.59256  0.11530  1.0000
  C   C958      1.0  0.98988  0.94880  0.32946  1.0000
  C   C959      1.0  0.79902  0.91218  0.32789  1.0000
  H   H1693     1.0  0.85810  0.75044  0.34223  1.0000
  H   H1694     1.0  0.77302  0.53830  0.33211  1.0000
  C   C960      1.0  0.94683  0.79977  0.29168  1.0000
  H   H1695     1.0  0.63924  0.71622  0.09322  1.0000
  H   H1696     1.0  0.67921  0.51199  0.06516  1.0000
  H   H1697     1.0  0.67029  0.60804  0.20130  1.0000
  H   H1698     1.0  0.55173  0.60159  0.08989  1.0000
  H   H1699     1.0  0.52857  0.79070  0.03770  1.0000
  H   H1700     1.0  0.00152  0.50045  0.15699  1.0000
  H   H1701     1.0  0.58277  0.58822  0.12346  1.0000
  H   H1702     1.0  0.88221  0.89171  0.19590  1.0000
  Fe  Fe106     1.0  0.63656  0.56941  0.03549  1.0000
  C   C961      1.0  0.71363  0.93084  0.14195  1.0000
  C   C962      1.0  0.85665  0.77468  0.35001  1.0000
  H   H1703     1.0  0.84223  0.52878  0.34981  1.0000
  H   H1704     1.0  0.74029  0.94845  0.08185  1.0000
  H   H1705     1.0  0.98579  0.50679  0.03563  1.0000
  S   S210      1.0  0.72237  0.48710  0.30995  1.0000
  H   H1706     1.0  0.53915  0.84200  0.11164  1.0000
  H   H1707     1.0  0.63108  0.90638  0.02293  1.0000
  H   H1708     1.0  0.80814  0.88846  0.16177  1.0000
  H   H1709     1.0  0.87159  0.93072  0.19665  1.0000
  H   H1710     1.0  0.60387  0.59661  0.17333  1.0000
  C   C963      1.0  0.57384  0.65590  0.11628  1.0000
  H   H1711     1.0  0.92583  0.76035  0.31863  1.0000
  C   C964      1.0  0.87167  0.82777  0.33254  1.0000
  H   H1712     1.0  0.70192  0.56848  0.14905  1.0000
  H   H1713     1.0  0.84682  0.88540  0.11747  1.0000
  Fe  Fe107     1.0  0.80481  0.86361  0.03297  1.0000
  C   C965      1.0  0.59853  0.68604  0.12083  1.0000
  C   C966      1.0  0.86638  0.90986  0.18173  1.0000
  H   H1714     1.0  0.54880  0.82774  0.04228  1.0000
  H   H1715     1.0  0.62291  0.68365  0.14017  1.0000
  S   S211      1.0  0.86404  0.46703  0.20903  1.0000
  H   H1716     1.0  0.87670  0.85169  0.16592  1.0000
  C   C967      1.0  0.99285  0.57499  0.17706  1.0000
  H   H1717     1.0  0.93666  0.84500  0.33850  1.0000
  N   N55       1.0  0.88607  0.91383  0.14828  1.0000
  H   H1718     1.0  0.84671  0.54020  0.03292  1.0000
  H   H1719     1.0  0.93660  0.94657  0.15547  1.0000
  S   S212      1.0  0.76788  0.46773  0.15079  1.0000
  H   H1720     1.0  0.63559  0.57339  0.30495  1.0000
  H   H1721     1.0  0.69132  0.58734  0.26614  1.0000
  H   H1722     1.0  0.69642  0.90568  0.09945  1.0000
  S   S213      1.0  0.89731  0.92579  0.26533  1.0000
  H   H1723     1.0  0.97243  0.85566  0.08303  1.0000
  C   C968      1.0  0.95956  0.92467  0.04398  1.0000
  C   C969      1.0  0.62880  0.66914  0.33016  1.0000
  C   C970      1.0  0.61098  0.70113  0.32714  1.0000
  H   H1724     1.0  0.72238  0.47116  0.09067  1.0000
  H   H1725     1.0  0.88695  0.88893  0.34007  1.0000
  H   H1726     1.0  0.84124  0.83132  0.34575  1.0000
  C   C971      1.0  0.53081  0.80982  0.05547  1.0000
  H   H1727     1.0  0.57218  0.58909  0.32575  1.0000
  H   H1728     1.0  0.00329  0.81306  0.31851  1.0000
  H   H1729     1.0  0.64265  0.49413  0.15818  1.0000
  H   H1730     1.0  0.52528  0.55183  0.13873  1.0000
  H   H1731     1.0  0.80090  0.89084  0.34224  1.0000
  C   C972      1.0  0.99452  0.79929  0.29672  1.0000
  H   H1732     1.0  0.94735  0.91647  0.20366  1.0000
  C   C973      1.0  0.86451  0.94048  0.13221  1.0000
  H   H1733     1.0  0.00036  0.91172  0.08395  1.0000
  C   C974      1.0  0.94825  0.94772  0.02208  1.0000
  H   H1734     1.0  0.70848  0.95336  0.15351  1.0000
  C   C975      1.0  0.93241  0.92168  0.15149  1.0000
  C   C976      1.0  0.52715  0.56214  0.11392  1.0000
  H   H1735     1.0  0.70773  0.86396  0.02629  1.0000
  H   H1736     1.0  0.77141  0.91063  0.31125  1.0000
  H   H1737     1.0  0.66923  0.75922  0.05948  1.0000
  H   H1738     1.0  0.79220  0.95980  0.33466  1.0000
  H   H1739     1.0  0.00509  0.59705  0.17028  1.0000
  H   H1740     1.0  0.65637  0.67059  0.34660  1.0000
  C   C977      1.0  0.52694  0.61540  0.13791  1.0000
  H   H1741     1.0  0.68529  0.78909  0.03191  1.0000
  H   H1742     1.0  0.77663  0.55895  0.02422  1.0000
  H   H1743     1.0  0.67656  0.62289  0.34687  1.0000
  H   H1744     1.0  0.01132  0.93722  0.17587  1.0000
  C   C978      1.0  0.01234  0.95771  0.06894  1.0000
  H   H1745     1.0  0.86639  0.96077  0.14851  1.0000
  C   C979      1.0  0.79388  0.93952  0.35058  1.0000
  H   H1746     1.0  0.51816  0.60349  0.16104  1.0000
  C   C980      1.0  0.01321  0.92186  0.33174  1.0000
  H   H1747     1.0  0.01060  0.80902  0.27493  1.0000
  H   H1748     1.0  0.60212  0.71019  0.35160  1.0000
  S   S214      1.0  0.79447  0.96608  0.24575  1.0000
  C   C981      1.0  0.72332  0.84639  0.35248  1.0000
  Fe  Fe108     1.0  0.86927  0.82198  0.48676  1.0000
  S   S215      1.0  0.87061  0.86138  0.45224  1.0000
  S   S216      1.0  0.91656  0.78402  0.48526  1.0000
  Fe  Fe109     1.0  0.80017  0.85711  0.45317  1.0000
  S   S217      1.0  0.76507  0.86858  0.40646  1.0000
  S   S218      1.0  0.79873  0.81514  0.48479  1.0000
  Fe  Fe110     1.0  0.65933  0.56500  0.47458  1.0000
  C   C982      1.0  0.96008  0.96387  0.53527  1.0000
  S   S219      1.0  0.71077  0.57115  0.43641  1.0000
  H   H1749     1.0  0.52142  0.62148  0.36182  1.0000
  H   H1750     1.0  0.54928  0.56846  0.66953  1.0000
  S   S220      1.0  0.59079  0.56823  0.46191  1.0000
  C   C983      1.0  0.71304  0.54790  0.40114  1.0000
  C   C984      1.0  0.57463  0.59749  0.63098  1.0000
  H   H1751     1.0  0.92232  0.89445  0.55607  1.0000
  H   H1752     1.0  0.57679  0.75289  0.58912  1.0000
  H   H1753     1.0  0.56136  0.54931  0.63158  1.0000
  C   C985      1.0  0.68331  0.52503  0.39552  1.0000
  H   H1754     1.0  0.70061  0.89761  0.59595  1.0000
  C   C986      1.0  0.69516  0.52966  0.61802  1.0000
  H   H1755     1.0  0.75112  0.78501  0.56095  1.0000
  H   H1756     1.0  0.65805  0.52137  0.41294  1.0000
  C   C987      1.0  0.82023  0.93197  0.58133  1.0000
  C   C988      1.0  0.52025  0.68507  0.66627  1.0000
  C   C989      1.0  0.78458  0.50139  0.53735  1.0000
  C   C990      1.0  0.00586  0.84775  0.51663  1.0000
  C   C991      1.0  0.95213  0.78144  0.45220  1.0000
  C   C992      1.0  0.96188  0.80639  0.43226  1.0000
  C   C993      1.0  0.99175  0.80345  0.40683  1.0000
  H   H1757     1.0  0.97865  0.88049  0.41182  1.0000
  H   H1758     1.0  0.92463  0.88817  0.65659  1.0000
  C   C994      1.0  0.97173  0.75358  0.44626  1.0000
  H   H1759     1.0  0.94695  0.82797  0.43671  1.0000
  C   C995      1.0  0.85295  0.75333  0.40756  1.0000
  H   H1760     1.0  0.86916  0.94227  0.43294  1.0000
  H   H1761     1.0  0.96421  0.73420  0.46147  1.0000
  C   C996      1.0  0.74582  0.83916  0.38109  1.0000
  C   C997      1.0  0.75294  0.80873  0.38882  1.0000
  H   H1762     1.0  0.66358  0.48882  0.36333  1.0000
  H   H1763     1.0  0.78677  0.92586  0.58550  1.0000
  H   H1764     1.0  0.70508  0.80374  0.67569  1.0000
  H   H1765     1.0  0.97612  0.79595  0.54904  1.0000
  H   H1766     1.0  0.77015  0.80292  0.41081  1.0000
  H   H1767     1.0  0.76819  0.57048  0.38211  1.0000
  H   H1768     1.0  0.79859  0.48146  0.44748  1.0000
  Fe  Fe111     1.0  0.79720  0.84738  0.52778  1.0000
  S   S221      1.0  0.79301  0.88890  0.49587  1.0000
  S   S222      1.0  0.75885  0.84996  0.57489  1.0000
  Fe  Fe112     1.0  0.86337  0.88952  0.49758  1.0000
  S   S223      1.0  0.89806  0.93395  0.50208  1.0000
  S   S224      1.0  0.86758  0.85045  0.53227  1.0000
  Fe  Fe113     1.0  0.58348  0.59626  0.50773  1.0000
  S   S225      1.0  0.57081  0.55655  0.54054  1.0000
  H   H1769     1.0  0.67163  0.69833  0.55670  1.0000
  H   H1770     1.0  0.55061  0.62479  0.67142  1.0000
  H   H1771     1.0  0.94092  0.48347  0.60251  1.0000
  S   S226      1.0  0.65299  0.59702  0.51733  1.0000
  S   S227      1.0  0.66499  0.55839  0.59979  1.0000
  H   H1772     1.0  0.57231  0.85963  0.68013  1.0000
  S   S228      1.0  0.65369  0.52343  0.50615  1.0000
  H   H1773     1.0  0.98693  0.58226  0.59740  1.0000
  H   H1774     1.0  0.62874  0.67415  0.54394  1.0000
  H   H1775     1.0  0.54933  0.85821  0.58941  1.0000
  H   H1776     1.0  0.81939  0.84421  0.64801  1.0000
  H   H1777     1.0  0.80733  0.49063  0.52019  1.0000
  Fe  Fe114     1.0  0.64098  0.55561  0.54781  1.0000
  C   C998      1.0  0.64011  0.86002  0.68163  1.0000
  C   C999      1.0  0.70420  0.50248  0.60180  1.0000
  C   C1000     1.0  0.86615  0.91354  0.66733  1.0000
  H   H1778     1.0  0.01528  0.72871  0.41594  1.0000
  H   H1779     1.0  0.83797  0.95552  0.62632  1.0000
  C   C1001     1.0  0.85439  0.87880  0.62001  1.0000
  C   C1002     1.0  0.55707  0.62777  0.64474  1.0000
  H   H1780     1.0  0.53492  0.68265  0.61452  1.0000
  C   C1003     1.0  0.63198  0.68260  0.59665  1.0000
  C   C1004     1.0  0.97006  0.91882  0.58274  1.0000
  C   C1005     1.0  0.91353  0.47292  0.61505  1.0000
  C   C1006     1.0  0.86882  0.82218  0.62173  1.0000
  Fe  Fe115     1.0  0.58442  0.52853  0.49584  1.0000
  H   H1781     1.0  0.72372  0.74256  0.59512  1.0000
  C   C1007     1.0  0.74326  0.81850  0.59885  1.0000
  C   C1008     1.0  0.73041  0.82356  0.63136  1.0000
  C   C1009     1.0  0.71485  0.79963  0.65070  1.0000
  H   H1782     1.0  0.86673  0.79954  0.39592  1.0000
  C   C1010     1.0  0.72565  0.76517  0.60534  1.0000
  C   C1011     1.0  0.74134  0.78915  0.58598  1.0000
  H   H1783     1.0  0.73225  0.84614  0.64156  1.0000
  H   H1784     1.0  0.66217  0.58587  0.35767  1.0000
  C   C1012     1.0  0.98790  0.89337  0.46309  1.0000
  H   H1785     1.0  0.61052  0.80306  0.58462  1.0000
  H   H1786     1.0  0.74339  0.76220  0.37421  1.0000
  C   C1013     1.0  0.86685  0.96520  0.42152  1.0000
  H   H1787     1.0  0.86405  0.54552  0.38632  1.0000
  H   H1788     1.0  0.94668  0.91148  0.42571  1.0000
  H   H1789     1.0  0.85553  0.46661  0.35686  1.0000
  H   H1790     1.0  0.87913  0.93613  0.60623  1.0000
  H   H1791     1.0  0.73364  0.94378  0.47087  1.0000
  C   C1014     1.0  0.72898  0.48031  0.61736  1.0000
  H   H1792     1.0  0.86052  0.73002  0.39910  1.0000
  C   C1015     1.0  0.53292  0.59832  0.36746  1.0000
  H   H1793     1.0  0.01038  0.51332  0.66610  1.0000
  H   H1794     1.0  0.52569  0.62997  0.63280  1.0000
  H   H1795     1.0  0.83582  0.92014  0.38670  1.0000
  H   H1796     1.0  0.60543  0.90544  0.58561  1.0000
  H   H1797     1.0  0.69233  0.49871  0.57728  1.0000
  H   H1798     1.0  0.85990  0.94630  0.35904  1.0000
  H   H1799     1.0  0.62137  0.85242  0.58203  1.0000
  H   H1800     1.0  0.58890  0.57058  0.36230  1.0000
  C   C1016     1.0  0.71198  0.77038  0.63764  1.0000
  H   H1801     1.0  0.99280  0.91484  0.47676  1.0000
  S   S229      1.0  0.54829  0.64094  0.50970  1.0000
  C   C1017     1.0  0.77187  0.93287  0.65829  1.0000
  C   C1018     1.0  0.58547  0.79985  0.60333  1.0000
  H   H1802     1.0  0.73569  0.47651  0.48424  1.0000
  H   H1803     1.0  0.86470  0.75594  0.43302  1.0000
  H   H1804     1.0  0.86655  0.87454  0.37871  1.0000
  H   H1805     1.0  0.63316  0.66924  0.39820  1.0000
  H   H1806     1.0  0.52212  0.89318  0.65144  1.0000
  C   C1019     1.0  0.99412  0.94544  0.58471  1.0000
  C   C1020     1.0  0.74538  0.55258  0.37812  1.0000
  H   H1807     1.0  0.81821  0.75639  0.40786  1.0000
  H   H1808     1.0  0.84763  0.53119  0.67828  1.0000
  H   H1809     1.0  0.92609  0.92703  0.64364  1.0000
  H   H1810     1.0  0.82937  0.59764  0.66035  1.0000
  H   H1811     1.0  0.63508  0.61628  0.68044  1.0000
  C   C1021     1.0  0.79473  0.90362  0.64709  1.0000
  H   H1812     1.0  0.00216  0.91746  0.41773  1.0000
  C   C1022     1.0  0.88491  0.49749  0.63069  1.0000
  H   H1813     1.0  0.67447  0.65805  0.56397  1.0000
  C   C1023     1.0  0.78868  0.95992  0.42074  1.0000
  C   C1024     1.0  0.98047  0.81632  0.56477  1.0000
  H   H1814     1.0  0.01243  0.60955  0.68215  1.0000
  C   C1025     1.0  0.53069  0.89226  0.62505  1.0000
  H   H1815     1.0  0.94689  0.96119  0.44732  1.0000
  H   H1816     1.0  0.65776  0.85313  0.61436  1.0000
  S   S230      1.0  0.54772  0.48735  0.48087  1.0000
  N   N56       1.0  0.59261  0.85313  0.63020  1.0000
  C   C1026     1.0  0.68652  0.50661  0.36742  1.0000
  H   H1817     1.0  0.62669  0.63476  0.60502  1.0000
  H   H1818     1.0  0.78344  0.93491  0.42236  1.0000
  C   C1027     1.0  0.59824  0.86721  0.66370  1.0000
  C   C1028     1.0  0.82120  0.96235  0.56335  1.0000
  H   H1819     1.0  0.63406  0.91007  0.62368  1.0000
  H   H1820     1.0  0.79216  0.88710  0.66763  1.0000
  H   H1821     1.0  0.61485  0.75846  0.62142  1.0000
  C   C1029     1.0  0.64869  0.63792  0.67146  1.0000
  C   C1030     1.0  0.73459  0.46972  0.45809  1.0000
  H   H1822     1.0  0.57288  0.81166  0.65421  1.0000
  H   H1823     1.0  0.84925  0.81830  0.59951  1.0000
  H   H1824     1.0  0.97377  0.90134  0.60112  1.0000
  C   C1031     1.0  0.97843  0.90118  0.42737  1.0000
  C   C1032     1.0  0.60520  0.65455  0.60635  1.0000
  H   H1825     1.0  0.55902  0.76160  0.63002  1.0000
  C   C1033     1.0  0.83857  0.50027  0.39361  1.0000
  C   C1034     1.0  0.54944  0.86068  0.61660  1.0000
  H   H1826     1.0  0.91899  0.95112  0.38937  1.0000
  C   C1035     1.0  0.58399  0.76612  0.61160  1.0000
  H   H1827     1.0  0.99932  0.82272  0.39150  1.0000
  C   C1036     1.0  0.84564  0.93377  0.61377  1.0000
  H   H1828     1.0  0.83430  0.91472  0.56476  1.0000
  H   H1829     1.0  0.62818  0.68446  0.66469  1.0000
  H   H1830     1.0  0.60752  0.59354  0.63853  1.0000
  C   C1037     1.0  0.67246  0.90375  0.58126  1.0000
  C   C1038     1.0  0.71054  0.53444  0.64979  1.0000
  C   C1039     1.0  0.73765  0.78571  0.36810  1.0000
  N   N57       1.0  0.84024  0.90740  0.63699  1.0000
  H   H1831     1.0  0.85941  0.49586  0.41480  1.0000
  C   C1040     1.0  0.89439  0.87540  0.36227  1.0000
  C   C1041     1.0  0.73533  0.51239  0.66521  1.0000
  H   H1832     1.0  0.79033  0.94523  0.67712  1.0000
  H   H1833     1.0  0.92067  0.88679  0.37519  1.0000
  C   C1042     1.0  0.63218  0.89702  0.60055  1.0000
  H   H1834     1.0  0.81705  0.48638  0.59810  1.0000
  H   H1835     1.0  0.80201  0.47733  0.35733  1.0000
  H   H1836     1.0  0.72251  0.48918  0.44365  1.0000
  H   H1837     1.0  0.98798  0.80872  0.59005  1.0000
  H   H1838     1.0  0.55304  0.91098  0.62023  1.0000
  C   C1043     1.0  0.54829  0.57045  0.64240  1.0000
  C   C1044     1.0  0.00062  0.75045  0.42049  1.0000
  C   C1045     1.0  0.87394  0.77691  0.38538  1.0000
  C   C1046     1.0  0.74483  0.48537  0.64899  1.0000
  C   C1047     1.0  0.93554  0.93751  0.53359  1.0000
  H   H1839     1.0  0.88676  0.88151  0.60991  1.0000
  H   H1840     1.0  0.65734  0.68680  0.61481  1.0000
  H   H1841     1.0  0.66641  0.63387  0.64845  1.0000
  H   H1842     1.0  0.70859  0.91389  0.65462  1.0000
  H   H1843     1.0  0.57284  0.65844  0.35912  1.0000
  C   C1048     1.0  0.83742  0.50247  0.58413  1.0000
  C   C1049     1.0  0.01123  0.77540  0.40100  1.0000
  C   C1050     1.0  0.01556  0.56178  0.67161  1.0000
  H   H1844     1.0  0.59189  0.95320  0.40811  1.0000
  N   N58       1.0  0.58292  0.65621  0.63907  1.0000
  H   H1845     1.0  0.76226  0.51544  0.52289  1.0000
  H   H1846     1.0  0.85918  0.93660  0.67710  1.0000
  H   H1847     1.0  0.67759  0.64343  0.39586  1.0000
  C   C1051     1.0  0.65291  0.67789  0.56326  1.0000
  H   H1848     1.0  0.90830  0.77277  0.38634  1.0000
  H   H1849     1.0  0.83443  0.87438  0.59821  1.0000
  C   C1052     1.0  0.94089  0.91484  0.55721  1.0000
  N   N59       1.0  0.86522  0.52007  0.60750  1.0000
  H   H1850     1.0  0.76640  0.48337  0.55010  1.0000
  C   C1053     1.0  0.83773  0.54216  0.62632  1.0000
  H   H1851     1.0  0.59542  0.89223  0.66279  1.0000
  C   C1054     1.0  0.89790  0.53659  0.58737  1.0000
  C   C1055     1.0  0.93123  0.55496  0.60655  1.0000
  C   C1056     1.0  0.62691  0.86256  0.60662  1.0000
  C   C1057     1.0  0.80764  0.52156  0.56199  1.0000
  H   H1852     1.0  0.66770  0.86595  0.66629  1.0000
  C   C1058     1.0  0.86065  0.52404  0.37233  1.0000
  C   C1059     1.0  0.96526  0.56721  0.58352  1.0000
  H   H1853     1.0  0.99360  0.82860  0.50152  1.0000
  H   H1854     1.0  0.88521  0.55793  0.66282  1.0000
  C   C1060     1.0  0.59496  0.81909  0.63441  1.0000
  H   H1855     1.0  0.90452  0.50893  0.64949  1.0000
  H   H1856     1.0  0.83317  0.56338  0.61192  1.0000
  H   H1857     1.0  0.80558  0.53252  0.62975  1.0000
  C   C1061     1.0  0.82510  0.57681  0.67531  1.0000
  H   H1858     1.0  0.97855  0.86322  0.51988  1.0000
  H   H1859     1.0  0.91461  0.52053  0.57078  1.0000
  H   H1860     1.0  0.88263  0.55323  0.57078  1.0000
  H   H1861     1.0  0.94712  0.54091  0.62525  1.0000
  H   H1862     1.0  0.91627  0.57484  0.61848  1.0000
  H   H1863     1.0  0.80866  0.51029  0.40270  1.0000
  C   C1062     1.0  0.85178  0.55091  0.66161  1.0000
  H   H1864     1.0  0.82515  0.53882  0.54770  1.0000
  H   H1865     1.0  0.78336  0.53342  0.57682  1.0000
  H   H1866     1.0  0.67425  0.92834  0.57550  1.0000
  H   H1867     1.0  0.80449  0.96018  0.53955  1.0000
  H   H1868     1.0  0.76678  0.94812  0.63703  1.0000
  H   H1869     1.0  0.66989  0.66638  0.45072  1.0000
  H   H1870     1.0  0.91423  0.83074  0.37561  1.0000
  H   H1871     1.0  0.61745  0.65095  0.45461  1.0000
  H   H1872     1.0  0.98400  0.54828  0.57300  1.0000
  C   C1063     1.0  0.61331  0.66164  0.66691  1.0000
  H   H1873     1.0  0.55467  0.80578  0.59224  1.0000
  C   C1064     1.0  0.85240  0.84945  0.64098  1.0000
  H   H1874     1.0  0.87139  0.85157  0.66366  1.0000
  H   H1875     1.0  0.85957  0.48559  0.64466  1.0000
  H   H1876     1.0  0.62693  0.81203  0.64249  1.0000
  H   H1877     1.0  0.76350  0.93685  0.36376  1.0000
  H   H1878     1.0  0.86701  0.80150  0.63721  1.0000
  C   C1065     1.0  0.99883  0.53308  0.67886  1.0000
  C   C1066     1.0  0.61507  0.62130  0.39440  1.0000
  H   H1879     1.0  0.57367  0.59774  0.60373  1.0000
  H   H1880     1.0  0.58167  0.65071  0.58648  1.0000
  C   C1067     1.0  0.72861  0.92574  0.67289  1.0000
  H   H1881     1.0  0.57086  0.70462  0.63815  1.0000
  C   C1068     1.0  0.64538  0.64674  0.40578  1.0000
  C   C1069     1.0  0.64886  0.64749  0.44313  1.0000
  H   H1882     1.0  0.66257  0.62598  0.45224  1.0000
  H   H1883     1.0  0.95954  0.88183  0.47298  1.0000
  N   N60       1.0  0.60983  0.61731  0.35785  1.0000
  H   H1884     1.0  0.58449  0.62680  0.40620  1.0000
  H   H1885     1.0  0.62601  0.59960  0.40555  1.0000
  C   C1070     1.0  0.82870  0.47121  0.37369  1.0000
  H   H1886     1.0  0.71284  0.94725  0.67999  1.0000
  H   H1887     1.0  0.52548  0.84412  0.62575  1.0000
  H   H1888     1.0  0.70360  0.55546  0.66240  1.0000
  C   C1071     1.0  0.83155  0.94254  0.37464  1.0000
  H   H1889     1.0  0.77587  0.89344  0.62689  1.0000
  H   H1890     1.0  0.95106  0.58070  0.56336  1.0000
  H   H1891     1.0  0.61216  0.70316  0.59467  1.0000
  H   H1892     1.0  0.79121  0.57043  0.67565  1.0000
  H   H1893     1.0  0.85682  0.48832  0.56729  1.0000
  H   H1894     1.0  0.90213  0.82578  0.61433  1.0000
  H   H1895     1.0  0.67306  0.89082  0.55786  1.0000
  C   C1072     1.0  0.55301  0.68290  0.63791  1.0000
  H   H1896     1.0  0.95052  0.82931  0.56539  1.0000
  H   H1897     1.0  0.81026  0.95726  0.47174  1.0000
  H   H1898     1.0  0.53365  0.59528  0.39448  1.0000
  H   H1899     1.0  0.89252  0.51604  0.36509  1.0000
  S   S231      1.0  0.69109  0.73998  0.66080  1.0000
  C   C1073     1.0  0.91470  0.91153  0.66305  1.0000
  H   H1900     1.0  0.51641  0.67411  0.41104  1.0000
  S   S232      1.0  0.53540  0.64734  0.99115  1.0000
  S   S233      1.0  0.86542  0.86821  0.94995  1.0000
  C   C1074     1.0  0.64369  0.87790  0.71363  1.0000
  Fe  Fe116     1.0  0.79554  0.86681  0.95843  1.0000
  S   S234      1.0  0.74628  0.87104  0.91841  1.0000
  H   H1901     1.0  0.64896  0.67970  0.97023  1.0000
  Fe  Fe117     1.0  0.65992  0.74826  0.71005  1.0000
  S   S235      1.0  0.66291  0.78926  0.74269  1.0000
  C   C1075     1.0  0.77116  0.88758  0.82586  1.0000
  Fe  Fe118     1.0  0.59811  0.71471  0.75555  1.0000
  S   S236      1.0  0.59583  0.75306  0.79191  1.0000
  H   H1902     1.0  0.53595  0.68612  0.69047  1.0000
  Fe  Fe119     1.0  0.59264  0.78278  0.74706  1.0000
  H   H1903     1.0  0.86545  0.87706  0.85529  1.0000
  Fe  Fe120     1.0  0.66608  0.75626  0.78479  1.0000
  S   S237      1.0  0.71403  0.75680  0.82634  1.0000
  S   S238      1.0  0.58955  0.74432  0.71130  1.0000
  S   S239      1.0  0.66862  0.71545  0.75158  1.0000
  H   H1904     1.0  0.76158  0.58736  0.86803  1.0000
  S   S240      1.0  0.80017  0.51334  0.74433  1.0000
  H   H1905     1.0  0.52503  0.70961  0.80482  1.0000
  C   C1076     1.0  0.86555  0.83589  0.80829  1.0000
  H   H1906     1.0  0.78527  0.87590  0.84731  1.0000
  S   S241      1.0  0.79713  0.82804  0.99405  1.0000
  C   C1077     1.0  0.75661  0.54157  0.84951  1.0000
  S   S242      1.0  0.74886  0.48230  0.82762  1.0000
  Fe  Fe121     1.0  0.87058  0.51140  0.74998  1.0000
  S   S243      1.0  0.90912  0.55390  0.74689  1.0000
  C   C1078     1.0  0.52191  0.49913  0.93232  1.0000
  C   C1079     1.0  0.99968  0.58734  0.68765  1.0000
  Fe  Fe122     1.0  0.65830  0.58063  0.96347  1.0000
  S   S244      1.0  0.65708  0.53861  0.99451  1.0000
  S   S245      1.0  0.70622  0.59096  0.92392  1.0000
  C   C1080     1.0  0.79398  0.75384  0.96325  1.0000
  Fe  Fe123     1.0  0.57613  0.60536  0.99336  1.0000
  S   S246      1.0  0.59093  0.57804  0.94836  1.0000
  C   C1081     1.0  0.71774  0.56099  0.89677  1.0000
  Fe  Fe124     1.0  0.79901  0.48262  0.78812  1.0000
  H   H1907     1.0  0.84163  0.52048  0.90156  1.0000
  C   C1082     1.0  0.73762  0.51317  0.85359  1.0000
  C   C1083     1.0  0.70848  0.50887  0.87903  1.0000
  C   C1084     1.0  0.69845  0.53268  0.90052  1.0000
  H   H1908     1.0  0.77899  0.54512  0.82982  1.0000
  H   H1909     1.0  0.82672  0.75640  0.97251  1.0000
  C   C1085     1.0  0.99257  0.80440  0.78285  1.0000
  H   H1910     1.0  0.67584  0.52909  0.92001  1.0000
  H   H1911     1.0  0.87190  0.83004  0.88109  1.0000
  C   C1086     1.0  0.74668  0.56545  0.87112  1.0000
  C   C1087     1.0  0.85767  0.51191  0.87929  1.0000
  H   H1912     1.0  0.92762  0.86563  0.89413  1.0000
  H   H1913     1.0  0.00366  0.74446  0.90382  1.0000
  C   C1088     1.0  0.54204  0.60320  0.84686  1.0000
  H   H1914     1.0  0.78809  0.92507  0.87563  1.0000
  C   C1089     1.0  0.95906  0.92038  0.78800  1.0000
  H   H1915     1.0  0.79827  0.61598  0.00702  1.0000
  C   C1090     1.0  0.68268  0.52863  0.76764  1.0000
  H   H1916     1.0  0.94809  0.90093  0.77437  1.0000
  H   H1917     1.0  0.95079  0.84161  0.94922  1.0000
  H   H1918     1.0  0.96257  0.88040  0.86321  1.0000
  H   H1919     1.0  0.61726  0.47980  0.85381  1.0000
  N   N61       1.0  0.57680  0.58209  0.83616  1.0000
  H   H1920     1.0  0.69358  0.48698  0.88211  1.0000
  H   H1921     1.0  0.62071  0.95486  0.00575  1.0000
  C   C1091     1.0  0.94770  0.79284  0.95215  1.0000
  C   C1092     1.0  0.96378  0.76560  0.93992  1.0000
  H   H1922     1.0  0.59622  0.66241  0.69066  1.0000
  H   H1923     1.0  0.59746  0.66496  0.92769  1.0000
  H   H1924     1.0  0.57922  0.69707  0.95088  1.0000
  H   H1925     1.0  0.80246  0.85005  0.76374  1.0000
  H   H1926     1.0  0.95291  0.74423  0.94989  1.0000
  C   C1093     1.0  0.67756  0.47109  0.76382  1.0000
  H   H1927     1.0  0.85724  0.89782  0.68750  1.0000
  H   H1928     1.0  0.83827  0.82393  0.74381  1.0000
  C   C1094     1.0  0.73679  0.83906  0.89327  1.0000
  C   C1095     1.0  0.76308  0.81373  0.89466  1.0000
  C   C1096     1.0  0.75535  0.78861  0.87424  1.0000
  C   C1097     1.0  0.72195  0.78887  0.85168  1.0000
  C   C1098     1.0  0.69580  0.81434  0.85006  1.0000
  C   C1099     1.0  0.70301  0.83925  0.87100  1.0000
  H   H1929     1.0  0.78949  0.81364  0.91139  1.0000
  H   H1930     1.0  0.77563  0.76902  0.87564  1.0000
  H   H1931     1.0  0.66978  0.81470  0.83293  1.0000
  H   H1932     1.0  0.68222  0.85862  0.86997  1.0000
  S   S247      1.0  0.86884  0.48431  0.79648  1.0000
  N   N62       1.0  0.72679  0.68422  0.93494  1.0000
  C   C1100     1.0  0.75432  0.67238  0.90750  1.0000
  C   C1101     1.0  0.72827  0.66308  0.96427  1.0000
  C   C1102     1.0  0.68196  0.68475  0.92237  1.0000
  C   C1103     1.0  0.73877  0.71605  0.94477  1.0000
  C   C1104     1.0  0.78455  0.72045  0.95689  1.0000
  C   C1105     1.0  0.75639  0.69202  0.87594  1.0000
  C   C1106     1.0  0.64736  0.69363  0.94763  1.0000
  H   H1933     1.0  0.79236  0.94621  0.83846  1.0000
  H   H1934     1.0  0.01414  0.47621  0.76899  1.0000
  H   H1935     1.0  0.80665  0.47300  0.99686  1.0000
  C   C1107     1.0  0.78492  0.67745  0.85018  1.0000
  H   H1936     1.0  0.95539  0.60440  0.72310  1.0000
  H   H1937     1.0  0.74372  0.64918  0.90037  1.0000
  H   H1938     1.0  0.78742  0.66961  0.91559  1.0000
  H   H1939     1.0  0.71993  0.67555  0.98714  1.0000
  H   H1940     1.0  0.70386  0.64506  0.96193  1.0000
  H   H1941     1.0  0.67343  0.66203  0.91229  1.0000
  H   H1942     1.0  0.67851  0.70117  0.90187  1.0000
  H   H1943     1.0  0.73270  0.73222  0.92431  1.0000
  H   H1944     1.0  0.71832  0.72405  0.96515  1.0000
  H   H1945     1.0  0.80790  0.71220  0.93874  1.0000
  H   H1946     1.0  0.78905  0.70855  0.98056  1.0000
  H   H1947     1.0  0.72501  0.69476  0.86449  1.0000
  H   H1948     1.0  0.76941  0.71481  0.88137  1.0000
  H   H1949     1.0  0.65045  0.71787  0.95459  1.0000
  C   C1108     1.0  0.96232  0.82044  0.93934  1.0000
  Fe  Fe125     1.0  0.80862  0.47075  0.71496  1.0000
  C   C1109     1.0  0.53749  0.55669  0.74920  1.0000
  H   H1950     1.0  0.73508  0.93552  0.91563  1.0000
  C   C1110     1.0  0.66652  0.50186  0.74734  1.0000
  H   H1951     1.0  0.90080  0.47666  0.86343  1.0000
  S   S248      1.0  0.90794  0.94265  0.99265  1.0000
  H   H1952     1.0  0.88997  0.91556  0.89563  1.0000
  H   H1953     1.0  0.73186  0.91137  0.69511  1.0000
  H   H1954     1.0  0.77289  0.65464  0.84328  1.0000
  H   H1955     1.0  0.78547  0.69188  0.82783  1.0000
  H   H1956     1.0  0.81766  0.67537  0.85954  1.0000
  C   C1111     1.0  0.57172  0.55218  0.85374  1.0000
  H   H1957     1.0  0.88730  0.77541  0.83544  1.0000
  H   H1958     1.0  0.68535  0.87899  0.98890  1.0000
  H   H1959     1.0  0.57169  0.61864  0.89297  1.0000
  C   C1112     1.0  0.61969  0.59498  0.84436  1.0000
  C   C1113     1.0  0.76940  0.93741  0.85668  1.0000
  H   H1960     1.0  0.99417  0.84759  0.01321  1.0000
  C   C1114     1.0  0.01182  0.94404  0.82275  1.0000
  C   C1115     1.0  0.51840  0.66615  0.78138  1.0000
  C   C1116     1.0  0.62738  0.62846  0.83407  1.0000
  C   C1117     1.0  0.60222  0.52665  0.84269  1.0000
  C   C1118     1.0  0.59441  0.49739  0.86176  1.0000
  C   C1119     1.0  0.95026  0.55594  0.71799  1.0000
  C   C1120     1.0  0.67381  0.63706  0.83767  1.0000
  H   H1961     1.0  0.64487  0.58125  0.83250  1.0000
  H   H1962     1.0  0.62635  0.59316  0.87112  1.0000
  H   H1963     1.0  0.89944  0.85315  0.76470  1.0000
  C   C1121     1.0  0.88590  0.48396  0.88690  1.0000
  H   H1964     1.0  0.60871  0.64409  0.84972  1.0000
  S   S249      1.0  0.88464  0.94670  0.76992  1.0000
  H   H1965     1.0  0.59981  0.70272  0.91013  1.0000
  H   H1966     1.0  0.61690  0.87241  0.73018  1.0000
  H   H1967     1.0  0.66843  0.52861  0.79245  1.0000
  H   H1968     1.0  0.95151  0.85339  0.80183  1.0000
  H   H1969     1.0  0.60296  0.56696  0.78979  1.0000
  S   S250      1.0  0.55049  0.82371  0.74284  1.0000
  Fe  Fe126     1.0  0.58818  0.53795  0.98163  1.0000
  H   H1970     1.0  0.59843  0.52130  0.81632  1.0000
  H   H1971     1.0  0.63536  0.53342  0.84709  1.0000
  C   C1122     1.0  0.74338  0.91384  0.83721  1.0000
  C   C1123     1.0  0.99743  0.91890  0.80507  1.0000
  H   H1972     1.0  0.79107  0.76706  0.94028  1.0000
  H   H1973     1.0  0.91218  0.49247  0.90244  1.0000
  H   H1974     1.0  0.79665  0.89602  0.80954  1.0000
  H   H1975     1.0  0.53076  0.59036  0.89790  1.0000
  H   H1976     1.0  0.69354  0.62357  0.82052  1.0000
  H   H1977     1.0  0.67802  0.66147  0.83172  1.0000
  H   H1978     1.0  0.68474  0.63292  0.86310  1.0000
  Fe  Fe127     1.0  0.86762  0.83207  0.98848  1.0000
  H   H1979     1.0  0.94539  0.91913  0.90441  1.0000
  C   C1124     1.0  0.83419  0.84765  0.75249  1.0000
  C   C1125     1.0  0.86860  0.85601  0.77713  1.0000
  H   H1980     1.0  0.87886  0.47824  0.94970  1.0000
  H   H1981     1.0  0.83316  0.50609  0.86097  1.0000
  H   H1982     1.0  0.67353  0.94637  0.83436  1.0000
  C   C1126     1.0  0.89771  0.87218  0.84577  1.0000
  H   H1983     1.0  0.90084  0.53111  0.84287  1.0000
  C   C1127     1.0  0.76990  0.64544  0.97060  1.0000
  S   S251      1.0  0.90930  0.79127  0.98325  1.0000
  H   H1984     1.0  0.57708  0.55519  0.88049  1.0000
  C   C1128     1.0  0.95101  0.80405  0.80189  1.0000
  H   H1985     1.0  0.95346  0.50804  0.70770  1.0000
  H   H1986     1.0  0.73025  0.92445  0.81477  1.0000
  C   C1129     1.0  0.87167  0.76752  0.88584  1.0000
  H   H1987     1.0  0.67465  0.55029  0.75525  1.0000
  H   H1988     1.0  0.75179  0.87085  0.81213  1.0000
  C   C1130     1.0  0.87144  0.78785  0.85551  1.0000
  H   H1989     1.0  0.86246  0.55724  0.85887  1.0000
  H   H1990     1.0  0.85217  0.74701  0.88129  1.0000
  C   C1131     1.0  0.89263  0.81896  0.86249  1.0000
  S   S252      1.0  0.64428  0.61184  0.00564  1.0000
  H   H1991     1.0  0.86372  0.81216  0.79946  1.0000
  H   H1992     1.0  0.69252  0.93515  0.88820  1.0000
  C   C1132     1.0  0.92984  0.88107  0.87282  1.0000
  H   H1993     1.0  0.63198  0.50455  0.74440  1.0000
  H   H1994     1.0  0.85876  0.77968  0.90751  1.0000
  H   H1995     1.0  0.83433  0.84016  0.81992  1.0000
  H   H1996     1.0  0.71756  0.90412  0.85210  1.0000
  C   C1133     1.0  0.92209  0.91339  0.88503  1.0000
  H   H1997     1.0  0.71257  0.46892  0.76354  1.0000
  H   H1998     1.0  0.68162  0.50366  0.72289  1.0000
  S   S253      1.0  0.56479  0.66908  0.75775  1.0000
  H   H1999     1.0  0.67341  0.87171  0.72633  1.0000
  C   C1134     1.0  0.94335  0.83482  0.81912  1.0000
  H   H2000     1.0  0.82683  0.48479  0.93620  1.0000
  H   H2001     1.0  0.92274  0.81444  0.87546  1.0000
  H   H2002     1.0  0.90429  0.76009  0.89123  1.0000
  Fe  Fe128     1.0  0.86855  0.89995  0.99307  1.0000
  H   H2003     1.0  0.86428  0.88031  0.78320  1.0000
  C   C1135     1.0  0.99250  0.76573  0.91383  1.0000
  H   H2004     1.0  0.77501  0.62835  0.95097  1.0000
  H   H2005     1.0  0.99828  0.78170  0.77190  1.0000
  C   C1136     1.0  0.57409  0.57816  0.79943  1.0000
  H   H2006     1.0  0.59864  0.50129  0.88849  1.0000
  N   N63       1.0  0.90005  0.83984  0.83348  1.0000
  H   H2007     1.0  0.54368  0.62489  0.83299  1.0000
  H   H2008     1.0  0.83603  0.86300  0.73098  1.0000
  S   S254      1.0  0.87912  0.47147  0.71694  1.0000
  C   C1137     1.0  0.54069  0.61073  0.88390  1.0000
  H   H2009     1.0  0.95324  0.78578  0.82056  1.0000
  H   H2010     1.0  0.92577  0.92992  0.86466  1.0000
  C   C1138     1.0  0.71678  0.95038  0.89876  1.0000
  H   H2011     1.0  0.53866  0.54377  0.85186  1.0000
  H   H2012     1.0  0.53933  0.57918  0.73695  1.0000
  H   H2013     1.0  0.96784  0.83617  0.83861  1.0000
  H   H2014     1.0  0.92590  0.79836  0.78411  1.0000
  H   H2015     1.0  0.71740  0.52746  0.77041  1.0000
  C   C1139     1.0  0.60338  0.68932  0.93303  1.0000
  H   H2016     1.0  0.90307  0.88855  0.82558  1.0000
  H   H2017     1.0  0.90683  0.54635  0.88378  1.0000
  C   C1140     1.0  0.88370  0.53815  0.86537  1.0000
  H   H2018     1.0  0.61849  0.63252  0.80818  1.0000
  H   H2019     1.0  0.53306  0.53735  0.79716  1.0000
  H   H2020     1.0  0.83807  0.79137  0.84836  1.0000
  H   H2021     1.0  0.56203  0.48888  0.85705  1.0000
  C   C1141     1.0  0.67849  0.87279  0.01480  1.0000
  S   S255      1.0  0.56032  0.49451  0.96291  1.0000
  C   C1142     1.0  0.68041  0.64838  0.69728  1.0000
  C   C1143     1.0  0.93455  0.94680  0.78883  1.0000
  H   H2022     1.0  0.79781  0.66047  0.97105  1.0000
  C   C1144     1.0  0.99240  0.82059  0.91385  1.0000
  S   S256      1.0  0.79824  0.90243  0.99777  1.0000
  H   H2023     1.0  0.97190  0.91767  0.69090  1.0000
  H   H2024     1.0  0.77198  0.76312  0.98192  1.0000
  H   H2025     1.0  0.57335  0.60069  0.78711  1.0000
  H   H2026     1.0  0.92766  0.90492  0.71504  1.0000
  C   C1145     1.0  0.96740  0.58441  0.71085  1.0000
  C   C1146     1.0  0.76821  0.62834  0.00318  1.0000
  H   H2027     1.0  0.65461  0.85442  0.01481  1.0000
  H   H2028     1.0  0.99151  0.82145  0.76282  1.0000
  H   H2029     1.0  0.65547  0.47109  0.93809  1.0000
  H   H2030     1.0  0.56552  0.54307  0.74220  1.0000
  H   H2031     1.0  0.93064  0.94398  0.70147  1.0000
  H   H2032     1.0  0.63082  0.95584  0.91738  1.0000
  H   H2033     1.0  0.83514  0.58184  0.70085  1.0000
  C   C1147     1.0  0.00689  0.79313  0.90067  1.0000
  H   H2034     1.0  0.66176  0.94129  0.95114  1.0000
  H   H2035     1.0  0.64403  0.90268  0.70871  1.0000
  H   H2036     1.0  0.62100  0.47114  0.01410  1.0000
  H   H2037     1.0  0.00321  0.84184  0.90369  1.0000
  C   C1148     1.0  0.53520  0.56040  0.78645  1.0000
  H   H2038     1.0  0.66843  0.47346  0.79005  1.0000
  H   H2039     1.0  0.70548  0.63103  0.70013  1.0000
  C   C1149     1.0  0.65442  0.96180  0.93644  1.0000
  H   H2040     1.0  0.66454  0.65154  0.72134  1.0000
  C   C1150     1.0  0.93745  0.92007  0.69466  1.0000
  H   H2041     1.0  0.74208  0.61154  0.00301  1.0000
  H   H2042     1.0  0.69492  0.93311  0.00526  1.0000
  C   C1151     1.0  0.96611  0.53015  0.70206  1.0000
  N   N64       1.0  0.74533  0.96309  0.87250  1.0000
  H   H2043     1.0  0.75843  0.96232  0.01294  1.0000
  H   H2044     1.0  0.74731  0.51653  0.68949  1.0000
  H   H2045     1.0  0.64166  0.83564  0.68819  1.0000
  C   C1152     1.0  0.85172  0.46712  0.93725  1.0000
  H   H2046     1.0  0.01568  0.89828  0.80467  1.0000
  H   H2047     1.0  0.69545  0.67009  0.68973  1.0000
  H   H2048     1.0  0.51693  0.65683  0.87817  1.0000
