data_image0
_chemical_formula_structural       H2CH2C2H6FeH2C3NH2CH3SCSH2C4H4CHSCH2C3H6CSCNHCHC5H6CHCH4CHCHCSH4CSHCH3CHC3HC2Fe2H3C2SHSHCFeCH2SC2HCSH2CH5CHFeC2H4CH15C2NC2S2CHCH3CHC2HC2SH2CH2SCHC3HCH6SHCH3NCHCSFeCH5CH3CHCHCH2CHCFeH5C2HC3HFeCHC2H5CH3C2H4FeHFeS2C2HSCFeHCH4C2NH2C2H4CH2CHCHCHCSH2CH4CH4SCH2CHCNHFeH3C2HCH4C4SH3CH2SC2H4CHC2H2NH2FeSH3CHSHCH4C2HCH9SHC2HSCH2CFeCH4CH3NH3SHCH2C2H2FeH3SHCH6CHCHSCHCHC2HCHSC2H3C3HCH4CHFeHSC2H5C2FeCH3FeC4HSCH4CHNH2C3HS2HC2H4CH3CH3FeC2H3SHSHCHCHNHCHC2H3SH4CH3C3HCHCH5CH2C3HCH6CH4SC2H2CFeH2S2C3HCHCHCHCFe2CH3SH2CH2CH5CHCHSNCH3CH2CNHSH2FeC2HCH5CH5C2H6SC2HC2H2CH4CH4CSH2CNHCSH5C3H2C2HCH2CHC2H2FeCH2SH5SHCHCSH3CH3C2SH3CH4NC3H4FeCSCH2SC3HSC3H2CFeH9FeH3C2SCH6C2H2CNC2HFeCHCHSCH2SC2SCHCH2CHSH4C2HC4HSCH4FeCHCHCHCFeNH3CHCHCH2SH3CHFeH2SCH2CHSFeCSH2C2HCHCH8CH2C3H2
_chemical_formula_sum              "H512 C288 Fe32 N16 S64"
_cell_length_a       22.8696
_cell_length_b       21.8782
_cell_length_c       21.5309
_cell_angle_alpha    97.6006
_cell_angle_beta     94.8671
_cell_angle_gamma    101.872

_space_group_name_H-M_alt    "P 1"
_space_group_IT_number       1

loop_
  _space_group_symop_operation_xyz
  'x, y, z'

loop_
  _atom_site_type_symbol
  _atom_site_label
  _atom_site_symmetry_multiplicity
  _atom_site_fract_x
  _atom_site_fract_y
  _atom_site_fract_z
  _atom_site_occupancy
  H   H1        1.0  0.40718  0.33342  0.77099  1.0000
  H   H2        1.0  0.26811  0.39819  0.76993  1.0000
  C   C1        1.0  0.43157  0.53569  0.74004  1.0000
  H   H3        1.0  0.48211  0.48410  0.79401  1.0000
  H   H4        1.0  0.58236  0.50149  0.83741  1.0000
  C   C2        1.0  0.59344  0.67779  0.96088  1.0000
  C   C3        1.0  0.54061  0.66502  0.91864  1.0000
  H   H5        1.0  0.19764  0.39546  0.84874  1.0000
  H   H6        1.0  0.17375  0.49023  0.90581  1.0000
  H   H7        1.0  0.15104  0.31531  0.76024  1.0000
  H   H8        1.0  0.56491  0.34733  0.86440  1.0000
  H   H9        1.0  0.55440  0.65111  0.74685  1.0000
  H   H10       1.0  0.59170  0.44261  0.77692  1.0000
  Fe  Fe1       1.0  0.38159  0.29794  0.97414  1.0000
  H   H11       1.0  0.49453  0.51430  0.91858  1.0000
  H   H12       1.0  0.19634  0.51335  0.80028  1.0000
  C   C4        1.0  0.51489  0.29462  0.92768  1.0000
  C   C5        1.0  0.16752  0.39102  0.88643  1.0000
  C   C6        1.0  0.17647  0.55386  0.79087  1.0000
  N   N1        1.0  0.60217  0.53614  0.75042  1.0000
  H   H13       1.0  0.19530  0.39019  0.93097  1.0000
  H   H14       1.0  0.52772  0.44590  0.91168  1.0000
  C   C7        1.0  0.50423  0.47503  0.94268  1.0000
  H   H15       1.0  0.46063  0.44553  0.95071  1.0000
  H   H16       1.0  0.21144  0.65505  0.79322  1.0000
  H   H17       1.0  0.25310  0.61858  0.84748  1.0000
  S   S1        1.0  0.15621  0.22270  0.94956  1.0000
  C   C8        1.0  0.31709  0.32966  0.73196  1.0000
  S   S2        1.0  0.41849  0.63928  0.88765  1.0000
  H   H18       1.0  0.63667  0.68456  0.94317  1.0000
  H   H19       1.0  0.15733  0.54540  0.74071  1.0000
  C   C9        1.0  0.56731  0.31995  0.90231  1.0000
  C   C10       1.0  0.60359  0.65452  0.74756  1.0000
  C   C11       1.0  0.48431  0.65318  0.94069  1.0000
  C   C12       1.0  0.49822  0.27400  0.74050  1.0000
  H   H20       1.0  0.38469  0.22449  0.77701  1.0000
  H   H21       1.0  0.54297  0.66636  0.86912  1.0000
  H   H22       1.0  0.29838  0.29811  0.76521  1.0000
  H   H23       1.0  0.17036  0.20761  0.74537  1.0000
  C   C13       1.0  0.22821  0.61195  0.79977  1.0000
  H   H24       1.0  0.14994  0.57773  0.88434  1.0000
  S   S3        1.0  0.44587  0.31047  0.90048  1.0000
  C   C14       1.0  0.49120  0.52758  0.77163  1.0000
  H   H25       1.0  0.39789  0.53309  0.77443  1.0000
  H   H26       1.0  0.34549  0.41367  0.80383  1.0000
  C   C15       1.0  0.62302  0.60366  0.78314  1.0000
  C   C16       1.0  0.31456  0.39694  0.75940  1.0000
  C   C17       1.0  0.60959  0.49301  0.79805  1.0000
  H   H27       1.0  0.50808  0.56813  0.80957  1.0000
  H   H28       1.0  0.60809  0.60924  0.83087  1.0000
  H   H29       1.0  0.48410  0.23702  0.77010  1.0000
  H   H30       1.0  0.50083  0.32084  0.76882  1.0000
  H   H31       1.0  0.59257  0.27749  0.76893  1.0000
  H   H32       1.0  0.26006  0.60521  0.76458  1.0000
  C   C18       1.0  0.62343  0.31290  0.92848  1.0000
  S   S4        1.0  0.32090  0.20342  0.97408  1.0000
  C   C19       1.0  0.51843  0.25938  0.97688  1.0000
  N   N2        1.0  0.59920  0.46987  0.10206  1.0000
  H   H33       1.0  0.57728  0.22617  0.04192  1.0000
  C   C20       1.0  0.58997  0.68162  0.02583  1.0000
  H   H34       1.0  0.58277  0.53600  0.99567  1.0000
  C   C21       1.0  0.61875  0.41307  0.12281  1.0000
  C   C22       1.0  0.34217  0.53657  0.11198  1.0000
  C   C23       1.0  0.18414  0.20348  0.22618  1.0000
  C   C24       1.0  0.16556  0.56208  0.05551  1.0000
  C   C25       1.0  0.54275  0.50206  0.00556  1.0000
  H   H35       1.0  0.20955  0.45314  0.19001  1.0000
  H   H36       1.0  0.16196  0.32820  0.16624  1.0000
  H   H37       1.0  0.15028  0.53504  0.14562  1.0000
  H   H38       1.0  0.34918  0.61985  0.06772  1.0000
  H   H39       1.0  0.54073  0.33705  0.08734  1.0000
  H   H40       1.0  0.53024  0.67585  0.09810  1.0000
  C   C26       1.0  0.59022  0.30716  0.16207  1.0000
  H   H41       1.0  0.51789  0.41660  0.04423  1.0000
  C   C27       1.0  0.33401  0.51169  0.16796  1.0000
  H   H42       1.0  0.34930  0.50683  0.07026  1.0000
  H   H43       1.0  0.51461  0.52717  0.03434  1.0000
  H   H44       1.0  0.16500  0.60282  0.02988  1.0000
  H   H45       1.0  0.53644  0.37655  0.16407  1.0000
  C   C28       1.0  0.32320  0.61345  0.21953  1.0000
  H   H46       1.0  0.47805  0.23834  0.99566  1.0000
  C   C29       1.0  0.53354  0.67153  0.04797  1.0000
  H   H47       1.0  0.48032  0.30429  0.21070  1.0000
  C   C30       1.0  0.56284  0.49478  0.15138  1.0000
  S   S5        1.0  0.33244  0.43230  0.17305  1.0000
  H   H48       1.0  0.47004  0.56361  0.16731  1.0000
  H   H49       1.0  0.58295  0.42044  0.00583  1.0000
  H   H50       1.0  0.60858  0.59236  0.18860  1.0000
  H   H51       1.0  0.22278  0.24274  0.22387  1.0000
  C   C31       1.0  0.32590  0.55062  0.22201  1.0000
  S   S6        1.0  0.30876  0.35267  0.98576  1.0000
  H   H52       1.0  0.19072  0.61530  0.14864  1.0000
  C   C32       1.0  0.15445  0.33298  0.21703  1.0000
  H   H53       1.0  0.18309  0.33732  0.04315  1.0000
  H   H54       1.0  0.57813  0.48496  0.19895  1.0000
  H   H55       1.0  0.43856  0.39360  0.19907  1.0000
  C   C33       1.0  0.48095  0.65571  0.00543  1.0000
  H   H56       1.0  0.43768  0.64600  0.02287  1.0000
  C   C34       1.0  0.15231  0.57816  0.12332  1.0000
  C   C35       1.0  0.56519  0.56669  0.16138  1.0000
  C   C36       1.0  0.57460  0.25277  0.00325  1.0000
  H   H57       1.0  0.56250  0.58561  0.11683  1.0000
  C   C37       1.0  0.56708  0.35884  0.13294  1.0000
  C   C38       1.0  0.34140  0.60047  0.11035  1.0000
  Fe  Fe2       1.0  0.33403  0.35942  0.08994  1.0000
  Fe  Fe3       1.0  0.34578  0.22185  0.07890  1.0000
  H   H58       1.0  0.52028  0.63415  0.20965  1.0000
  H   H59       1.0  0.51466  0.46953  0.14127  1.0000
  H   H60       1.0  0.60022  0.32152  0.21377  1.0000
  C   C39       1.0  0.51382  0.58212  0.19711  1.0000
  C   C40       1.0  0.33066  0.63869  0.16386  1.0000
  S   S7        1.0  0.41167  0.31249  0.07823  1.0000
  H   H61       1.0  0.21043  0.55002  0.05538  1.0000
  S   S8        1.0  0.27034  0.26905  0.09741  1.0000
  H   H62       1.0  0.55520  0.26257  0.15294  1.0000
  C   C41       1.0  0.56089  0.44913  0.03902  1.0000
  Fe  Fe4       1.0  0.25072  0.25858  0.99316  1.0000
  C   C42       1.0  0.62722  0.28121  0.98026  1.0000
  H   H63       1.0  0.63125  0.29772  0.14198  1.0000
  H   H64       1.0  0.47317  0.20476  0.22325  1.0000
  S   S9        1.0  0.27560  0.66059  0.98332  1.0000
  C   C43       1.0  0.48080  0.30630  0.31228  1.0000
  C   C44       1.0  0.45805  0.45620  0.42435  1.0000
  H   H65       1.0  0.19913  0.33446  0.24231  1.0000
  C   C45       1.0  0.47749  0.63859  0.42701  1.0000
  S   S10       1.0  0.19574  0.57405  0.47531  1.0000
  H   H66       1.0  0.48138  0.31290  0.44274  1.0000
  H   H67       1.0  0.19815  0.29043  0.32955  1.0000
  C   C46       1.0  0.19417  0.45219  0.23749  1.0000
  H   H68       1.0  0.17545  0.65135  0.35579  1.0000
  H   H69       1.0  0.41012  0.39444  0.27448  1.0000
  H   H70       1.0  0.18300  0.49826  0.25372  1.0000
  H   H71       1.0  0.48989  0.41816  0.26918  1.0000
  H   H72       1.0  0.35669  0.28145  0.31637  1.0000
  C   C47       1.0  0.51004  0.23634  0.38334  1.0000
  H   H73       1.0  0.51280  0.56072  0.24103  1.0000
  Fe  Fe5       1.0  0.60823  0.46318  0.44912  1.0000
  C   C48       1.0  0.45219  0.31629  0.24759  1.0000
  C   C49       1.0  0.44758  0.38486  0.24799  1.0000
  H   H74       1.0  0.39183  0.46970  0.35295  1.0000
  H   H75       1.0  0.18900  0.30323  0.44373  1.0000
  H   H76       1.0  0.32305  0.60306  0.43479  1.0000
  H   H77       1.0  0.14833  0.61131  0.24161  1.0000
  C   C50       1.0  0.31597  0.63205  0.39737  1.0000
  H   H78       1.0  0.55778  0.25971  0.38157  1.0000
  H   H79       1.0  0.16643  0.35595  0.35444  1.0000
  H   H80       1.0  0.51297  0.64216  0.33700  1.0000
  H   H81       1.0  0.44803  0.23397  0.45539  1.0000
  H   H82       1.0  0.26917  0.61509  0.37403  1.0000
  H   H83       1.0  0.54605  0.22825  0.26670  1.0000
  H   H84       1.0  0.44091  0.58923  0.33302  1.0000
  H   H85       1.0  0.46286  0.33464  0.34961  1.0000
  H   H86       1.0  0.49348  0.46035  0.39433  1.0000
  H   H87       1.0  0.52959  0.32886  0.31625  1.0000
  H   H88       1.0  0.46220  0.68226  0.42091  1.0000
  H   H89       1.0  0.27447  0.23760  0.37386  1.0000
  H   H90       1.0  0.40690  0.28538  0.23305  1.0000
  H   H91       1.0  0.38415  0.27674  0.39502  1.0000
  H   H92       1.0  0.44107  0.60641  0.44533  1.0000
  C   C51       1.0  0.35412  0.45440  0.43910  1.0000
  C   C52       1.0  0.30489  0.20735  0.35641  1.0000
  N   N3        1.0  0.47296  0.23845  0.32251  1.0000
  C   C53       1.0  0.48541  0.60719  0.36163  1.0000
  C   C54       1.0  0.40053  0.46088  0.40079  1.0000
  S   S11       1.0  0.28232  0.45798  0.40816  1.0000
  S   S12       1.0  0.60192  0.46021  0.34382  1.0000
  C   C55       1.0  0.40790  0.20644  0.32259  1.0000
  H   H93       1.0  0.50765  0.56695  0.36473  1.0000
  C   C56       1.0  0.36546  0.24820  0.34882  1.0000
  H   H94       1.0  0.34748  0.62444  0.36229  1.0000
  H   H95       1.0  0.23134  0.44610  0.27119  1.0000
  H   H96       1.0  0.32028  0.53164  0.26563  1.0000
  C   C57       1.0  0.48975  0.26530  0.44519  1.0000
  H   H97       1.0  0.31418  0.64199  0.26041  1.0000
  C   C58       1.0  0.49863  0.20399  0.26938  1.0000
  C   C59       1.0  0.15728  0.30351  0.34587  1.0000
  H   H98       1.0  0.57455  0.66903  0.44591  1.0000
  C   C60       1.0  0.14916  0.28030  0.40915  1.0000
  C   C61       1.0  0.53645  0.65244  0.47296  1.0000
  S   S13       1.0  0.63487  0.64017  0.31804  1.0000
  H   H99       1.0  0.14494  0.22836  0.40354  1.0000
  H   H100      1.0  0.18213  0.19482  0.27565  1.0000
  C   C62       1.0  0.53782  0.27185  0.50103  1.0000
  H   H101      1.0  0.41430  0.49813  0.69881  1.0000
  H   H102      1.0  0.56174  0.22425  0.69714  1.0000
  S   S14       1.0  0.53964  0.43556  0.51468  1.0000
  C   C63       1.0  0.48074  0.68585  0.56130  1.0000
  H   H103      1.0  0.61464  0.64815  0.69848  1.0000
  C   C64       1.0  0.45428  0.26539  0.67953  1.0000
  C   C65       1.0  0.46319  0.61929  0.58054  1.0000
  C   C66       1.0  0.36530  0.44453  0.50144  1.0000
  H   H104      1.0  0.54296  0.60600  0.48440  1.0000
  C   C67       1.0  0.35291  0.24588  0.62399  1.0000
  H   H105      1.0  0.54959  0.22578  0.50537  1.0000
  H   H106      1.0  0.46810  0.58118  0.54337  1.0000
  H   H107      1.0  0.39078  0.64092  0.63361  1.0000
  H   H108      1.0  0.57911  0.30645  0.49495  1.0000
  H   H109      1.0  0.40387  0.36369  0.69899  1.0000
  H   H110      1.0  0.45971  0.22310  0.64765  1.0000
  S   S15       1.0  0.25814  0.51586  0.58838  1.0000
  H   H111      1.0  0.34720  0.34079  0.60292  1.0000
  C   C68       1.0  0.17672  0.23861  0.59509  1.0000
  H   H112      1.0  0.43155  0.43169  0.57304  1.0000
  H   H113      1.0  0.47148  0.30606  0.65517  1.0000
  H   H114      1.0  0.27794  0.26487  0.52084  1.0000
  N   N4        1.0  0.38890  0.26147  0.68833  1.0000
  C   C69       1.0  0.42290  0.43985  0.52503  1.0000
  H   H115      1.0  0.58458  0.64247  0.58588  1.0000
  C   C70       1.0  0.36251  0.29856  0.58184  1.0000
  S   S16       1.0  0.15188  0.40738  0.67801  1.0000
  Fe  Fe6       1.0  0.16528  0.46396  0.59891  1.0000
  C   C71       1.0  0.63581  0.45710  0.66717  1.0000
  H   H116      1.0  0.30395  0.23199  0.62789  1.0000
  H   H117      1.0  0.62675  0.55188  0.65804  1.0000
  H   H118      1.0  0.57909  0.30882  0.69702  1.0000
  H   H119      1.0  0.18272  0.21702  0.54886  1.0000
  H   H120      1.0  0.28735  0.31703  0.68681  1.0000
  C   C72       1.0  0.16913  0.30109  0.60433  1.0000
  H   H121      1.0  0.32914  0.43817  0.53069  1.0000
  H   H122      1.0  0.52302  0.47218  0.69814  1.0000
  H   H123      1.0  0.38767  0.55795  0.61001  1.0000
  C   C73       1.0  0.17844  0.20525  0.64611  1.0000
  H   H124      1.0  0.36355  0.20348  0.59672  1.0000
  C   C74       1.0  0.16010  0.32898  0.66405  1.0000
  H   H125      1.0  0.49230  0.61696  0.62366  1.0000
  C   C75       1.0  0.16906  0.23304  0.70563  1.0000
  H   H126      1.0  0.33988  0.23244  0.49427  1.0000
  H   H127      1.0  0.53029  0.55079  0.68591  1.0000
  C   C76       1.0  0.15860  0.29426  0.71421  1.0000
  H   H128      1.0  0.33620  0.31255  0.48639  1.0000
  C   C77       1.0  0.39819  0.60521  0.59504  1.0000
  Fe  Fe7       1.0  0.21672  0.59895  0.57970  1.0000
  H   H129      1.0  0.17036  0.32756  0.56534  1.0000
  H   H130      1.0  0.58881  0.43258  0.64964  1.0000
  H   H131      1.0  0.52086  0.28920  0.54533  1.0000
  H   H132      1.0  0.36710  0.60457  0.55226  1.0000
  H   H133      1.0  0.41046  0.31294  0.57445  1.0000
  C   C78       1.0  0.32686  0.27546  0.51691  1.0000
  C   C79       1.0  0.46897  0.44490  0.48611  1.0000
  H   H134      1.0  0.43741  0.58279  0.72459  1.0000
  C   C80       1.0  0.63965  0.52662  0.69688  1.0000
  C   C81       1.0  0.53698  0.52153  0.72322  1.0000
  C   C82       1.0  0.38245  0.32403  0.72273  1.0000
  H   H135      1.0  0.32615  0.42921  0.72454  1.0000
  Fe  Fe8       1.0  0.22948  0.48707  0.48460  1.0000
  C   C83       1.0  0.58906  0.69290  0.57960  1.0000
  H   H136      1.0  0.31613  0.20435  0.72695  1.0000
  C   C84       1.0  0.56169  0.27096  0.72471  1.0000
  C   C85       1.0  0.36568  0.21040  0.72650  1.0000
  H   H137      1.0  0.61888  0.75667  0.75401  1.0000
  H   H138      1.0  0.22281  0.85049  0.89176  1.0000
  H   H139      1.0  0.54344  0.06266  0.83160  1.0000
  H   H140      1.0  0.40549  0.88191  0.80052  1.0000
  H   H141      1.0  0.56593  0.15815  0.90407  1.0000
  C   C86       1.0  0.63555  0.72126  0.77900  1.0000
  H   H142      1.0  0.43153  0.05705  0.94883  1.0000
  H   H143      1.0  0.30947  0.80907  0.75264  1.0000
  H   H144      1.0  0.16143  0.09787  0.78544  1.0000
  C   C87       1.0  0.54517  0.84005  0.93007  1.0000
  C   C88       1.0  0.34908  0.09594  0.74423  1.0000
  H   H145      1.0  0.19507  0.98248  0.88903  1.0000
  H   H146      1.0  0.30817  0.88461  0.84606  1.0000
  H   H147      1.0  0.54772  0.09355  0.94805  1.0000
  H   H148      1.0  0.62715  0.72966  0.82913  1.0000
  Fe  Fe9       1.0  0.23812  0.73707  0.94608  1.0000
  H   H149      1.0  0.15420  0.87033  0.86779  1.0000
  Fe  Fe10      1.0  0.35655  0.69327  0.93436  1.0000
  S   S17       1.0  0.14158  0.72612  0.90814  1.0000
  S   S18       1.0  0.40840  0.92430  0.95148  1.0000
  C   C89       1.0  0.38341  0.88753  0.75420  1.0000
  C   C90       1.0  0.20338  0.88395  0.86580  1.0000
  H   H150      1.0  0.14204  0.91635  0.77262  1.0000
  S   S19       1.0  0.31429  0.76187  0.88821  1.0000
  C   C91       1.0  0.22451  0.95148  0.90454  1.0000
  Fe  Fe11      1.0  0.35737  0.83218  0.97264  1.0000
  H   H151      1.0  0.27157  0.97356  0.89888  1.0000
  C   C92       1.0  0.58131  0.11704  0.91945  1.0000
  H   H152      1.0  0.52042  0.79296  0.93796  1.0000
  H   H153      1.0  0.51217  0.86780  0.91566  1.0000
  H   H154      1.0  0.21110  0.77686  0.79802  1.0000
  H   H155      1.0  0.36918  0.11084  0.79419  1.0000
  C   C93       1.0  0.22115  0.95046  0.97494  1.0000
  C   C94       1.0  0.58683  0.07114  0.86161  1.0000
  N   N5        1.0  0.21829  0.87712  0.79850  1.0000
  H   H156      1.0  0.57307  0.83291  0.89114  1.0000
  H   H157      1.0  0.62513  0.13417  0.94944  1.0000
  C   C95       1.0  0.28637  0.89431  0.80118  1.0000
  C   C96       1.0  0.19026  0.92209  0.76486  1.0000
  H   H158      1.0  0.30247  0.94612  0.80225  1.0000
  H   H159      1.0  0.59344  0.02671  0.87779  1.0000
  H   H160      1.0  0.61645  0.96773  0.79447  1.0000
  H   H161      1.0  0.21143  0.97197  0.78541  1.0000
  C   C97       1.0  0.19330  0.80895  0.76891  1.0000
  H   H162      1.0  0.62949  0.14525  0.81421  1.0000
  H   H163      1.0  0.29956  0.09140  0.74159  1.0000
  C   C98       1.0  0.63927  0.10021  0.82624  1.0000
  H   H164      1.0  0.52854  0.98947  0.75473  1.0000
  C   C99       1.0  0.31573  0.86012  0.74865  1.0000
  H   H165      1.0  0.39238  0.93849  0.74962  1.0000
  C   C100      1.0  0.51630  0.10213  0.21109  1.0000
  H   H166      1.0  0.51403  0.90945  0.03384  1.0000
  C   C101      1.0  0.45192  0.89816  0.21536  1.0000
  S   S20       1.0  0.36009  0.14884  0.13874  1.0000
  H   H167      1.0  0.51797  0.05257  0.21536  1.0000
  H   H168      1.0  0.16066  0.10189  0.19389  1.0000
  C   C102      1.0  0.60474  0.02369  0.08242  1.0000
  H   H169      1.0  0.51545  0.96081  0.13503  1.0000
  H   H170      1.0  0.63814  0.77840  0.21319  1.0000
  H   H171      1.0  0.16692  0.98793  0.20760  1.0000
  H   H172      1.0  0.56821  0.00722  0.04285  1.0000
  C   C103      1.0  0.41391  0.04828  0.99265  1.0000
  H   H173      1.0  0.36911  0.92842  0.07571  1.0000
  H   H174      1.0  0.15919  0.75360  0.04578  1.0000
  H   H175      1.0  0.56150  0.12764  0.20284  1.0000
  H   H176      1.0  0.46483  0.84723  0.12768  1.0000
  S   S21       1.0  0.40345  0.76542  0.01587  1.0000
  C   C104      1.0  0.16061  0.95138  0.16507  1.0000
  H   H177      1.0  0.63767  0.11632  0.05716  1.0000
  H   H178      1.0  0.58637  0.04834  0.12214  1.0000
  C   C105      1.0  0.19579  0.14357  0.18857  1.0000
  H   H179      1.0  0.14075  0.90443  0.17750  1.0000
  C   C106      1.0  0.49341  0.87329  0.17095  1.0000
  N   N6        1.0  0.58374  0.91027  0.10967  1.0000
  H   H180      1.0  0.41344  0.14572  0.02311  1.0000
  Fe  Fe12      1.0  0.32085  0.73708  0.06257  1.0000
  H   H181      1.0  0.42986  0.93259  0.19427  1.0000
  H   H182      1.0  0.48375  0.10218  0.16995  1.0000
  H   H183      1.0  0.20548  0.94994  0.14949  1.0000
  C   C107      1.0  0.54118  0.92843  0.15495  1.0000
  C   C108      1.0  0.61521  0.86142  0.13173  1.0000
  H   H184      1.0  0.24024  0.13561  0.20622  1.0000
  C   C109      1.0  0.40298  0.09831  0.03424  1.0000
  H   H185      1.0  0.52179  0.83412  0.04868  1.0000
  H   H186      1.0  0.14248  0.01274  0.09932  1.0000
  H   H187      1.0  0.51460  0.83948  0.19389  1.0000
  H   H188      1.0  0.58321  0.81471  0.12722  1.0000
  C   C110      1.0  0.37832  0.97569  0.06399  1.0000
  C   C111      1.0  0.36742  0.02591  0.10572  1.0000
  C   C112      1.0  0.54823  0.88218  0.04634  1.0000
  C   C113      1.0  0.37843  0.08694  0.08996  1.0000
  S   S22       1.0  0.27869  0.81208  0.02801  1.0000
  H   H189      1.0  0.56655  0.95619  0.19980  1.0000
  H   H190      1.0  0.34924  0.01734  0.14934  1.0000
  H   H191      1.0  0.19627  0.14792  0.13778  1.0000
  C   C114      1.0  0.40028  0.98686  0.00687  1.0000
  H   H192      1.0  0.62005  0.84764  0.99972  1.0000
  H   H193      1.0  0.25747  0.92951  0.99460  1.0000
  S   S23       1.0  0.32451  0.71734  0.16213  1.0000
  C   C115      1.0  0.58544  0.87493  0.98985  1.0000
  C   C116      1.0  0.63019  0.96877  0.10498  1.0000
  H   H194      1.0  0.41607  0.85831  0.22328  1.0000
  H   H195      1.0  0.22772  0.99951  0.00020  1.0000
  H   H196      1.0  0.17709  0.92243  0.98339  1.0000
  H   H197      1.0  0.60811  0.92186  0.97954  1.0000
  C   C117      1.0  0.30873  0.74377  0.37887  1.0000
  H   H198      1.0  0.32582  0.81903  0.28944  1.0000
  C   C118      1.0  0.40377  0.07217  0.43534  1.0000
  C   C119      1.0  0.25664  0.85219  0.33684  1.0000
  H   H199      1.0  0.43486  0.86039  0.37510  1.0000
  H   H200      1.0  0.40151  0.77169  0.28066  1.0000
  N   N7        1.0  0.34537  0.81060  0.38747  1.0000
  H   H201      1.0  0.51025  0.18704  0.38971  1.0000
  H   H202      1.0  0.40512  0.16593  0.34918  1.0000
  Fe  Fe13      1.0  0.25266  0.04921  0.42415  1.0000
  S   S24       1.0  0.33864  0.05118  0.38126  1.0000
  H   H203      1.0  0.29108  0.83779  0.45902  1.0000
  H   H204      1.0  0.38701  0.18485  0.27392  1.0000
  H   H205      1.0  0.46009  0.04915  0.36469  1.0000
  C   C120      1.0  0.32255  0.84441  0.33693  1.0000
  H   H206      1.0  0.49963  0.74295  0.28032  1.0000
  S   S25       1.0  0.62640  0.99571  0.44690  1.0000
  H   H207      1.0  0.28394  0.17830  0.31081  1.0000
  C   C121      1.0  0.49743  0.13318  0.27161  1.0000
  H   H208      1.0  0.41787  0.92204  0.45785  1.0000
  H   H209      1.0  0.30710  0.72073  0.32958  1.0000
  H   H210      1.0  0.45163  0.10690  0.27694  1.0000
  H   H211      1.0  0.52953  0.12737  0.31078  1.0000
  C   C122      1.0  0.41107  0.81221  0.38152  1.0000
  C   C123      1.0  0.23899  0.88369  0.28097  1.0000
  H   H212      1.0  0.26096  0.74341  0.38501  1.0000
  C   C124      1.0  0.51129  0.08123  0.45584  1.0000
  H   H213      1.0  0.55354  0.07919  0.43799  1.0000
  H   H214      1.0  0.25065  0.88195  0.38076  1.0000
  H   H215      1.0  0.22457  0.80595  0.33193  1.0000
  H   H216      1.0  0.30201  0.70567  0.46775  1.0000
  H   H217      1.0  0.34590  0.94178  0.44323  1.0000
  H   H218      1.0  0.51646  0.76856  0.36420  1.0000
  H   H219      1.0  0.37587  0.71663  0.44500  1.0000
  H   H220      1.0  0.35155  0.89257  0.33946  1.0000
  H   H221      1.0  0.63399  0.18092  0.37274  1.0000
  S   S26       1.0  0.21099  0.13151  0.45218  1.0000
  H   H222      1.0  0.61357  0.76480  0.32210  1.0000
  C   C125      1.0  0.37084  0.91290  0.46933  1.0000
  C   C126      1.0  0.42438  0.76588  0.32615  1.0000
  H   H223      1.0  0.43446  0.80365  0.42579  1.0000
  S   S27       1.0  0.16818  0.98939  0.36903  1.0000
  C   C127      1.0  0.33928  0.84218  0.45230  1.0000
  H   H224      1.0  0.50978  0.82545  0.31170  1.0000
  H   H225      1.0  0.40883  0.71614  0.33311  1.0000
  C   C128      1.0  0.49171  0.77661  0.32049  1.0000
  Fe  Fe14      1.0  0.14946  0.95356  0.45953  1.0000
  C   C129      1.0  0.45848  0.06596  0.41391  1.0000
  H   H226      1.0  0.47766  0.92143  0.26144  1.0000
  H   H227      1.0  0.19081  0.88551  0.27956  1.0000
  H   H228      1.0  0.61618  0.88614  0.23505  1.0000
  H   H229      1.0  0.26630  0.93272  0.28564  1.0000
  C   C130      1.0  0.32787  0.70171  0.42639  1.0000
  H   H230      1.0  0.24543  0.85634  0.23570  1.0000
  H   H231      1.0  0.31141  0.17529  0.39078  1.0000
  H   H232      1.0  0.17052  0.00770  0.68519  1.0000
  N   N8        1.0  0.53882  0.69894  0.53225  1.0000
  H   H233      1.0  0.50879  0.99921  0.61415  1.0000
  H   H234      1.0  0.61922  0.04540  0.66842  1.0000
  H   H235      1.0  0.35966  0.09909  0.51585  1.0000
  S   S28       1.0  0.57495  0.11255  0.57330  1.0000
  H   H236      1.0  0.24208  0.93566  0.68481  1.0000
  C   C131      1.0  0.37644  0.14382  0.70319  1.0000
  H   H237      1.0  0.56052  0.95059  0.69276  1.0000
  H   H238      1.0  0.29584  0.86441  0.70133  1.0000
  C   C132      1.0  0.54660  0.99514  0.70948  1.0000
  C   C133      1.0  0.60111  0.05222  0.71474  1.0000
  H   H239      1.0  0.42518  0.14449  0.70507  1.0000
  H   H240      1.0  0.17926  0.86835  0.66840  1.0000
  Fe  Fe15      1.0  0.18808  0.08529  0.53655  1.0000
  H   H241      1.0  0.35735  0.81706  0.48869  1.0000
  H   H242      1.0  0.44298  0.69390  0.52958  1.0000
  H   H243      1.0  0.39515  0.90549  0.56781  1.0000
  S   S29       1.0  0.19596  0.13049  0.63741  1.0000
  H   H244      1.0  0.58926  0.77327  0.48832  1.0000
  C   C134      1.0  0.50938  0.09986  0.52009  1.0000
  H   H245      1.0  0.32705  0.93361  0.55342  1.0000
  H   H246      1.0  0.16115  0.95446  0.61188  1.0000
  H   H247      1.0  0.59310  0.81974  0.60606  1.0000
  H   H248      1.0  0.53292  0.88767  0.51066  1.0000
  H   H249      1.0  0.61222  0.88762  0.52159  1.0000
  H   H250      1.0  0.39890  0.98470  0.55213  1.0000
  C   C135      1.0  0.20535  0.84085  0.53766  1.0000
  H   H251      1.0  0.45304  0.12147  0.59127  1.0000
  C   C136      1.0  0.40190  0.09394  0.49914  1.0000
  H   H252      1.0  0.45622  0.96094  0.66209  1.0000
  S   S30       1.0  0.23706  0.00838  0.51251  1.0000
  C   C137      1.0  0.54905  0.76437  0.51442  1.0000
  H   H253      1.0  0.28441  0.82944  0.59302  1.0000
  C   C138      1.0  0.19489  0.91747  0.69317  1.0000
  H   H254      1.0  0.48308  0.71956  0.60532  1.0000
  C   C139      1.0  0.37294  0.93532  0.53996  1.0000
  C   C140      1.0  0.57044  0.88324  0.54490  1.0000
  H   H255      1.0  0.57769  0.92281  0.58460  1.0000
  C   C141      1.0  0.23930  0.80717  0.57171  1.0000
  H   H256      1.0  0.58600  0.71877  0.62690  1.0000
  S   S31       1.0  0.25940  0.70071  0.61532  1.0000
  C   C142      1.0  0.55616  0.81996  0.56931  1.0000
  C   C143      1.0  0.49496  0.00090  0.66243  1.0000
  H   H257      1.0  0.48031  0.04575  0.67574  1.0000
  H   H258      1.0  0.40324  0.86198  0.71621  1.0000
  H   H259      1.0  0.58389  0.09644  0.71581  1.0000
  C   C144      1.0  0.14808  0.81153  0.50740  1.0000
  C   C145      1.0  0.45473  0.10716  0.54167  1.0000
  C   C146      1.0  0.21559  0.74403  0.57618  1.0000
  H   H260      1.0  0.51122  0.76838  0.48068  1.0000
  C   C147      1.0  0.15760  0.71505  0.54723  1.0000
  H   H261      1.0  0.22405  0.88893  0.53358  1.0000
  H   H262      1.0  0.35524  0.12629  0.65404  1.0000
  H   H263      1.0  0.51396  0.81790  0.59160  1.0000
  H   H264      1.0  0.20852  0.79852  0.72187  1.0000
  C   C148      1.0  0.15624  0.95739  0.66299  1.0000
  H   H265      1.0  0.35799  0.04892  0.72721  1.0000
  Fe  Fe16      1.0  0.82167  0.37561  0.85514  1.0000
  H   H266      1.0  0.03185  0.61685  0.87294  1.0000
  S   S32       1.0  0.80768  0.42373  0.77081  1.0000
  C   C149      1.0  0.81389  0.54023  0.73590  1.0000
  C   C150      1.0  0.03795  0.50256  0.76737  1.0000
  H   H267      1.0  0.98991  0.40333  0.74708  1.0000
  H   H268      1.0  0.83549  0.62639  0.90732  1.0000
  H   H269      1.0  0.11594  0.43333  0.79232  1.0000
  H   H270      1.0  0.97208  0.29685  0.94880  1.0000
  H   H271      1.0  0.70595  0.49991  0.79366  1.0000
  C   C151      1.0  0.83032  0.53850  0.84786  1.0000
  C   C152      1.0  0.03838  0.51970  0.88434  1.0000
  Fe  Fe17      1.0  0.77453  0.31289  0.96417  1.0000
  C   C153      1.0  0.67459  0.50164  0.82953  1.0000
  H   H272      1.0  0.96520  0.55801  0.84175  1.0000
  H   H273      1.0  0.83686  0.51338  0.88677  1.0000
  H   H274      1.0  0.67314  0.61654  0.79243  1.0000
  Fe  Fe18      1.0  0.85554  0.25225  0.88174  1.0000
  C   C154      1.0  0.01791  0.30720  0.96897  1.0000
  C   C155      1.0  0.81710  0.63519  0.80981  1.0000
  C   C156      1.0  0.05348  0.26528  0.94985  1.0000
  C   C157      1.0  0.97505  0.58529  0.94205  1.0000
  H   H275      1.0  0.03463  0.22454  0.91423  1.0000
  S   S33       1.0  0.90900  0.34595  0.86686  1.0000
  C   C158      1.0  0.82056  0.50656  0.78601  1.0000
  H   H276      1.0  0.02683  0.54872  0.76079  1.0000
  H   H277      1.0  0.13336  0.34590  0.87437  1.0000
  H   H278      1.0  0.80205  0.20046  0.74841  1.0000
  H   H279      1.0  0.72554  0.45972  0.89457  1.0000
  C   C159      1.0  0.82867  0.60269  0.85964  1.0000
  H   H280      1.0  0.67294  0.40369  0.83670  1.0000
  N   N9        1.0  0.07456  0.50812  0.83032  1.0000
  H   H281      1.0  0.06846  0.53225  0.92972  1.0000
  H   H282      1.0  0.94657  0.54127  0.95300  1.0000
  C   C160      1.0  0.67988  0.44957  0.86843  1.0000
  C   C161      1.0  0.00252  0.57222  0.88079  1.0000
  C   C162      1.0  0.81181  0.60432  0.74774  1.0000
  H   H283      1.0  0.05517  0.40752  0.83378  1.0000
  S   S34       1.0  0.76737  0.27876  0.86049  1.0000
  S   S35       1.0  0.82377  0.41205  0.95849  1.0000
  H   H284      1.0  0.66419  0.33351  0.91025  1.0000
  C   C163      1.0  0.12762  0.56336  0.83507  1.0000
  C   C164      1.0  0.97915  0.45074  0.75445  1.0000
  H   H285      1.0  0.64640  0.44673  0.90289  1.0000
  H   H286      1.0  0.94658  0.62019  0.93745  1.0000
  H   H287      1.0  0.00595  0.47564  0.88966  1.0000
  H   H288      1.0  0.68894  0.54769  0.86135  1.0000
  C   C165      1.0  0.13732  0.44711  0.89445  1.0000
  H   H289      1.0  0.95108  0.45283  0.79378  1.0000
  H   H290      1.0  0.93567  0.25956  0.76394  1.0000
  H   H291      1.0  0.11195  0.60588  0.82387  1.0000
  C   C166      1.0  0.09460  0.44725  0.83455  1.0000
  H   H292      1.0  0.11114  0.44361  0.93539  1.0000
  H   H293      1.0  0.12134  0.68646  0.75538  1.0000
  H   H294      1.0  0.06477  0.49158  0.72827  1.0000
  Fe  Fe19      1.0  0.90830  0.37528  0.97050  1.0000
  C   C167      1.0  0.11287  0.27572  0.97645  1.0000
  C   C168      1.0  0.04165  0.36157  0.01279  1.0000
  H   H295      1.0  0.67802  0.46455  0.01209  1.0000
  H   H296      1.0  0.65004  0.42753  0.16751  1.0000
  H   H297      1.0  0.13123  0.52065  0.03068  1.0000
  S   S36       1.0  0.99703  0.41696  0.02948  1.0000
  H   H298      1.0  0.03409  0.32383  0.21321  1.0000
  S   S37       1.0  0.85925  0.28033  0.98613  1.0000
  H   H299      1.0  0.12390  0.21561  0.14789  1.0000
  C   C169      1.0  0.10118  0.37189  0.04066  1.0000
  H   H300      1.0  0.87526  0.60683  0.08113  1.0000
  C   C170      1.0  0.90322  0.61764  0.12757  1.0000
  H   H301      1.0  0.10379  0.65297  0.11805  1.0000
  N   N10       1.0  0.06232  0.59570  0.18433  1.0000
  H   H302      1.0  0.10495  0.40558  0.19783  1.0000
  C   C171      1.0  0.76715  0.66886  0.21148  1.0000
  H   H303      1.0  0.94251  0.23914  0.11002  1.0000
  C   C172      1.0  0.98522  0.50385  0.21952  1.0000
  C   C173      1.0  0.13678  0.32860  0.02273  1.0000
  H   H304      1.0  0.92601  0.28121  0.18218  1.0000
  H   H305      1.0  0.72866  0.46946  0.08162  1.0000
  H   H306      1.0  0.89835  0.19691  0.16271  1.0000
  S   S38       1.0  0.69747  0.27942  0.01826  1.0000
  H   H307      1.0  0.78997  0.62914  0.20119  1.0000
  H   H308      1.0  0.97908  0.40498  0.18120  1.0000
  H   H309      1.0  0.06228  0.57662  0.08309  1.0000
  H   H310      1.0  0.68038  0.53539  0.14634  1.0000
  C   C174      1.0  0.96571  0.60594  0.11852  1.0000
  H   H311      1.0  0.77744  0.53508  0.00896  1.0000
  H   H312      1.0  0.02642  0.67980  0.18314  1.0000
  H   H313      1.0  0.88121  0.58662  0.15965  1.0000
  C   C175      1.0  0.99400  0.22537  0.19527  1.0000
  C   C176      1.0  0.93688  0.23656  0.16048  1.0000
  C   C177      1.0  0.74289  0.55190  0.03575  1.0000
  H   H314      1.0  0.64463  0.56140  0.08239  1.0000
  C   C178      1.0  0.70080  0.49603  0.05553  1.0000
  H   H315      1.0  0.94523  0.50842  0.18911  1.0000
  C   C179      1.0  0.00989  0.62769  0.18006  1.0000
  H   H316      1.0  0.96096  0.55499  0.10048  1.0000
  H   H317      1.0  0.71883  0.64889  0.21403  1.0000
  H   H318      1.0  0.72770  0.25840  0.19077  1.0000
  H   H319      1.0  0.90593  0.66778  0.14723  1.0000
  H   H320      1.0  0.98331  0.63330  0.08160  1.0000
  C   C180      1.0  0.09315  0.60255  0.12544  1.0000
  H   H321      1.0  0.03684  0.49701  0.14167  1.0000
  H   H322      1.0  0.76568  0.58591  0.07795  1.0000
  C   C181      1.0  0.04852  0.28056  0.19346  1.0000
  C   C182      1.0  0.04361  0.52610  0.18911  1.0000
  C   C183      1.0  0.65553  0.51850  0.09826  1.0000
  H   H323      1.0  0.05387  0.28458  0.14297  1.0000
  C   C184      1.0  0.12378  0.21690  0.19987  1.0000
  H   H324      1.0  0.71699  0.57639  0.00494  1.0000
  H   H325      1.0  0.12014  0.41369  0.07479  1.0000
  H   H326      1.0  0.64429  0.39150  0.08736  1.0000
  H   H327      1.0  0.08058  0.51052  0.21526  1.0000
  H   H328      1.0  0.98389  0.62213  0.22089  1.0000
  H   H329      1.0  0.01140  0.60515  0.98135  1.0000
  C   C185      1.0  0.97660  0.43417  0.22688  1.0000
  H   H330      1.0  0.92278  0.32622  0.39487  1.0000
  H   H331      1.0  0.87084  0.37956  0.32379  1.0000
  H   H332      1.0  0.66164  0.29628  0.36941  1.0000
  H   H333      1.0  0.06678  0.30495  0.31235  1.0000
  S   S39       1.0  0.74379  0.53498  0.36526  1.0000
  C   C186      1.0  0.93438  0.57967  0.43061  1.0000
  C   C187      1.0  0.67060  0.26299  0.33161  1.0000
  H   H334      1.0  0.77400  0.30837  0.45155  1.0000
  H   H335      1.0  0.79065  0.67909  0.31125  1.0000
  C   C188      1.0  0.83480  0.26276  0.36630  1.0000
  Fe  Fe20      1.0  0.69187  0.43435  0.35149  1.0000
  H   H336      1.0  0.73351  0.67101  0.41731  1.0000
  H   H337      1.0  0.93814  0.58539  0.38188  1.0000
  S   S40       1.0  0.65310  0.56515  0.46868  1.0000
  S   S41       1.0  0.69438  0.42982  0.45514  1.0000
  C   C189      1.0  0.10014  0.27686  0.29764  1.0000
  C   C190      1.0  0.08495  0.62636  0.30572  1.0000
  C   C191      1.0  0.86558  0.42564  0.34765  1.0000
  H   H338      1.0  0.89098  0.20608  0.31866  1.0000
  C   C192      1.0  0.69674  0.28496  0.28010  1.0000
  H   H339      1.0  0.79210  0.38464  0.39761  1.0000
  C   C193      1.0  0.13911  0.39858  0.23450  1.0000
  H   H340      1.0  0.91032  0.45843  0.35755  1.0000
  C   C194      1.0  0.87729  0.40565  0.46293  1.0000
  H   H341      1.0  0.90625  0.25913  0.43350  1.0000
  C   C195      1.0  0.85899  0.23577  0.30701  1.0000
  Fe  Fe21      1.0  0.65441  0.56030  0.36480  1.0000
  Fe  Fe22      1.0  0.73877  0.53276  0.46856  1.0000
  C   C196      1.0  0.83560  0.41881  0.40810  1.0000
  H   H342      1.0  0.04273  0.64315  0.30985  1.0000
  H   H343      1.0  0.07784  0.57683  0.31487  1.0000
  H   H344      1.0  0.11648  0.65807  0.40445  1.0000
  S   S42       1.0  0.03233  0.52806  0.42476  1.0000
  H   H345      1.0  0.83727  0.44527  0.31445  1.0000
  H   H346      1.0  0.98546  0.53141  0.26660  1.0000
  C   C197      1.0  0.88689  0.29783  0.41775  1.0000
  H   H347      1.0  0.80566  0.29395  0.35206  1.0000
  H   H348      1.0  0.10831  0.29187  0.42792  1.0000
  C   C198      1.0  0.88443  0.59214  0.45888  1.0000
  H   H349      1.0  0.88213  0.27460  0.28358  1.0000
  H   H350      1.0  0.93160  0.41732  0.24175  1.0000
  H   H351      1.0  0.92424  0.42636  0.45563  1.0000
  H   H352      1.0  0.82125  0.20606  0.27336  1.0000
  H   H353      1.0  0.12156  0.68109  0.23498  1.0000
  C   C199      1.0  0.97751  0.55615  0.46431  1.0000
  H   H354      1.0  0.82415  0.46485  0.42356  1.0000
  C   C200      1.0  0.10677  0.63030  0.23998  1.0000
  H   H355      1.0  0.85028  0.60879  0.43247  1.0000
  S   S43       1.0  0.71661  0.36619  0.27604  1.0000
  N   N11       1.0  0.87141  0.33824  0.47397  1.0000
  C   C201      1.0  0.70793  0.24165  0.23105  1.0000
  H   H356      1.0  0.01133  0.42782  0.26331  1.0000
  H   H357      1.0  0.12086  0.40286  0.28059  1.0000
  H   H358      1.0  0.80632  0.22276  0.38427  1.0000
  C   C202      1.0  0.65646  0.19779  0.33426  1.0000
  H   H359      1.0  0.08012  0.22798  0.30553  1.0000
  H   H360      1.0  0.98574  0.22042  0.24465  1.0000
  C   C203      1.0  0.13194  0.66595  0.35808  1.0000
  N   N12       1.0  0.10771  0.27720  0.22856  1.0000
  H   H361      1.0  0.92349  0.28653  0.68935  1.0000
  S   S44       1.0  0.80856  0.57905  0.54905  1.0000
  H   H362      1.0  0.82184  0.34294  0.59340  1.0000
  H   H363      1.0  0.69361  0.30563  0.52512  1.0000
  Fe  Fe23      1.0  0.10755  0.51900  0.49346  1.0000
  C   C204      1.0  0.79011  0.34226  0.55131  1.0000
  C   C205      1.0  0.91614  0.33912  0.53023  1.0000
  H   H364      1.0  0.76632  0.23191  0.68615  1.0000
  C   C206      1.0  0.95266  0.26296  0.71752  1.0000
  H   H365      1.0  0.90581  0.29361  0.54872  1.0000
  H   H366      1.0  0.91238  0.37574  0.56977  1.0000
  H   H367      1.0  0.06883  0.34862  0.56811  1.0000
  H   H368      1.0  0.92402  0.50180  0.70308  1.0000
  H   H369      1.0  0.13847  0.66649  0.55073  1.0000
  C   C207      1.0  0.02178  0.34388  0.57829  1.0000
  H   H370      1.0  0.72133  0.46498  0.62784  1.0000
  H   H371      1.0  0.96680  0.20308  0.63655  1.0000
  H   H372      1.0  0.71641  0.32967  0.60883  1.0000
  H   H373      1.0  0.78702  0.39155  0.54716  1.0000
  H   H374      1.0  0.80856  0.51647  0.68781  1.0000
  C   C208      1.0  0.80966  0.30982  0.49026  1.0000
  C   C209      1.0  0.97291  0.54922  0.52748  1.0000
  H   H375      1.0  0.66002  0.40581  0.58392  1.0000
  H   H376      1.0  0.91760  0.55334  0.60354  1.0000
  H   H377      1.0  0.00654  0.29612  0.59092  1.0000
  H   H378      1.0  0.69264  0.64695  0.60757  1.0000
  H   H379      1.0  0.65383  0.43019  0.70168  1.0000
  H   H380      1.0  0.66368  0.48794  0.57963  1.0000
  S   S45       1.0  0.12557  0.54966  0.59834  1.0000
  C   C210      1.0  0.98365  0.35260  0.51990  1.0000
  C   C211      1.0  0.72873  0.30637  0.56433  1.0000
  H   H381      1.0  0.80437  0.62931  0.70863  1.0000
  C   C212      1.0  0.87776  0.58102  0.52060  1.0000
  C   C213      1.0  0.92315  0.56228  0.55592  1.0000
  H   H382      1.0  0.00508  0.52940  0.55307  1.0000
  H   H383      1.0  0.90218  0.41712  0.68310  1.0000
  C   C214      1.0  0.94126  0.45788  0.69498  1.0000
  H   H384      1.0  0.68805  0.54856  0.71161  1.0000
  H   H385      1.0  0.02016  0.37999  0.61905  1.0000
  H   H386      1.0  0.73036  0.25709  0.57037  1.0000
  H   H387      1.0  0.99325  0.32008  0.47995  1.0000
  C   C215      1.0  0.67258  0.45406  0.61140  1.0000
  H   H388      1.0  0.96814  0.46003  0.65445  1.0000
  H   H389      1.0  0.86988  0.43533  0.50636  1.0000
  H   H390      1.0  0.80741  0.25949  0.49570  1.0000
  H   H391      1.0  0.99922  0.40183  0.51102  1.0000
  C   C216      1.0  0.95101  0.19699  0.68293  1.0000
  S   S46       1.0  0.13953  0.42933  0.49526  1.0000
  H   H392      1.0  0.99935  0.29206  0.72461  1.0000
  H   H393      1.0  0.70091  0.02033  0.87943  1.0000
  C   C217      1.0  0.12357  0.78686  0.75827  1.0000
  N   N13       1.0  0.65091  0.05974  0.76815  1.0000
  H   H394      1.0  0.74590  0.10549  0.78715  1.0000
  C   C218      1.0  0.85264  0.10626  0.89547  1.0000
  S   S47       1.0  0.87713  0.15929  0.84404  1.0000
  H   H395      1.0  0.69174  0.18982  0.75408  1.0000
  H   H396      1.0  0.75323  0.01616  0.82176  1.0000
  H   H397      1.0  0.03115  0.07120  0.81859  1.0000
  H   H398      1.0  0.13775  0.08840  0.86198  1.0000
  H   H399      1.0  0.98487  0.17062  0.77010  1.0000
  C   C219      1.0  0.04836  0.92185  0.91628  1.0000
  C   C220      1.0  0.70837  0.99451  0.83392  1.0000
  C   C221      1.0  0.70908  0.09324  0.74729  1.0000
  H   H400      1.0  0.90333  0.03781  0.86273  1.0000
  H   H401      1.0  0.00138  0.90690  0.89284  1.0000
  C   C222      1.0  0.81266  0.12084  0.93757  1.0000
  C   C223      1.0  0.70893  0.92644  0.84328  1.0000
  H   H402      1.0  0.10353  0.78967  0.80332  1.0000
  C   C224      1.0  0.65849  0.99549  0.78107  1.0000
  H   H403      1.0  0.07779  0.94084  0.88170  1.0000
  H   H404      1.0  0.07451  0.14687  0.80784  1.0000
  C   C225      1.0  0.03378  0.74230  0.94460  1.0000
  H   H405      1.0  0.06297  0.87993  0.93086  1.0000
  C   C226      1.0  0.85140  0.00764  0.93634  1.0000
  C   C227      1.0  0.87226  0.04955  0.89488  1.0000
  H   H406      1.0  0.66769  0.96772  0.73706  1.0000
  H   H407      1.0  0.68482  0.72839  0.77697  1.0000
  Fe  Fe24      1.0  0.80412  0.75353  0.92501  1.0000
  C   C228      1.0  0.12445  0.07450  0.81036  1.0000
  H   H408      1.0  0.71829  0.89902  0.79943  1.0000
  H   H409      1.0  0.11784  0.02247  0.79861  1.0000
  S   S48       1.0  0.87364  0.83832  0.97218  1.0000
  H   H410      1.0  0.94764  0.75138  0.97215  1.0000
  H   H411      1.0  0.74448  0.92608  0.88148  1.0000
  H   H412      1.0  0.01766  0.73193  0.89477  1.0000
  H   H413      1.0  0.68059  0.11488  0.86088  1.0000
  H   H414      1.0  0.86537  0.96329  0.93491  1.0000
  S   S49       1.0  0.72777  0.79511  0.95695  1.0000
  H   H415      1.0  0.79465  0.16252  0.93625  1.0000
  C   C229      1.0  0.05281  0.97270  0.97353  1.0000
  H   H416      1.0  0.04135  0.01474  0.95587  1.0000
  C   C230      1.0  0.09354  0.74242  0.96483  1.0000
  S   S50       1.0  0.80537  0.71269  0.82374  1.0000
  H   H417      1.0  0.93876  0.07090  0.77430  1.0000
  H   H418      1.0  0.66521  0.90283  0.85707  1.0000
  H   H419      1.0  0.83177  0.99168  0.76191  1.0000
  C   C231      1.0  0.06627  0.09509  0.79199  1.0000
  H   H420      1.0  0.01058  0.89942  0.02619  1.0000
  H   H421      1.0  0.65006  0.85288  0.10055  1.0000
  H   H422      1.0  0.93775  0.92245  0.10749  1.0000
  C   C232      1.0  0.99412  0.75416  0.98856  1.0000
  C   C233      1.0  0.05709  0.96900  0.13161  1.0000
  S   S51       1.0  0.80968  0.69932  0.00594  1.0000
  H   H423      1.0  0.97026  0.05801  0.18330  1.0000
  H   H424      1.0  0.86121  0.03230  0.15371  1.0000
  H   H425      1.0  0.91808  0.98531  0.07390  1.0000
  C   C234      1.0  0.11357  0.75487  0.02953  1.0000
  H   H426      1.0  0.95131  0.09502  0.07675  1.0000
  H   H427      1.0  0.96367  0.94532  0.99477  1.0000
  H   H428      1.0  0.03866  0.18370  0.06592  1.0000
  H   H429      1.0  0.08969  0.17526  0.20729  1.0000
  N   N14       1.0  0.01428  0.98886  0.08499  1.0000
  C   C235      1.0  0.67400  0.82199  0.21687  1.0000
  C   C236      1.0  0.03392  0.05842  0.08219  1.0000
  C   C237      1.0  0.01427  0.76812  0.05304  1.0000
  H   H430      1.0  0.07693  0.06888  0.06129  1.0000
  H   H431      1.0  0.69503  0.08387  0.09486  1.0000
  H   H432      1.0  0.68496  0.91934  0.20526  1.0000
  H   H433      1.0  0.03729  0.92084  0.14190  1.0000
  Fe  Fe25      1.0  0.73747  0.74567  0.04048  1.0000
  C   C238      1.0  0.65360  0.07212  0.06082  1.0000
  S   S52       1.0  0.78440  0.97266  0.03130  1.0000
  C   C239      1.0  0.64747  0.87715  0.20006  1.0000
  H   H434      1.0  0.11624  0.92863  0.07122  1.0000
  H   H435      1.0  0.96404  0.05357  0.00337  1.0000
  S   S53       1.0  0.80394  0.82707  0.09838  1.0000
  C   C240      1.0  0.95278  0.97438  0.10767  1.0000
  C   C241      1.0  0.88160  0.00383  0.18495  1.0000
  C   C242      1.0  0.01441  0.14862  0.02530  1.0000
  H   H436      1.0  0.77020  0.69733  0.17232  1.0000
  S   S54       1.0  0.96474  0.78558  0.10770  1.0000
  C   C243      1.0  0.07412  0.76837  0.07357  1.0000
  C   C244      1.0  0.94745  0.00738  0.17479  1.0000
  C   C245      1.0  0.98652  0.08645  0.04619  1.0000
  H   H437      1.0  0.76585  0.09429  0.01513  1.0000
  H   H438      1.0  0.66454  0.95701  0.07456  1.0000
  C   C246      1.0  0.00865  0.94902  0.02075  1.0000
  Fe  Fe26      1.0  0.79806  0.87401  0.01264  1.0000
  H   H439      1.0  0.70460  0.14379  0.19679  1.0000
  H   H440      1.0  0.70764  0.81249  0.18480  1.0000
  H   H441      1.0  0.65619  0.98893  0.15182  1.0000
  H   H442      1.0  0.00105  0.17987  0.17155  1.0000
  H   H443      1.0  0.04559  0.08614  0.13021  1.0000
  H   H444      1.0  0.08996  0.77867  0.12340  1.0000
  H   H445      1.0  0.04617  0.14070  0.99037  1.0000
  H   H446      1.0  0.06392  0.00112  0.17760  1.0000
  H   H447      1.0  0.85554  0.95422  0.17488  1.0000
  Fe  Fe27      1.0  0.87555  0.78610  0.05482  1.0000
  H   H448      1.0  0.96780  0.98372  0.21097  1.0000
  H   H449      1.0  0.97826  0.16808  0.00257  1.0000
  H   H450      1.0  0.66426  0.05284  0.01382  1.0000
  C   C247      1.0  0.81282  0.02375  0.97977  1.0000
  C   C248      1.0  0.79469  0.08095  0.98111  1.0000
  S   S55       1.0  0.65537  0.69817  0.07985  1.0000
  C   C249      1.0  0.12009  0.96674  0.11184  1.0000
  H   H451      1.0  0.86542  0.76291  0.22781  1.0000
  H   H452      1.0  0.10018  0.98663  0.99468  1.0000
  H   H453      1.0  0.04932  0.82032  0.23780  1.0000
  H   H454      1.0  0.76771  0.74571  0.28408  1.0000
  H   H455      1.0  0.87834  0.02307  0.23447  1.0000
  H   H456      1.0  0.97497  0.82156  0.44030  1.0000
  C   C250      1.0  0.92668  0.15264  0.47448  1.0000
  C   C251      1.0  0.05894  0.80977  0.28624  1.0000
  H   H457      1.0  0.69657  0.83357  0.26584  1.0000
  H   H458      1.0  0.90315  0.82849  0.46494  1.0000
  C   C252      1.0  0.00789  0.12452  0.38994  1.0000
  N   N15       1.0  0.89329  0.78778  0.32845  1.0000
  C   C253      1.0  0.67199  0.82162  0.40201  1.0000
  C   C254      1.0  0.66994  0.71137  0.36560  1.0000
  H   H459      1.0  0.88572  0.87642  0.38145  1.0000
  Fe  Fe28      1.0  0.68291  0.05972  0.39099  1.0000
  C   C255      1.0  0.00140  0.77586  0.30945  1.0000
  H   H460      1.0  0.79403  0.94544  0.26950  1.0000
  C   C256      1.0  0.85909  0.83885  0.34369  1.0000
  H   H461      1.0  0.98325  0.73166  0.27613  1.0000
  S   S56       1.0  0.70225  0.14498  0.46559  1.0000
  C   C257      1.0  0.64886  0.76605  0.35919  1.0000
  H   H462      1.0  0.81101  0.83963  0.25052  1.0000
  H   H463      1.0  0.88291  0.89387  0.26692  1.0000
  S   S57       1.0  0.10725  0.85150  0.46025  1.0000
  C   C258      1.0  0.92998  0.79451  0.44682  1.0000
  C   C259      1.0  0.71614  0.82201  0.45121  1.0000
  S   S58       1.0  0.65727  0.07315  0.29144  1.0000
  C   C260      1.0  0.94670  0.11449  0.36890  1.0000
  H   H464      1.0  0.13827  0.71708  0.35489  1.0000
  C   C261      1.0  0.79504  0.70998  0.27420  1.0000
  H   H465      1.0  0.91869  0.71250  0.37343  1.0000
  H   H466      1.0  0.09223  0.77940  0.28529  1.0000
  C   C262      1.0  0.90606  0.12804  0.41126  1.0000
  H   H467      1.0  0.07638  0.16059  0.46883  1.0000
  S   S59       1.0  0.76681  0.02881  0.42189  1.0000
  H   H468      1.0  0.65425  0.86332  0.39828  1.0000
  H   H469      1.0  0.85899  0.12064  0.39450  1.0000
  H   H470      1.0  0.95153  0.83651  0.26797  1.0000
  H   H471      1.0  0.97552  0.86117  0.34923  1.0000
  C   C263      1.0  0.95501  0.81851  0.31385  1.0000
  C   C264      1.0  0.84242  0.87280  0.28805  1.0000
  H   H472      1.0  0.81707  0.81994  0.36397  1.0000
  C   C265      1.0  0.66993  0.15458  0.28638  1.0000
  C   C266      1.0  0.02894  0.15171  0.45240  1.0000
  C   C267      1.0  0.81188  0.92619  0.31052  1.0000
  C   C268      1.0  0.73975  0.76842  0.45530  1.0000
  H   H473      1.0  0.93052  0.09478  0.32038  1.0000
  S   S60       1.0  0.05754  0.09940  0.33969  1.0000
  C   C269      1.0  0.89719  0.75333  0.38441  1.0000
  H   H474      1.0  0.77373  0.90879  0.33693  1.0000
  H   H475      1.0  0.84482  0.96497  0.34156  1.0000
  H   H476      1.0  0.07913  0.85460  0.31838  1.0000
  H   H477      1.0  0.01395  0.76331  0.35633  1.0000
  Fe  Fe29      1.0  0.12522  0.06847  0.40310  1.0000
  C   C270      1.0  0.71652  0.71297  0.41256  1.0000
  H   H478      1.0  0.85138  0.73212  0.39526  1.0000
  C   C271      1.0  0.86216  0.74083  0.27155  1.0000
  H   H479      1.0  0.88537  0.70101  0.26394  1.0000
  C   C272      1.0  0.69444  0.17669  0.23414  1.0000
  H   H480      1.0  0.90113  0.00191  0.52424  1.0000
  C   C273      1.0  0.83100  0.98844  0.70999  1.0000
  Fe  Fe30      1.0  0.71290  0.97454  0.48614  1.0000
  N   N16       1.0  0.98847  0.09386  0.69641  1.0000
  H   H481      1.0  0.95014  0.97734  0.62071  1.0000
  H   H482      1.0  0.04596  0.02733  0.70607  1.0000
  H   H483      1.0  0.78634  0.15653  0.66967  1.0000
  C   C274      1.0  0.04725  0.07851  0.71960  1.0000
  H   H484      1.0  0.94682  0.00453  0.72336  1.0000
  C   C275      1.0  0.94905  0.99831  0.52672  1.0000
  H   H485      1.0  0.10799  0.93968  0.66790  1.0000
  C   C276      1.0  0.99276  0.16326  0.71954  1.0000
  H   H486      1.0  0.90386  0.17027  0.67517  1.0000
  H   H487      1.0  0.96208  0.78466  0.54194  1.0000
  S   S61       1.0  0.87604  0.16629  0.52916  1.0000
  H   H488      1.0  0.74617  0.71489  0.59392  1.0000
  H   H489      1.0  0.67636  0.14624  0.67590  1.0000
  H   H490      1.0  0.00549  0.18818  0.54211  1.0000
  C   C277      1.0  0.97770  0.01148  0.59539  1.0000
  H   H491      1.0  0.02344  0.00143  0.59670  1.0000
  Fe  Fe31      1.0  0.78202  0.10967  0.50024  1.0000
  H   H492      1.0  0.08460  0.10377  0.69617  1.0000
  H   H493      1.0  0.94240  0.09634  0.60467  1.0000
  S   S62       1.0  0.73847  0.88679  0.51107  1.0000
  C   C278      1.0  0.87297  0.04630  0.69297  1.0000
  H   H494      1.0  0.85582  0.08831  0.71088  1.0000
  H   H495      1.0  0.03921  0.19102  0.71784  1.0000
  C   C279      1.0  0.12387  0.74878  0.51306  1.0000
  H   H496      1.0  0.89432  0.72775  0.50845  1.0000
  S   S63       1.0  0.73065  0.05448  0.56631  1.0000
  Fe  Fe32      1.0  0.64847  0.08085  0.52268  1.0000
  C   C280      1.0  0.98211  0.08121  0.62528  1.0000
  S   S64       1.0  0.09931  0.02778  0.48957  1.0000
  H   H497      1.0  0.86857  0.04042  0.64086  1.0000
  H   H498      1.0  0.84473  0.94444  0.69092  1.0000
  C   C281      1.0  0.70070  0.69893  0.60843  1.0000
  C   C282      1.0  0.93844  0.05292  0.72362  1.0000
  H   H499      1.0  0.66480  0.76804  0.56489  1.0000
  C   C283      1.0  0.93853  0.75394  0.49799  1.0000
  H   H500      1.0  0.70038  0.72263  0.65723  1.0000
  C   C284      1.0  0.65362  0.71597  0.56296  1.0000
  H   H501      1.0  0.78432  0.98531  0.68883  1.0000
  H   H502      1.0  0.02105  0.11084  0.60759  1.0000
  H   H503      1.0  0.07932  0.72576  0.49027  1.0000
  H   H504      1.0  0.72417  0.06139  0.71028  1.0000
  H   H505      1.0  0.77431  0.76889  0.49312  1.0000
  H   H506      1.0  0.97308  0.03246  0.49876  1.0000
  H   H507      1.0  0.12185  0.71256  0.67909  1.0000
  H   H508      1.0  0.95098  0.94985  0.50525  1.0000
  C   C285      1.0  0.98854  0.16695  0.49418  1.0000
  H   H509      1.0  0.65787  0.69392  0.51501  1.0000
  H   H510      1.0  0.96641  0.71984  0.48305  1.0000
  C   C286      1.0  0.76927  0.18777  0.70528  1.0000
  C   C287      1.0  0.70721  0.15556  0.72031  1.0000
  C   C288      1.0  0.10440  0.71822  0.72566  1.0000
  H   H511      1.0  0.05452  0.70376  0.71803  1.0000
  H   H512      1.0  0.10331  0.81573  0.72759  1.0000
