data_image0
_chemical_formula_structural       FeHSFeSCFeHFeS2CHCH2CH2CH4CH2C2H3CHC2HSHSCHCNH7CHCH5CH4C2H2FeSFeSHFeSCHSHC2HCH3CHCHC3SH5C3H3CH2CSH2CH2NCH2CHCFeSHFeS2FeSFeS3HFeS2HS2FeS2FeS2FeSFeS3FeS2FeS2FeSFeS3HFeSFeS2FeS2C6H3C3H2CH3C7H4CHCNC2FeH2CH2SC2H2C8H4C6H4C6H3C7H2CHC6H10CHNC12H27NC12H32CH4CHCH12C2H5CHCHC2H3CSCHC2H6S2C3H4NCFeHC2H8C2H3CHC2HCHCHCH3C2H8CHCHCH2C2SHC2HCHCHCH2FeSH4C2H3CH3C3H3CH3FeCH3C2HSH6CHNH3C2H3C2H5NH5SH2CH8CNH2C2H3SC2HCNH2CH2CH5C2H2C2H4CNH3CHC3H7FeS2FeS2FeSFeS3HS2FeS2FeSCFeSFeS3FeS2FeS2FeSFeCS2HFeHFeS2FeS2CH4C6H4C6H4FeH2CHSCH3C6H6C6H3C6H4C6H4C5H3CH2C3H4CHCH9SHC2HC3HCHCH2FeH5CHCH4C3HCHCHCHCHCNCH3CH2CH3CH11C2HNC12H28NC10HCH10CH8CH10C2SCHCH3NCH2CHC3H2CH3CH3C2H17C5H13NC3H2C2HCH2NH3CH10CHS3HCFeHSC2H3SH2C2H5CH2CHFeCH2CHC2H2SH2SC2H3SH2C2HNHSCH2CHCFe2C2HC2HCHCH2NH4C3H4C4H3CHSC2H2C2HCH2CH5C3H3C2HCHNH4CH5CH8CHCH4CH4CHCNH2C3H4CHCH4C2H3CH6C2H13CH5C2H3CHCH3CH8CHC2H2CHC3H2CH3CHCNHC2H6SCH2NHCHC4H2CHCHC2HCH4C2H5C2HCH6CH2CHCH6CH2CHCSHNCHC5H2CH4C2SH5C2H2CHFeH5FeSHFeS2FeHFeS3FeSFeS2FeS2FeS2FeSFeS4CFeS2FeHS2C6H4C3HC2H2CHC6H4C6H4C6H4C7H3C2H7CNHC5HC3H2CH3CH5CH2SH11CHSH2CH4C2H3CH2NC2FeC2H3CH2FeCHCHNC8H2C2H15CH12CH5FeH5CHC2HCNH2FeSHNC2H2C2NCH3C2H2C2H2C2HC2H5CHSHCH9SH6C2HC2H2CHCH3NC12H30CSCHSCH2CSFeCH6SHSFeHS2H2CSHCFe2HCHCSH2CH5C3HCHCH8C3H8CHC2H2CHC3H5CH3CHSH8CHFeS2H3FeSH2SNFeS2FeS2FeS2FeS2Fe2S6H2C6H4C6H4C6H5C6H4C5H5C2HCHCH2C2HCH3CSH2NC6H17NCHCHC5HCH7CH2C2HCH3CHC2HCH5CH2CFeH2NC12H28C2H2C2HFeSCFeCSHCFeC4H4C3H2SH2SHCH3SHCH3CNCNC2H2CHCHSH2C2H2SHCSFeH10FeHCH5CH4C2H2CHFeH2CH2C2H3CHCHNHCH3C2FeHC2H3CHC2HCSH7CH4SH2CHCH3SH8CSFeH2C2HSH2CH4CH3CH7FeCHCH4CH2SHC5H2NC4H6C4NCH7C2HC6H11CHSCSH3C3H2FeS2CFeHS2FeS2FeS2FeSFeS4C2NHSHFeSCFeSCFeSFeS3HCFeCH5C6H4C6H7C6H4C6H4FeCH7CHSCH2CH3C4FeCH3CNHC3HCH3CH6C4H11CH3CH2CH3CHC2H2CH2C2H2NHC2H3CH2C2H3NC7HC3H2CH10CHCH8CHC2H2CH7CHC3H2NCHC2HCH2CHCH3SH5CH5CH3SC2H5CHCH5C3H7SHSC2H4CH2CHCH2CH2CHCNH2CHC3HCHCHCSH3NH4NH2CHCHCHC2HCH2CH14FeHCH11C3SH3CH9CHCH2CHCH3CH2CFeS2H3CFeS2FeS2FeSHFeSFeS4HC2H2CHFeS2FeS2FeCFeS3H2C4H2C6H3C2H5C6H4C6H4C2H5C6H6CHCH3CHNC12H29CSH4C2H2C2H2CHC2H3CH3C2H2C2H11CH8CH6C3H2C2HCSCHC3H3NHCHCHCH2SH2CH2CH2CH2CH2C3HCHC2H4CH4C2H12C2HNCHFeCSHCHCH3C2H2CHC2H2C2H3C2HCH5CHCHCH4CH10CH2FeHC5H5NH3CH5NC2NCH2FeSH2C2H5CH2C2SH3CHFeS2FeSHFeSFeS3FeS2FeS2FeSFeS3H2SFeS2FeCFeSHSFeSHFeS2FeSFeHS2FeS2FeS2FeSFeS2H5CFeSC6H4C3HC2H2CHCH4C6H3CHC2HC6H4C2H3CH4C6H4C6H6SHC2H6SC6H7CNH3CH3C2H3C3HCH4SH2CH4CHNHCHC2NC12H33CHC2HC2H2CH5CHCHC3H3C2HC3HCH2C3H2C2H2CH6C2H3CNCH3C4SH5CSHNH2C3HCHCH9C2H4CH2SNH2C5H2CHFeSH2C2NH3NH2CHCHCH3CH2C2H2CH3CH2C2HSH6C2H2CH4C2H2CH2CH4CHCH5FeNCH2NH3C2H5CH3C2HC2H2C2H4SH2CHCH3CHCHCH4C2H4CHCH8CH3C2HCH4CH3CHC3H2C2SCH3CHCH6NSH5CHCH2CH9SC2NHCH5C3H3CSHCH7FeSHFeS2FeHFeS3FeS2FeS2CFeS3FeS2FeS2H2FeSHSFeS2FeS2FeSFeS2FeS2FeS2FeSFeS3H2CH2C6H3C6H4C3NC2HCSCHCHC3HCH2C6H6NH2SC8H4C6H4C6H4CHFeHC2NH3C6H5C5H14CH6CH8CH2CHC2H2SH3NC10H21NC12H26CHCH4CHCHC2HCHCHCH2CH4CH3CHC2H2SHFeH2CH3NHCH3SCHC4SH6SFeC3HCHC2H2CHCH2CH4CHC2NHCH2CH2SCH2C2H2CH3CHCH5CH10C2H2CHCH4FeH2CHC2H3CNH2CH2CH6CH3CH3CHCH5SH2C2HC2HCSCH4CH2C2H3C4H11CH2CH2CH3CH5CH4CHC2H2CH3NCHC2HNH4CH2C2HCH2CHCHC2H6CHCH6CH2CH5SH5C5H3CSC3H2SHCHCH3CHCH7FeS2FeS2FeSFeS3FeS2FeS2FeSFeHS2HCFeS2FeS2FeSFeS3H5CH3SH3CHC3H2C6H4CH7CHC2HSH2C7H4C2HC2H3C3HC2H4C6H3CH3CH2C4H17SHCH2CH3CHCHCH4C2HSCHNC12H25CHC2H3C2HC2H2CHCH3CH2CH2C3HC3H2CH7CHCHCHC2H2CHC2HCHCHCH5NH4FeH2C2H5CHC2H5FeCH6C3H2C2HNC2H2CNH2C4H2C3H2CNC4H4C2H6CHCHCH3CH5C2HCH2SH7SH2CHCHSH4CHFeH5NC2SC3HFeCH9CH3NH2C3HCHC2H2CH6CHNCH3CH10C3SH2CH6C3HCH5CH3CH2NH3C2H4CH2CH3C2HC2H2FeS2FeS2FeSFeS3FeSFeS2FeSFeHS2H2SH2FeS2FeS2FeSFeS3H13C6H3C3H2C6H4C3HCNHC9H4C2HC3FeCH2C6H4CH4NHCH3C4H2C2H3SCH4CH2CH3SH3CH3CH4C6H14CSH2CH11C2HSH8CH2C2H3CHCH4CHSH7NH8CH3NH3CH2C2HCH3C4HCH2CHCH3CHCH3CH2CH2C2H2FeHCHC2NH3C4HCHC4SHC2H2CH2C2HCHSH4C2H3C2HS2C2HCH4CNHFeH2CH6CHC2FeH4CH2NCFeCHC3HCH3CSCH2CHCHCHC3H6SH2C2H8CHC2NH3CH4CHCH4CH2NCH6C3H4CHNH2SH4CH2FeS2C2FeH3C3H2C2H7C6H5CHCH5C2H6CHCH2CH2CH3C4H2CH2FeS2CHCFeSH2SH3C4HCHCH5CHC2HCH2SH2C2H4CH5CH2C2NHCH4C2HFeSHSCH2FeS2FeS2FeSFeS3FeS2FeS2FeHFeS3FeSHFeS2FeSFeS3FeS2FeS2FeSFeS3CH4NHC7H4C6H6C5H2CHCHC2HC3H2C8H4C2FeH5CH3C4H2CH3C6H9C2H4CH3CH3CH6NH2CH3CH11C2HC2H4CH4SCHCHCH2CH2C2HC2H4CH2C4H13CH2C2H3CH2C3H7CH4CH4CH2NCHC3HC2H10CHCNC2HCHC2H3CHCFeNHCHCHCH2CHC2H2C2H2C2HCH3CHCH2C4H7C3H3C2HC2SH4C2HCNHNH2NCH2CNH2SH2C3H7CH2C2HCH2C2H3CH3C3H2CHCH5CH5CSH2SHCHCH2C3H2CHSH3CH3CH7CHC4HC2H3SH6CH2C2H2CH2SH2FeS2FeS2Fe2S3H4FeS2FeS2FeSFeS3FeS2FeS2FeSFeHSHFeS2FeS2FeCFeS3H2C6H4C2HC2HCH3C6H5C4H5C2H2CH2SHCNH5CH2CH4C8H4CHC2HNH4C6H4C2H3CHCH2C3H2C3H3C2H7FeH6SH5CHCH5CHCH5CHCH11CHSC3HSC2HC2H5C2H4N2HCHCH2CH5NC12H29CSCH2C3H3CH2CHC3HC2HFeH2C2HNH2CHCHC2H2CHC2H6CH7NHC2H3C4HCSCH2CHCHSHCH9C2H4NH3CHC2H2C3H6SCHC2H2CH7CH2C3H2CH2CHCH4CH10CH3CH4CH3CH5CH3CH3CHC5HC2H2SHCH2CH2CH3CH3CHNCH2C2H2C2H4CH6NC2H3CFeH2CH3CH6C3H2FeS2H2C3H3C2H3NCS2CHCH6C7H5CSC3H2CH2CHSCH8CHC3Fe2H11CH3CH5C2H3Fe3S3CHC2H2S2HC2HC2H3NH4C4HCHCH3CHNHCH4NHCHCNC2H2C2HC3SHCH2CHCH5FeH3C2H4CHCH2CSH3CHCH4C2H3CH2CH3CH2C3H3CHCH2CH4CH2CH7CH2CH3SCH2C4H2
_chemical_formula_sum              "Fe240 H3840 S480 C2160 N120"
_cell_length_a       108.328
_cell_length_b       108.715
_cell_length_c       38.1524
_cell_angle_alpha    78.8606
_cell_angle_beta     79.023
_cell_angle_gamma    102.099

_space_group_name_H-M_alt    "P 1"
_space_group_IT_number       1

loop_
  _space_group_symop_operation_xyz
  'x, y, z'

loop_
  _atom_site_type_symbol
  _atom_site_label
  _atom_site_symmetry_multiplicity
  _atom_site_fract_x
  _atom_site_fract_y
  _atom_site_fract_z
  _atom_site_occupancy
  Fe  Fe1       1.0  0.04112  0.47508  0.09625  1.0000
  H   H1        1.0  0.06827  0.48834  0.28362  1.0000
  S   S1        1.0  0.06118  0.47756  0.10964  1.0000
  Fe  Fe2       1.0  0.01203  0.46021  0.11459  1.0000
  S   S2        1.0  0.00838  0.47116  0.06278  1.0000
  C   C1        1.0  0.02022  0.48766  0.21492  1.0000
  Fe  Fe3       1.0  0.02759  0.46873  0.03428  1.0000
  H   H2        1.0  0.07060  0.46318  0.26442  1.0000
  Fe  Fe4       1.0  0.02068  0.48835  0.07517  1.0000
  S   S3        1.0  0.03056  0.45644  0.08541  1.0000
  S   S4        1.0  0.02280  0.47773  0.12933  1.0000
  C   C2        1.0  0.09922  0.47331  0.34166  1.0000
  H   H3        1.0  0.11019  0.48960  0.19821  1.0000
  C   C3        1.0  0.08232  0.48916  0.13291  1.0000
  H   H4        1.0  0.01457  0.42882  0.12169  1.0000
  H   H5        1.0  0.05825  0.46746  0.29518  1.0000
  C   C4        1.0  0.11019  0.47891  0.35855  1.0000
  H   H6        1.0  0.08763  0.48418  0.11588  1.0000
  H   H7        1.0  0.08374  0.48305  0.24405  1.0000
  C   C5        1.0  0.05890  0.44763  0.30963  1.0000
  H   H8        1.0  0.06645  0.48499  0.33219  1.0000
  H   H9        1.0  0.01332  0.43303  0.05662  1.0000
  H   H10       1.0  0.00839  0.44158  0.00383  1.0000
  H   H11       1.0  0.11441  0.47108  0.37046  1.0000
  C   C6        1.0  0.10572  0.47906  0.20994  1.0000
  H   H12       1.0  0.06598  0.44158  0.30771  1.0000
  H   H13       1.0  0.09764  0.47584  0.19701  1.0000
  C   C7        1.0  0.00416  0.43044  0.07831  1.0000
  C   C8        1.0  0.10074  0.47622  0.25169  1.0000
  H   H14       1.0  0.05169  0.44459  0.29376  1.0000
  H   H15       1.0  0.00701  0.49036  0.26051  1.0000
  H   H16       1.0  0.05366  0.44589  0.33887  1.0000
  C   C9        1.0  0.07596  0.46660  0.31538  1.0000
  H   H17       1.0  0.10931  0.47924  0.26292  1.0000
  C   C10       1.0  0.06583  0.46199  0.29375  1.0000
  C   C11       1.0  0.09068  0.48392  0.26207  1.0000
  H   H18       1.0  0.09657  0.46562  0.26185  1.0000
  S   S5        1.0  0.03959  0.48694  0.04283  1.0000
  H   H19       1.0  0.08251  0.46002  0.31485  1.0000
  S   S6        1.0  0.99682  0.44569  0.16219  1.0000
  C   C12       1.0  0.00653  0.42280  0.11341  1.0000
  H   H20       1.0  0.07075  0.46462  0.34487  1.0000
  C   C13       1.0  0.09276  0.48395  0.32606  1.0000
  N   N1        1.0  0.08351  0.48065  0.30205  1.0000
  H   H21       1.0  0.01235  0.48236  0.20438  1.0000
  H   H22       1.0  0.01200  0.41866  0.01647  1.0000
  H   H23       1.0  0.09187  0.46561  0.36376  1.0000
  H   H24       1.0  0.00201  0.43951  0.08391  1.0000
  H   H25       1.0  0.10331  0.46862  0.32060  1.0000
  H   H26       1.0  0.11804  0.48637  0.33722  1.0000
  H   H27       1.0  0.02377  0.48044  0.23245  1.0000
  C   C14       1.0  0.00127  0.43320  0.00020  1.0000
  H   H28       1.0  0.00926  0.41384  0.10887  1.0000
  C   C15       1.0  0.06896  0.48776  0.13479  1.0000
  H   H29       1.0  0.10647  0.48341  0.38081  1.0000
  H   H30       1.0  0.11323  0.47377  0.20317  1.0000
  H   H31       1.0  0.99769  0.42018  0.13638  1.0000
  H   H32       1.0  0.99809  0.49044  0.14387  1.0000
  H   H33       1.0  0.10058  0.49290  0.31118  1.0000
  C   C16       1.0  0.00863  0.42286  0.99226  1.0000
  H   H34       1.0  0.09614  0.49425  0.25297  1.0000
  H   H35       1.0  0.08760  0.48634  0.35106  1.0000
  H   H36       1.0  0.05197  0.49325  0.15884  1.0000
  H   H37       1.0  0.02844  0.49338  0.19133  1.0000
  C   C17       1.0  0.06223  0.49426  0.15695  1.0000
  C   C18       1.0  0.07381  0.48882  0.30534  1.0000
  H   H38       1.0  0.00234  0.41490  0.98451  1.0000
  H   H39       1.0  0.07870  0.48676  0.72269  1.0000
  Fe  Fe5       1.0  0.00979  0.48834  0.72837  1.0000
  S   S7        1.0  0.01214  0.47662  0.68668  1.0000
  Fe  Fe6       1.0  0.00606  0.46559  0.79387  1.0000
  S   S8        1.0  0.00815  0.45187  0.75657  1.0000
  H   H40       1.0  0.05402  0.49025  0.96398  1.0000
  Fe  Fe7       1.0  0.02485  0.46862  0.72043  1.0000
  S   S9        1.0  0.04479  0.46795  0.68953  1.0000
  C   C19       1.0  0.02952  0.46361  0.90837  1.0000
  H   H41       1.0  0.10843  0.48746  0.73895  1.0000
  S   S10       1.0  0.02342  0.48140  0.76002  1.0000
  H   H42       1.0  0.08932  0.48716  0.87186  1.0000
  C   C20       1.0  0.00962  0.46403  0.88799  1.0000
  C   C21       1.0  0.02251  0.46315  0.88085  1.0000
  H   H43       1.0  0.09280  0.47041  0.73142  1.0000
  C   C22       1.0  0.00407  0.46604  0.92220  1.0000
  H   H44       1.0  0.02688  0.46152  0.85474  1.0000
  H   H45       1.0  0.02761  0.43649  0.96735  1.0000
  H   H46       1.0  0.07355  0.46512  0.70648  1.0000
  C   C23       1.0  0.09178  0.48691  0.79745  1.0000
  H   H47       1.0  0.01344  0.48983  0.83998  1.0000
  C   C24       1.0  0.07990  0.49377  0.63962  1.0000
  H   H48       1.0  0.05128  0.48784  0.92046  1.0000
  C   C25       1.0  0.01116  0.46676  0.94947  1.0000
  C   C26       1.0  0.06908  0.48289  0.64915  1.0000
  C   C27       1.0  0.05777  0.48223  0.67551  1.0000
  S   S11       1.0  0.03257  0.46427  0.97793  1.0000
  H   H49       1.0  0.07069  0.48065  0.76999  1.0000
  H   H50       1.0  0.06297  0.45983  0.75224  1.0000
  H   H51       1.0  0.10276  0.48045  0.85647  1.0000
  H   H52       1.0  0.03930  0.46238  0.90312  1.0000
  H   H53       1.0  0.06954  0.47486  0.63651  1.0000
  C   C28       1.0  0.02382  0.46521  0.94300  1.0000
  C   C29       1.0  0.08315  0.46937  0.74962  1.0000
  C   C30       1.0  0.07294  0.46086  0.73583  1.0000
  H   H54       1.0  0.07467  0.45106  0.73810  1.0000
  H   H55       1.0  0.01786  0.43318  0.93503  1.0000
  H   H56       1.0  0.04880  0.49224  0.71225  1.0000
  C   C31       1.0  0.08027  0.48275  0.75010  1.0000
  H   H57       1.0  0.09610  0.47849  0.79735  1.0000
  H   H58       1.0  0.08291  0.46408  0.77781  1.0000
  C   C32       1.0  0.02064  0.42884  0.96029  1.0000
  S   S12       1.0  0.99968  0.46146  0.85672  1.0000
  H   H59       1.0  0.08862  0.49405  0.61986  1.0000
  H   H60       1.0  0.08200  0.48283  0.81675  1.0000
  C   C33       1.0  0.09945  0.48950  0.85495  1.0000
  H   H61       1.0  0.00672  0.46807  0.97590  1.0000
  H   H62       1.0  0.99854  0.43698  0.97431  1.0000
  N   N2        1.0  0.09049  0.49256  0.75934  1.0000
  C   C34       1.0  0.05732  0.49265  0.69175  1.0000
  H   H63       1.0  0.00414  0.49149  0.60731  1.0000
  H   H64       1.0  0.02561  0.42125  0.95439  1.0000
  C   C35       1.0  0.05486  0.49526  0.93502  1.0000
  H   H65       1.0  0.10117  0.49371  0.70386  1.0000
  C   C36       1.0  0.10315  0.49489  0.73088  1.0000
  Fe  Fe8       1.0  0.24080  0.58541  0.01816  1.0000
  S   S13       1.0  0.25717  0.60156  0.02007  1.0000
  H   H66       1.0  0.20261  0.55481  0.10800  1.0000
  Fe  Fe9       1.0  0.22470  0.58409  0.09481  1.0000
  S   S14       1.0  0.24015  0.59998  0.10304  1.0000
  S   S15       1.0  0.20565  0.57767  0.13899  1.0000
  Fe  Fe10      1.0  0.24125  0.60993  0.04482  1.0000
  S   S16       1.0  0.23996  0.63050  0.02532  1.0000
  Fe  Fe11      1.0  0.25481  0.59025  0.07781  1.0000
  S   S17       1.0  0.27143  0.58477  0.10046  1.0000
  S   S18       1.0  0.22504  0.59468  0.03780  1.0000
  S   S19       1.0  0.23920  0.57342  0.07469  1.0000
  H   H67       1.0  0.31992  0.72403  0.31802  1.0000
  Fe  Fe12      1.0  0.25709  0.68934  0.10739  1.0000
  S   S20       1.0  0.02240  0.56239  0.15337  1.0000
  S   S21       1.0  0.26245  0.67021  0.11303  1.0000
  H   H68       1.0  0.21076  0.53879  0.99720  1.0000
  S   S22       1.0  0.22157  0.69519  0.20010  1.0000
  S   S23       1.0  0.23755  0.69185  0.10103  1.0000
  Fe  Fe13      1.0  0.13939  0.52691  0.20850  1.0000
  S   S24       1.0  0.12250  0.50981  0.24163  1.0000
  S   S25       1.0  0.15902  0.52686  0.17386  1.0000
  Fe  Fe14      1.0  0.12472  0.54647  0.22296  1.0000
  S   S26       1.0  0.10688  0.53148  0.25649  1.0000
  S   S27       1.0  0.12460  0.56750  0.21097  1.0000
  Fe  Fe15      1.0  0.12028  0.52189  0.28351  1.0000
  S   S28       1.0  0.11242  0.51361  0.34593  1.0000
  Fe  Fe16      1.0  0.10980  0.52033  0.21311  1.0000
  S   S29       1.0  0.08986  0.51348  0.20052  1.0000
  S   S30       1.0  0.13805  0.53788  0.25274  1.0000
  S   S31       1.0  0.12680  0.53635  0.17727  1.0000
  Fe  Fe17      1.0  0.12125  0.62772  0.29719  1.0000
  S   S32       1.0  0.12451  0.61616  0.34858  1.0000
  S   S33       1.0  0.10036  0.62212  0.28924  1.0000
  Fe  Fe18      1.0  0.14990  0.64436  0.27608  1.0000
  S   S34       1.0  0.15483  0.63351  0.32601  1.0000
  S   S35       1.0  0.16455  0.65835  0.22537  1.0000
  Fe  Fe19      1.0  0.14333  0.61593  0.31348  1.0000
  S   S36       1.0  0.14950  0.59738  0.31731  1.0000
  Fe  Fe20      1.0  0.13551  0.63475  0.35790  1.0000
  S   S37       1.0  0.12965  0.63452  0.41934  1.0000
  S   S38       1.0  0.13971  0.62640  0.26143  1.0000
  S   S39       1.0  0.13096  0.64669  0.30850  1.0000
  H   H69       1.0  0.02815  0.61056  0.22236  1.0000
  Fe  Fe21      1.0  0.03570  0.58112  0.11714  1.0000
  S   S40       1.0  0.03468  0.58999  0.05854  1.0000
  Fe  Fe22      1.0  0.04088  0.55787  0.16333  1.0000
  S   S41       1.0  0.04105  0.56613  0.21257  1.0000
  S   S42       1.0  0.04514  0.53857  0.16394  1.0000
  Fe  Fe23      1.0  0.05288  0.58480  0.17333  1.0000
  S   S43       1.0  0.07312  0.59581  0.17719  1.0000
  S   S44       1.0  0.05409  0.57584  0.12451  1.0000
  C   C37       1.0  0.02510  0.51686  0.09114  1.0000
  C   C38       1.0  0.02328  0.52903  0.09358  1.0000
  C   C39       1.0  0.03006  0.53612  0.11412  1.0000
  C   C40       1.0  0.03828  0.53087  0.13330  1.0000
  C   C41       1.0  0.04055  0.51897  0.12944  1.0000
  C   C42       1.0  0.03417  0.51211  0.10776  1.0000
  H   H70       1.0  0.01663  0.53298  0.07968  1.0000
  H   H71       1.0  0.02877  0.54555  0.11525  1.0000
  H   H72       1.0  0.04713  0.51500  0.14353  1.0000
  C   C43       1.0  0.01559  0.53624  0.25585  1.0000
  C   C44       1.0  0.13773  0.64047  0.45159  1.0000
  C   C45       1.0  0.15005  0.64921  0.44115  1.0000
  H   H73       1.0  0.15236  0.57491  0.37269  1.0000
  H   H74       1.0  0.06014  0.60971  0.12797  1.0000
  C   C46       1.0  0.00302  0.52677  0.20297  1.0000
  H   H75       1.0  0.01891  0.51246  0.18958  1.0000
  H   H76       1.0  0.15489  0.65289  0.41228  1.0000
  H   H77       1.0  0.07394  0.52159  0.29624  1.0000
  C   C47       1.0  0.07190  0.62894  0.12639  1.0000
  C   C48       1.0  0.09311  0.61336  0.25994  1.0000
  C   C49       1.0  0.10043  0.61129  0.22819  1.0000
  C   C50       1.0  0.09414  0.60551  0.20391  1.0000
  C   C51       1.0  0.08046  0.60137  0.21142  1.0000
  C   C52       1.0  0.07315  0.60291  0.24401  1.0000
  C   C53       1.0  0.07943  0.60903  0.26772  1.0000
  H   H78       1.0  0.11093  0.61454  0.22170  1.0000
  H   H79       1.0  0.09993  0.60440  0.17886  1.0000
  H   H80       1.0  0.06265  0.59982  0.25032  1.0000
  H   H81       1.0  0.07365  0.61055  0.29216  1.0000
  C   C54       1.0  0.11984  0.51825  0.38100  1.0000
  H   H82       1.0  0.26780  0.55040  0.03823  1.0000
  C   C55       1.0  0.01512  0.49654  0.23739  1.0000
  N   N3        1.0  0.29912  0.58191  0.98456  1.0000
  C   C56       1.0  0.13876  0.52726  0.40254  1.0000
  C   C57       1.0  0.13309  0.52439  0.37370  1.0000
  Fe  Fe24      1.0  0.23796  0.70168  0.14754  1.0000
  H   H83       1.0  0.05334  0.62411  0.23987  1.0000
  H   H84       1.0  0.13907  0.52662  0.34599  1.0000
  C   C58       1.0  0.19071  0.58289  0.03471  1.0000
  H   H85       1.0  0.09816  0.58924  0.06861  1.0000
  H   H86       1.0  0.01943  0.53287  0.31056  1.0000
  S   S45       1.0  0.03502  0.59145  0.16367  1.0000
  C   C59       1.0  0.08677  0.56352  0.11333  1.0000
  C   C60       1.0  0.06322  0.61958  0.10948  1.0000
  H   H87       1.0  0.22067  0.55787  0.04134  1.0000
  H   H88       1.0  0.15643  0.56293  0.40513  1.0000
  C   C61       1.0  0.16424  0.59973  0.45990  1.0000
  C   C62       1.0  0.02373  0.53958  0.28295  1.0000
  C   C63       1.0  0.13123  0.57543  0.24166  1.0000
  C   C64       1.0  0.12638  0.58545  0.25225  1.0000
  C   C65       1.0  0.13174  0.59198  0.27630  1.0000
  C   C66       1.0  0.14203  0.58856  0.28968  1.0000
  C   C67       1.0  0.14662  0.57829  0.27999  1.0000
  C   C68       1.0  0.14137  0.57187  0.25556  1.0000
  H   H89       1.0  0.11840  0.58814  0.24206  1.0000
  H   H90       1.0  0.12776  0.59954  0.28480  1.0000
  H   H91       1.0  0.15447  0.57550  0.29063  1.0000
  H   H92       1.0  0.14538  0.56437  0.24691  1.0000
  C   C69       1.0  0.18057  0.66812  0.21939  1.0000
  C   C70       1.0  0.18602  0.66994  0.24904  1.0000
  C   C71       1.0  0.19860  0.67816  0.24268  1.0000
  C   C72       1.0  0.20598  0.68449  0.20668  1.0000
  C   C73       1.0  0.20064  0.68242  0.17705  1.0000
  C   C74       1.0  0.18799  0.67436  0.18342  1.0000
  H   H93       1.0  0.18042  0.66527  0.27686  1.0000
  H   H94       1.0  0.20260  0.67976  0.26582  1.0000
  H   H95       1.0  0.20613  0.68730  0.14924  1.0000
  H   H96       1.0  0.18387  0.67307  0.16028  1.0000
  C   C75       1.0  0.24659  0.64164  0.04892  1.0000
  C   C76       1.0  0.25282  0.63784  0.07647  1.0000
  C   C77       1.0  0.25779  0.64676  0.09561  1.0000
  C   C78       1.0  0.25661  0.65953  0.08722  1.0000
  C   C79       1.0  0.25064  0.66344  0.05905  1.0000
  C   C80       1.0  0.24558  0.65447  0.04006  1.0000
  H   H97       1.0  0.25382  0.62803  0.08314  1.0000
  H   H98       1.0  0.26251  0.64374  0.11716  1.0000
  H   H99       1.0  0.24971  0.67328  0.05246  1.0000
  C   C81       1.0  0.18922  0.57172  0.01562  1.0000
  C   C82       1.0  0.28791  0.59386  0.08782  1.0000
  C   C83       1.0  0.29722  0.58830  0.10128  1.0000
  C   C84       1.0  0.31045  0.59512  0.09172  1.0000
  C   C85       1.0  0.31448  0.60763  0.06867  1.0000
  C   C86       1.0  0.30519  0.61314  0.05488  1.0000
  C   C87       1.0  0.29197  0.60628  0.06429  1.0000
  H   H100      1.0  0.29416  0.57868  0.11944  1.0000
  H   H101      1.0  0.31748  0.59078  0.10255  1.0000
  C   C88       1.0  0.32832  0.57648  0.02655  1.0000
  H   H102      1.0  0.28491  0.61067  0.05377  1.0000
  C   C89       1.0  0.19347  0.56286  0.14984  1.0000
  C   C90       1.0  0.18259  0.56075  0.17899  1.0000
  C   C91       1.0  0.17202  0.54984  0.18639  1.0000
  C   C92       1.0  0.17239  0.54058  0.16563  1.0000
  C   C93       1.0  0.18362  0.54230  0.13776  1.0000
  C   C94       1.0  0.19406  0.55348  0.12957  1.0000
  H   H103      1.0  0.18223  0.56770  0.19570  1.0000
  H   H104      1.0  0.16365  0.54856  0.20846  1.0000
  H   H105      1.0  0.18421  0.53495  0.12254  1.0000
  H   H106      1.0  0.27752  0.74478  0.06472  1.0000
  H   H107      1.0  0.07073  0.54744  0.17081  1.0000
  H   H108      1.0  0.15570  0.62712  0.42541  1.0000
  H   H109      1.0  0.09013  0.53678  0.44396  1.0000
  H   H110      1.0  0.18969  0.52515  0.01116  1.0000
  H   H111      1.0  0.11774  0.55189  0.29012  1.0000
  H   H112      1.0  0.00597  0.53787  0.26556  1.0000
  C   C95       1.0  0.10800  0.58136  0.37530  1.0000
  H   H113      1.0  0.13953  0.59160  0.44341  1.0000
  N   N4        1.0  0.17258  0.59919  0.15473  1.0000
  C   C96       1.0  0.17970  0.60896  0.11892  1.0000
  C   C97       1.0  0.16022  0.60251  0.17144  1.0000
  C   C98       1.0  0.18144  0.59999  0.18092  1.0000
  C   C99       1.0  0.16972  0.58550  0.15003  1.0000
  C   C100      1.0  0.16139  0.58242  0.12268  1.0000
  C   C101      1.0  0.19301  0.60721  0.09977  1.0000
  C   C102      1.0  0.17520  0.59286  0.22188  1.0000
  C   C103      1.0  0.15276  0.60856  0.14456  1.0000
  C   C104      1.0  0.13912  0.60846  0.16489  1.0000
  C   C105      1.0  0.16067  0.56864  0.11793  1.0000
  C   C106      1.0  0.19919  0.61756  0.06379  1.0000
  C   C107      1.0  0.18534  0.59353  0.24481  1.0000
  H   H114      1.0  0.18145  0.61892  0.12364  1.0000
  H   H115      1.0  0.17372  0.60900  0.09836  1.0000
  H   H116      1.0  0.15335  0.59378  0.19137  1.0000
  H   H117      1.0  0.16234  0.60980  0.18787  1.0000
  H   H118      1.0  0.18562  0.61029  0.18038  1.0000
  H   H119      1.0  0.18983  0.59592  0.17219  1.0000
  H   H120      1.0  0.17895  0.58277  0.14161  1.0000
  H   H121      1.0  0.16448  0.57851  0.17672  1.0000
  H   H122      1.0  0.16549  0.58916  0.09515  1.0000
  H   H123      1.0  0.15128  0.58286  0.13358  1.0000
  H   H124      1.0  0.20003  0.60812  0.11733  1.0000
  H   H125      1.0  0.19186  0.59761  0.09318  1.0000
  H   H126      1.0  0.17066  0.58247  0.22489  1.0000
  H   H127      1.0  0.16771  0.59738  0.23413  1.0000
  H   H128      1.0  0.15811  0.61883  0.13129  1.0000
  H   H129      1.0  0.15172  0.60346  0.12247  1.0000
  H   H130      1.0  0.13300  0.59834  0.17539  1.0000
  H   H131      1.0  0.13953  0.61309  0.18834  1.0000
  H   H132      1.0  0.13445  0.61387  0.14581  1.0000
  H   H133      1.0  0.15540  0.56141  0.14418  1.0000
  H   H134      1.0  0.15540  0.56681  0.09648  1.0000
  H   H135      1.0  0.17056  0.56720  0.10940  1.0000
  H   H136      1.0  0.20872  0.61611  0.05096  1.0000
  H   H137      1.0  0.19287  0.61688  0.04412  1.0000
  H   H138      1.0  0.18973  0.60375  0.24450  1.0000
  H   H139      1.0  0.18057  0.58820  0.27380  1.0000
  H   H140      1.0  0.19309  0.58899  0.23419  1.0000
  N   N5        1.0  0.21570  0.64831  0.18082  1.0000
  C   C108      1.0  0.21062  0.65327  0.14807  1.0000
  C   C109      1.0  0.20489  0.64422  0.21568  1.0000
  C   C110      1.0  0.22603  0.65940  0.18470  1.0000
  C   C111      1.0  0.22204  0.63748  0.17547  1.0000
  C   C112      1.0  0.21345  0.62531  0.16884  1.0000
  C   C113      1.0  0.22042  0.65713  0.11010  1.0000
  C   C114      1.0  0.23087  0.65708  0.22076  1.0000
  C   C115      1.0  0.19098  0.63782  0.21298  1.0000
  C   C116      1.0  0.18173  0.63215  0.25107  1.0000
  C   C117      1.0  0.22168  0.61640  0.15642  1.0000
  C   C118      1.0  0.21457  0.66317  0.07971  1.0000
  C   C119      1.0  0.24172  0.66857  0.22071  1.0000
  H   H141      1.0  0.20684  0.66179  0.15203  1.0000
  H   H142      1.0  0.20221  0.64603  0.14539  1.0000
  H   H143      1.0  0.20750  0.63760  0.23764  1.0000
  H   H144      1.0  0.20373  0.65285  0.22652  1.0000
  H   H145      1.0  0.22247  0.66836  0.18301  1.0000
  H   H146      1.0  0.23484  0.66192  0.16163  1.0000
  H   H147      1.0  0.23098  0.64117  0.15248  1.0000
  H   H148      1.0  0.22557  0.63389  0.19998  1.0000
  H   H149      1.0  0.20815  0.62776  0.14743  1.0000
  H   H150      1.0  0.20642  0.61973  0.19502  1.0000
  H   H151      1.0  0.22931  0.66432  0.10986  1.0000
  H   H152      1.0  0.22318  0.64848  0.10302  1.0000
  H   H153      1.0  0.23483  0.64844  0.22414  1.0000
  H   H154      1.0  0.22290  0.65577  0.24531  1.0000
  H   H155      1.0  0.18696  0.64522  0.19779  1.0000
  H   H156      1.0  0.19082  0.62999  0.19841  1.0000
  H   H157      1.0  0.18131  0.63984  0.26636  1.0000
  H   H158      1.0  0.17177  0.62811  0.24818  1.0000
  H   H159      1.0  0.18490  0.62425  0.26715  1.0000
  H   H160      1.0  0.22770  0.61404  0.17606  1.0000
  H   H161      1.0  0.21530  0.60715  0.15502  1.0000
  H   H162      1.0  0.22816  0.62113  0.12866  1.0000
  H   H163      1.0  0.21194  0.67210  0.08507  1.0000
  H   H164      1.0  0.22182  0.66587  0.05287  1.0000
  H   H165      1.0  0.20578  0.65618  0.07779  1.0000
  H   H166      1.0  0.23819  0.67750  0.21875  1.0000
  H   H167      1.0  0.24498  0.66667  0.24667  1.0000
  H   H168      1.0  0.13361  0.55338  0.43628  1.0000
  H   H169      1.0  0.09195  0.58977  0.39288  1.0000
  H   H170      1.0  0.11701  0.55375  0.09459  1.0000
  H   H171      1.0  0.07127  0.54181  0.10202  1.0000
  H   H172      1.0  0.03768  0.65564  0.10891  1.0000
  C   C120      1.0  0.10262  0.56827  0.40492  1.0000
  H   H173      1.0  0.06076  0.50752  0.32005  1.0000
  H   H174      1.0  0.29386  0.73738  0.26027  1.0000
  H   H175      1.0  0.05359  0.66487  0.10884  1.0000
  H   H176      1.0  0.10111  0.59674  0.34596  1.0000
  C   C121      1.0  0.07633  0.53483  0.11420  1.0000
  H   H177      1.0  0.08996  0.58104  0.35745  1.0000
  C   C122      1.0  0.05422  0.62139  0.18372  1.0000
  H   H178      1.0  0.07950  0.62391  0.13269  1.0000
  H   H179      1.0  0.03631  0.50315  0.10406  1.0000
  H   H180      1.0  0.32745  0.67358  0.08279  1.0000
  H   H181      1.0  0.10072  0.54481  0.38799  1.0000
  H   H182      1.0  0.17809  0.63567  0.43238  1.0000
  H   H183      1.0  0.28996  0.56387  0.02571  1.0000
  H   H184      1.0  0.08259  0.51821  0.10001  1.0000
  H   H185      1.0  0.23123  0.54123  0.06367  1.0000
  H   H186      1.0  0.13915  0.60759  0.42005  1.0000
  H   H187      1.0  0.32329  0.73875  0.33358  1.0000
  H   H188      1.0  0.25019  0.67009  0.19728  1.0000
  H   H189      1.0  0.22185  0.68020  0.98868  1.0000
  C   C123      1.0  0.12192  0.59715  0.46132  1.0000
  C   C124      1.0  0.31448  0.57295  0.02132  1.0000
  H   H190      1.0  0.08041  0.53719  0.18572  1.0000
  H   H191      1.0  0.06429  0.61137  0.06186  1.0000
  H   H192      1.0  0.09286  0.64361  0.13710  1.0000
  H   H193      1.0  0.13521  0.57276  0.08716  1.0000
  H   H194      1.0  0.03388  0.53904  0.27291  1.0000
  C   C125      1.0  0.12541  0.56744  0.40412  1.0000
  H   H195      1.0  0.06270  0.55257  0.22954  1.0000
  C   C126      1.0  0.11498  0.56192  0.10631  1.0000
  H   H196      1.0  0.07623  0.56078  0.11382  1.0000
  C   C127      1.0  0.13126  0.52435  0.43895  1.0000
  C   C128      1.0  0.03401  0.58152  0.02284  1.0000
  H   H197      1.0  0.02908  0.51727  0.98990  1.0000
  H   H198      1.0  0.16650  0.52039  0.04544  1.0000
  H   H199      1.0  0.07942  0.61501  0.07549  1.0000
  C   C129      1.0  0.06878  0.50200  0.17698  1.0000
  S   S46       1.0  0.01592  0.50756  0.06784  1.0000
  C   C130      1.0  0.13672  0.60057  0.44720  1.0000
  H   H200      1.0  0.17471  0.50900  0.06519  1.0000
  C   C131      1.0  0.17426  0.51929  0.06020  1.0000
  C   C132      1.0  0.27436  0.57073  0.00800  1.0000
  H   H201      1.0  0.09393  0.53407  0.13232  1.0000
  H   H202      1.0  0.10205  0.51060  0.42347  1.0000
  H   H203      1.0  0.16551  0.66019  0.45983  1.0000
  H   H204      1.0  0.11864  0.60595  0.46493  1.0000
  H   H205      1.0  0.20967  0.57217  0.99970  1.0000
  H   H206      1.0  0.05435  0.62257  0.10541  1.0000
  S   S47       1.0  0.28677  0.72929  0.11907  1.0000
  S   S48       1.0  0.13923  0.52763  0.47430  1.0000
  C   C133      1.0  0.08216  0.50346  0.17486  1.0000
  C   C134      1.0  0.06960  0.51130  0.29704  1.0000
  C   C135      1.0  0.15607  0.65331  0.46820  1.0000
  H   H207      1.0  0.20094  0.62741  0.06902  1.0000
  H   H208      1.0  0.03945  0.53167  0.02089  1.0000
  H   H209      1.0  0.27345  0.74333  0.25994  1.0000
  H   H210      1.0  0.09637  0.54525  0.08946  1.0000
  N   N6        1.0  0.00507  0.51637  0.23215  1.0000
  C   C136      1.0  0.14351  0.60634  0.47483  1.0000
  Fe  Fe25      1.0  0.02315  0.57185  0.20028  1.0000
  H   H211      1.0  0.18209  0.58693  0.03563  1.0000
  C   C137      1.0  0.04994  0.53283  0.00946  1.0000
  C   C138      1.0  0.16210  0.62036  0.42650  1.0000
  H   H212      1.0  0.02391  0.54960  0.28573  1.0000
  H   H213      1.0  0.08061  0.58562  0.08072  1.0000
  H   H214      1.0  0.03217  0.56266  0.05675  1.0000
  H   H215      1.0  0.26807  0.74480  0.03096  1.0000
  H   H216      1.0  0.25499  0.55818  0.03174  1.0000
  H   H217      1.0  0.02009  0.54326  0.22885  1.0000
  H   H218      1.0  0.11485  0.58821  0.38515  1.0000
  H   H219      1.0  0.31238  0.73493  0.26654  1.0000
  C   C139      1.0  0.08072  0.54751  0.17408  1.0000
  C   C140      1.0  0.17639  0.62887  0.41449  1.0000
  H   H220      1.0  0.02510  0.52307  0.23532  1.0000
  H   H221      1.0  0.16065  0.61519  0.40446  1.0000
  H   H222      1.0  0.17860  0.63088  0.35546  1.0000
  C   C141      1.0  0.06096  0.64479  0.14986  1.0000
  H   H223      1.0  0.05232  0.52354  0.01941  1.0000
  C   C142      1.0  0.04995  0.64392  0.12922  1.0000
  C   C143      1.0  0.17951  0.63714  0.37515  1.0000
  H   H224      1.0  0.06345  0.50698  0.19396  1.0000
  C   C144      1.0  0.01506  0.52229  0.25119  1.0000
  H   H225      1.0  0.16086  0.59501  0.43883  1.0000
  C   C145      1.0  0.26475  0.55956  0.03771  1.0000
  H   H226      1.0  0.04678  0.61868  0.16838  1.0000
  C   C146      1.0  0.18729  0.54259  0.03120  1.0000
  H   H227      1.0  0.16220  0.57263  0.47031  1.0000
  H   H228      1.0  0.11342  0.58042  0.34880  1.0000
  H   H229      1.0  0.17823  0.58155  0.47127  1.0000
  C   C147      1.0  0.28806  0.57348  0.01610  1.0000
  C   C148      1.0  0.31111  0.58485  0.99934  1.0000
  H   H230      1.0  0.08258  0.53064  0.06093  1.0000
  H   H231      1.0  0.31262  0.74342  0.11455  1.0000
  H   H232      1.0  0.01397  0.51584  0.27868  1.0000
  H   H233      1.0  0.08264  0.50486  0.32784  1.0000
  H   H234      1.0  0.07359  0.62799  0.05201  1.0000
  H   H235      1.0  0.13101  0.56274  0.13343  1.0000
  H   H236      1.0  0.28739  0.57784  0.04025  1.0000
  H   H237      1.0  0.22369  0.53055  0.03867  1.0000
  C   C149      1.0  0.29287  0.74512  0.12467  1.0000
  H   H238      1.0  0.20165  0.56350  0.04543  1.0000
  C   C150      1.0  0.18742  0.52808  0.03735  1.0000
  H   H239      1.0  0.23553  0.54566  0.01403  1.0000
  C   C151      1.0  0.01051  0.50701  0.21306  1.0000
  H   H240      1.0  0.13948  0.61463  0.47962  1.0000
  H   H241      1.0  0.18964  0.64330  0.36761  1.0000
  C   C152      1.0  0.08998  0.54172  0.11777  1.0000
  C   C153      1.0  0.03272  0.56813  0.02939  1.0000
  S   S49       1.0  0.00572  0.56623  0.24982  1.0000
  H   H242      1.0  0.31002  0.59145  0.01806  1.0000
  C   C154      1.0  0.07955  0.50344  0.30246  1.0000
  C   C155      1.0  0.11599  0.54716  0.31964  1.0000
  H   H243      1.0  0.05504  0.55241  0.01769  1.0000
  C   C156      1.0  0.31844  0.74103  0.28012  1.0000
  H   H244      1.0  0.03076  0.55140  0.00637  1.0000
  C   C157      1.0  0.29392  0.74497  0.23628  1.0000
  H   H245      1.0  0.08628  0.55023  0.46077  1.0000
  C   C158      1.0  0.05749  0.54298  0.02554  1.0000
  H   H246      1.0  0.06812  0.54434  0.01578  1.0000
  H   H247      1.0  0.04132  0.63585  0.14416  1.0000
  Fe  Fe26      1.0  0.26703  0.71730  0.11548  1.0000
  S   S50       1.0  0.25707  0.69814  0.15580  1.0000
  H   H248      1.0  0.06688  0.51095  0.27052  1.0000
  H   H249      1.0  0.17494  0.60338  0.44916  1.0000
  H   H250      1.0  0.29947  0.74340  0.21063  1.0000
  H   H251      1.0  0.11294  0.54363  0.45178  1.0000
  C   C159      1.0  0.09705  0.58755  0.36764  1.0000
  C   C160      1.0  0.10733  0.55108  0.44828  1.0000
  H   H252      1.0  0.11645  0.54330  0.38958  1.0000
  H   H253      1.0  0.28350  0.74078  0.02192  1.0000
  H   H254      1.0  0.27626  0.73365  0.22725  1.0000
  C   C161      1.0  0.20055  0.56505  0.01664  1.0000
  H   H255      1.0  0.12610  0.57768  0.12427  1.0000
  H   H256      1.0  0.10676  0.53943  0.32764  1.0000
  H   H257      1.0  0.11720  0.59317  0.44116  1.0000
  C   C162      1.0  0.07736  0.52535  0.08960  1.0000
  C   C163      1.0  0.11086  0.55061  0.38358  1.0000
  C   C164      1.0  0.07130  0.54998  0.23784  1.0000
  H   H258      1.0  0.12418  0.54284  0.32364  1.0000
  H   H259      1.0  0.11203  0.51609  0.47399  1.0000
  H   H260      1.0  0.17285  0.64361  0.37278  1.0000
  C   C165      1.0  0.08948  0.58776  0.09131  1.0000
  H   H261      1.0  0.08105  0.57639  0.14668  1.0000
  H   H262      1.0  0.09951  0.57111  0.43115  1.0000
  H   H263      1.0  0.30821  0.62281  0.03707  1.0000
  Fe  Fe27      1.0  0.24890  0.71143  0.06490  1.0000
  C   C166      1.0  0.11513  0.55719  0.34213  1.0000
  H   H264      1.0  0.09353  0.56293  0.39925  1.0000
  H   H265      1.0  0.09842  0.57952  0.13167  1.0000
  H   H266      1.0  0.08519  0.56513  0.19552  1.0000
  C   C167      1.0  0.11229  0.51540  0.41739  1.0000
  C   C168      1.0  0.08915  0.57678  0.12357  1.0000
  H   H267      1.0  0.12477  0.56416  0.33470  1.0000
  S   S51       1.0  0.26846  0.70802  0.06741  1.0000
  H   H268      1.0  0.18348  0.62288  0.41562  1.0000
  H   H269      1.0  0.11234  0.56878  0.08532  1.0000
  H   H270      1.0  0.24653  0.57589  0.47322  1.0000
  H   H271      1.0  0.06924  0.65269  0.13156  1.0000
  H   H272      1.0  0.30670  0.73063  0.33510  1.0000
  H   H273      1.0  0.10778  0.56215  0.33388  1.0000
  C   C169      1.0  0.08310  0.55448  0.20500  1.0000
  H   H274      1.0  0.09172  0.56505  0.08389  1.0000
  N   N7        1.0  0.11166  0.55949  0.40936  1.0000
  H   H275      1.0  0.10493  0.56403  0.15866  1.0000
  H   H276      1.0  0.09153  0.55213  0.21506  1.0000
  H   H277      1.0  0.07340  0.55483  0.25993  1.0000
  C   C170      1.0  0.31698  0.73317  0.31916  1.0000
  C   C171      1.0  0.04690  0.62329  0.22056  1.0000
  H   H278      1.0  0.24069  0.65744  0.01890  1.0000
  H   H279      1.0  0.04314  0.63206  0.21605  1.0000
  H   H280      1.0  0.10628  0.54826  0.15934  1.0000
  C   C172      1.0  0.11791  0.51855  0.44612  1.0000
  C   C173      1.0  0.10402  0.55665  0.14226  1.0000
  H   H281      1.0  0.26405  0.56174  0.06520  1.0000
  H   H282      1.0  0.09921  0.49817  0.15012  1.0000
  H   H283      1.0  0.07107  0.63844  0.20748  1.0000
  H   H284      1.0  0.20865  0.54290  0.06414  1.0000
  H   H285      1.0  0.99935  0.51662  0.15977  1.0000
  N   N8        1.0  0.09040  0.55266  0.13709  1.0000
  H   H286      1.0  0.14909  0.53169  0.39660  1.0000
  H   H287      1.0  0.04128  0.65801  0.15169  1.0000
  H   H288      1.0  0.09346  0.64819  0.21405  1.0000
  H   H289      1.0  0.08622  0.65541  0.15630  1.0000
  H   H290      1.0  0.06747  0.51995  0.08937  1.0000
  S   S52       1.0  0.24704  0.72060  0.00824  1.0000
  H   H291      1.0  0.12904  0.57431  0.37660  1.0000
  H   H292      1.0  0.05796  0.64844  0.17465  1.0000
  C   C174      1.0  0.12759  0.56920  0.11332  1.0000
  H   H293      1.0  0.01262  0.53255  0.18468  1.0000
  H   H294      1.0  0.02314  0.50101  0.24887  1.0000
  H   H295      1.0  0.06901  0.53932  0.24885  1.0000
  H   H296      1.0  0.03858  0.60258  0.24513  1.0000
  H   H297      1.0  0.32691  0.52558  0.33150  1.0000
  H   H298      1.0  0.12559  0.57367  0.42411  1.0000
  H   H299      1.0  0.03036  0.61304  0.26635  1.0000
  H   H300      1.0  0.10665  0.65417  0.17336  1.0000
  C   C175      1.0  0.03530  0.61165  0.23965  1.0000
  N   N9        1.0  0.06533  0.63258  0.16032  1.0000
  H   H301      1.0  0.07784  0.62611  0.19366  1.0000
  H   H302      1.0  0.09002  0.59690  0.10058  1.0000
  C   C176      1.0  0.07065  0.61848  0.07241  1.0000
  C   C177      1.0  0.09775  0.64627  0.18740  1.0000
  H   H303      1.0  0.10062  0.63700  0.19298  1.0000
  H   H304      1.0  0.05784  0.61261  0.19060  1.0000
  H   H305      1.0  0.13639  0.55367  0.38786  1.0000
  S   S53       1.0  0.24790  0.72183  0.11086  1.0000
  C   C178      1.0  0.07520  0.63521  0.18292  1.0000
  C   C179      1.0  0.22742  0.54087  0.03874  1.0000
  H   H306      1.0  0.07717  0.63781  0.10426  1.0000
  C   C180      1.0  0.08807  0.64567  0.16295  1.0000
  N   N10       1.0  0.19895  0.55243  0.00473  1.0000
  H   H307      1.0  0.23103  0.69390  0.02748  1.0000
  H   H308      1.0  0.05356  0.64268  0.10124  1.0000
  C   C181      1.0  0.04539  0.65640  0.12445  1.0000
  H   H309      1.0  0.07012  0.52925  0.14165  1.0000
  H   H310      1.0  0.17167  0.52165  0.08732  1.0000
  C   C182      1.0  0.23314  0.69763  0.99801  1.0000
  H   H311      1.0  0.00319  0.50162  0.20090  1.0000
  H   H312      1.0  0.17823  0.54361  0.02252  1.0000
  H   H313      1.0  0.19154  0.57948  0.06338  1.0000
  H   H314      1.0  0.18590  0.54457  0.05907  1.0000
  H   H315      1.0  0.14935  0.57506  0.42098  1.0000
  C   C183      1.0  0.13579  0.55970  0.40816  1.0000
  C   C184      1.0  0.21656  0.54787  0.03921  1.0000
  H   H316      1.0  0.08812  0.50760  0.27913  1.0000
  H   H317      1.0  0.25648  0.68856  0.99012  1.0000
  C   C185      1.0  0.21150  0.54837  0.00372  1.0000
  C   C186      1.0  0.03197  0.56176  0.00060  1.0000
  H   H318      1.0  0.30777  0.56943  0.04919  1.0000
  H   H319      1.0  0.19482  0.52609  0.05263  1.0000
  H   H320      1.0  0.05483  0.53972  0.05604  1.0000
  H   H321      1.0  0.17969  0.56474  0.02963  1.0000
  C   C187      1.0  0.14929  0.56877  0.40130  1.0000
  N   N11       1.0  0.15817  0.61083  0.46381  1.0000
  H   H322      1.0  0.99874  0.53384  0.21534  1.0000
  H   H323      1.0  0.27044  0.57940  0.00762  1.0000
  H   H324      1.0  0.31354  0.56488  0.00728  1.0000
  C   C188      1.0  0.27977  0.74315  0.23355  1.0000
  H   H325      1.0  0.10943  0.55705  0.46820  1.0000
  C   C189      1.0  0.03463  0.58841  0.98696  1.0000
  C   C190      1.0  0.09271  0.54352  0.46134  1.0000
  C   C191      1.0  0.08891  0.49703  0.15252  1.0000
  H   H326      1.0  0.00126  0.54005  0.13490  1.0000
  H   H327      1.0  0.29343  0.59891  0.99557  1.0000
  H   H328      1.0  0.19949  0.59074  0.01925  1.0000
  H   H329      1.0  0.04758  0.51034  0.98438  1.0000
  H   H330      1.0  0.32870  0.74273  0.26507  1.0000
  H   H331      1.0  0.18910  0.57591  0.98677  1.0000
  H   H332      1.0  0.26562  0.63137  0.98377  1.0000
  Fe  Fe28      1.0  0.21941  0.58550  0.79144  1.0000
  S   S54       1.0  0.23877  0.59975  0.76619  1.0000
  S   S55       1.0  0.21015  0.58307  0.85148  1.0000
  Fe  Fe29      1.0  0.21382  0.58180  0.71670  1.0000
  S   S56       1.0  0.23319  0.59578  0.68641  1.0000
  S   S57       1.0  0.19860  0.57721  0.68252  1.0000
  Fe  Fe30      1.0  0.24179  0.58602  0.73026  1.0000
  S   S58       1.0  0.26206  0.58310  0.71120  1.0000
  Fe  Fe31      1.0  0.22885  0.60833  0.72486  1.0000
  S   S59       1.0  0.22950  0.62951  0.70618  1.0000
  S   S60       1.0  0.22273  0.57089  0.75815  1.0000
  S   S61       1.0  0.20923  0.59513  0.75269  1.0000
  H   H333      1.0  0.18291  0.66546  0.83534  1.0000
  S   S62       1.0  0.25819  0.66804  0.78742  1.0000
  S   S63       1.0  0.22748  0.67910  0.81570  1.0000
  Fe  Fe32      1.0  0.12684  0.55247  0.56388  1.0000
  S   S64       1.0  0.12417  0.54186  0.62224  1.0000
  S   S65       1.0  0.12426  0.57251  0.54858  1.0000
  Fe  Fe33      1.0  0.13228  0.53032  0.53239  1.0000
  S   S66       1.0  0.13036  0.51773  0.58927  1.0000
  C   C192      1.0  0.00969  0.59710  0.72986  1.0000
  Fe  Fe34      1.0  0.11254  0.52497  0.60658  1.0000
  S   S67       1.0  0.09314  0.51726  0.64955  1.0000
  Fe  Fe35      1.0  0.14213  0.53570  0.60142  1.0000
  S   S68       1.0  0.15756  0.53494  0.63582  1.0000
  S   S69       1.0  0.11391  0.53637  0.54945  1.0000
  S   S70       1.0  0.14542  0.54748  0.54351  1.0000
  Fe  Fe36      1.0  0.15618  0.64540  0.67791  1.0000
  S   S71       1.0  0.16110  0.63516  0.63319  1.0000
  S   S72       1.0  0.17176  0.64813  0.71135  1.0000
  Fe  Fe37      1.0  0.12765  0.64115  0.67051  1.0000
  S   S73       1.0  0.13090  0.63086  0.62555  1.0000
  S   S74       1.0  0.10730  0.64391  0.68767  1.0000
  Fe  Fe38      1.0  0.14200  0.62083  0.66007  1.0000
  S   S75       1.0  0.14069  0.59956  0.67014  1.0000
  Fe  Fe39      1.0  0.14961  0.64608  0.60153  1.0000
  C   C193      1.0  0.26474  0.64198  0.92995  1.0000
  S   S76       1.0  0.13756  0.63003  0.70697  1.0000
  S   S77       1.0  0.14588  0.65759  0.64429  1.0000
  H   H334      1.0  0.09317  0.54374  0.64919  1.0000
  Fe  Fe40      1.0  0.03251  0.56646  0.86787  1.0000
  H   H335      1.0  0.25814  0.74171  0.87732  1.0000
  Fe  Fe41      1.0  0.04132  0.55792  0.79715  1.0000
  S   S78       1.0  0.03267  0.57145  0.76324  1.0000
  S   S79       1.0  0.05077  0.54405  0.77198  1.0000
  Fe  Fe42      1.0  0.04127  0.58584  0.79262  1.0000
  S   S80       1.0  0.05028  0.60630  0.75674  1.0000
  S   S81       1.0  0.05121  0.57274  0.82336  1.0000
  C   C194      1.0  0.03401  0.58205  0.95804  1.0000
  H   H336      1.0  0.03684  0.50024  0.81619  1.0000
  H   H337      1.0  0.28423  0.67289  0.89983  1.0000
  H   H338      1.0  0.03453  0.58752  0.93069  1.0000
  H   H339      1.0  0.14414  0.68140  0.93637  1.0000
  C   C195      1.0  0.02169  0.51943  0.72490  1.0000
  C   C196      1.0  0.03341  0.51626  0.72729  1.0000
  C   C197      1.0  0.04247  0.52393  0.74125  1.0000
  C   C198      1.0  0.03966  0.53459  0.75360  1.0000
  C   C199      1.0  0.02803  0.53783  0.75050  1.0000
  C   C200      1.0  0.01929  0.53053  0.73504  1.0000
  H   H340      1.0  0.07150  0.60761  0.56408  1.0000
  H   H341      1.0  0.05151  0.52145  0.74292  1.0000
  H   H342      1.0  0.02565  0.54590  0.76021  1.0000
  H   H343      1.0  0.01032  0.53311  0.73273  1.0000
  C   C201      1.0  0.09196  0.63252  0.70790  1.0000
  C   C202      1.0  0.09033  0.61976  0.72814  1.0000
  C   C203      1.0  0.07765  0.61139  0.74361  1.0000
  C   C204      1.0  0.06661  0.61582  0.73893  1.0000
  C   C205      1.0  0.06840  0.62849  0.71852  1.0000
  C   C206      1.0  0.08089  0.63674  0.70342  1.0000
  H   H344      1.0  0.09881  0.61642  0.73219  1.0000
  H   H345      1.0  0.07641  0.60163  0.75942  1.0000
  H   H346      1.0  0.06002  0.63206  0.71472  1.0000
  H   H347      1.0  0.08197  0.64656  0.68819  1.0000
  Fe  Fe43      1.0  0.32859  0.59573  0.78755  1.0000
  H   H348      1.0  0.15308  0.60195  0.54187  1.0000
  H   H349      1.0  0.09777  0.57817  0.55140  1.0000
  C   C207      1.0  0.28232  0.73626  0.81221  1.0000
  H   H350      1.0  0.06410  0.53880  0.95763  1.0000
  S   S82       1.0  0.00954  0.50922  0.71184  1.0000
  C   C208      1.0  0.19548  0.54810  0.90710  1.0000
  H   H351      1.0  0.04321  0.61574  0.64610  1.0000
  H   H352      1.0  0.27518  0.69144  0.86847  1.0000
  H   H353      1.0  0.01885  0.57749  0.70360  1.0000
  C   C209      1.0  0.12953  0.58059  0.58043  1.0000
  C   C210      1.0  0.13719  0.57561  0.60224  1.0000
  C   C211      1.0  0.14060  0.58150  0.62975  1.0000
  C   C212      1.0  0.13670  0.59263  0.63470  1.0000
  C   C213      1.0  0.12951  0.59793  0.61174  1.0000
  C   C214      1.0  0.12581  0.59186  0.58478  1.0000
  H   H354      1.0  0.14055  0.56722  0.59795  1.0000
  H   H355      1.0  0.14632  0.57745  0.64708  1.0000
  H   H356      1.0  0.12652  0.60649  0.61529  1.0000
  H   H357      1.0  0.12003  0.59583  0.56759  1.0000
  H   H358      1.0  0.13303  0.63595  0.54501  1.0000
  H   H359      1.0  0.29224  0.61707  0.93254  1.0000
  C   C215      1.0  0.20015  0.68242  0.73326  1.0000
  C   C216      1.0  0.19106  0.68477  0.71251  1.0000
  C   C217      1.0  0.18210  0.67445  0.70618  1.0000
  C   C218      1.0  0.18228  0.66162  0.71993  1.0000
  C   C219      1.0  0.19128  0.65928  0.74098  1.0000
  C   C220      1.0  0.20018  0.66957  0.74755  1.0000
  H   H360      1.0  0.17517  0.67645  0.69028  1.0000
  H   H361      1.0  0.19137  0.64942  0.75226  1.0000
  H   H362      1.0  0.20707  0.66755  0.76361  1.0000
  C   C221      1.0  0.23697  0.63970  0.73090  1.0000
  C   C222      1.0  0.24720  0.63702  0.74584  1.0000
  C   C223      1.0  0.25365  0.64575  0.76326  1.0000
  C   C224      1.0  0.24981  0.65710  0.76616  1.0000
  C   C225      1.0  0.23940  0.65966  0.75182  1.0000
  C   C226      1.0  0.23299  0.65097  0.73422  1.0000
  H   H363      1.0  0.25040  0.62843  0.74288  1.0000
  H   H364      1.0  0.26175  0.64386  0.77396  1.0000
  H   H365      1.0  0.23642  0.66842  0.75373  1.0000
  H   H366      1.0  0.22496  0.65301  0.72317  1.0000
  C   C227      1.0  0.18667  0.56524  0.67179  1.0000
  C   C228      1.0  0.18447  0.55191  0.68641  1.0000
  C   C229      1.0  0.17546  0.54287  0.67539  1.0000
  C   C230      1.0  0.16836  0.54694  0.64991  1.0000
  C   C231      1.0  0.17046  0.56028  0.63560  1.0000
  C   C232      1.0  0.17957  0.56931  0.64632  1.0000
  H   H367      1.0  0.18982  0.54853  0.70586  1.0000
  H   H368      1.0  0.17400  0.53260  0.68663  1.0000
  H   H369      1.0  0.16517  0.56365  0.61594  1.0000
  H   H370      1.0  0.18118  0.57954  0.63443  1.0000
  C   C233      1.0  0.27435  0.58501  0.73636  1.0000
  C   C234      1.0  0.27123  0.58179  0.77486  1.0000
  C   C235      1.0  0.28120  0.58294  0.79396  1.0000
  C   C236      1.0  0.29438  0.58777  0.77511  1.0000
  C   C237      1.0  0.28756  0.58934  0.71737  1.0000
  H   H371      1.0  0.26116  0.57820  0.78991  1.0000
  H   H372      1.0  0.27866  0.58017  0.82361  1.0000
  H   H373      1.0  0.29011  0.59170  0.68761  1.0000
  C   C238      1.0  0.30009  0.65007  0.85190  1.0000
  H   H374      1.0  0.01658  0.50312  0.80035  1.0000
  H   H375      1.0  0.27937  0.60594  0.89930  1.0000
  C   C239      1.0  0.22075  0.58286  0.88113  1.0000
  C   C240      1.0  0.23022  0.57592  0.87746  1.0000
  C   C241      1.0  0.23735  0.57427  0.90438  1.0000
  H   H376      1.0  0.08701  0.59824  0.58966  1.0000
  H   H377      1.0  0.29234  0.62817  0.78015  1.0000
  H   H378      1.0  0.23161  0.57130  0.85482  1.0000
  H   H379      1.0  0.24416  0.56830  0.90239  1.0000
  C   C242      1.0  0.27608  0.67106  0.88602  1.0000
  H   H380      1.0  0.18726  0.65772  0.89941  1.0000
  C   C243      1.0  0.27369  0.58663  0.89381  1.0000
  H   H381      1.0  0.09578  0.59500  0.70971  1.0000
  H   H382      1.0  0.22940  0.55524  0.70529  1.0000
  H   H383      1.0  0.21942  0.55518  0.98086  1.0000
  H   H384      1.0  0.04916  0.60627  0.68012  1.0000
  H   H385      1.0  0.28665  0.60526  0.83182  1.0000
  H   H386      1.0  0.24407  0.68458  0.67931  1.0000
  H   H387      1.0  0.00223  0.51331  0.94315  1.0000
  H   H388      1.0  0.24043  0.71104  0.89209  1.0000
  H   H389      1.0  0.20943  0.61796  0.62454  1.0000
  S   S83       1.0  0.24354  0.57647  0.96942  1.0000
  H   H390      1.0  0.27325  0.73511  0.90185  1.0000
  C   C244      1.0  0.04675  0.50521  0.93347  1.0000
  C   C245      1.0  0.05962  0.52173  0.60228  1.0000
  H   H391      1.0  0.00563  0.52362  0.97378  1.0000
  C   C246      1.0  0.21223  0.55155  0.60326  1.0000
  C   C247      1.0  0.15547  0.61261  0.53236  1.0000
  C   C248      1.0  0.21373  0.62587  0.63656  1.0000
  H   H392      1.0  0.22355  0.54330  0.65956  1.0000
  C   C249      1.0  0.21603  0.57525  0.59027  1.0000
  H   H393      1.0  0.26270  0.60083  0.89665  1.0000
  C   C250      1.0  0.23708  0.55454  0.68249  1.0000
  H   H394      1.0  0.29375  0.68100  0.81730  1.0000
  H   H395      1.0  0.06471  0.49900  0.77172  1.0000
  Fe  Fe44      1.0  0.25172  0.71353  0.78533  1.0000
  H   H396      1.0  0.01112  0.60405  0.82005  1.0000
  H   H397      1.0  0.26708  0.61007  0.77591  1.0000
  H   H398      1.0  0.15728  0.61498  0.58642  1.0000
  H   H399      1.0  0.19704  0.68259  0.89977  1.0000
  H   H400      1.0  0.24312  0.57093  0.57535  1.0000
  C   C251      1.0  0.19506  0.68910  0.87636  1.0000
  H   H401      1.0  0.23217  0.69257  0.66532  1.0000
  C   C252      1.0  0.01360  0.58269  0.68593  1.0000
  H   H402      1.0  0.22722  0.67840  0.70334  1.0000
  H   H403      1.0  0.03193  0.61904  0.81614  1.0000
  H   H404      1.0  0.23923  0.55114  0.62834  1.0000
  H   H405      1.0  0.08280  0.62337  0.54589  1.0000
  C   C253      1.0  0.28150  0.62543  0.78903  1.0000
  C   C254      1.0  0.03264  0.56866  0.96469  1.0000
  C   C255      1.0  0.08974  0.60902  0.58143  1.0000
  H   H406      1.0  0.02490  0.50825  0.59207  1.0000
  C   C256      1.0  0.10064  0.59230  0.68503  1.0000
  H   H407      1.0  0.20523  0.56307  0.94778  1.0000
  C   C257      1.0  0.31447  0.57768  0.92871  1.0000
  H   H408      1.0  0.24514  0.56354  0.67456  1.0000
  C   C258      1.0  0.27734  0.61568  0.76600  1.0000
  H   H409      1.0  0.06425  0.62007  0.60046  1.0000
  C   C259      1.0  0.22392  0.58864  0.59244  1.0000
  H   H410      1.0  0.18728  0.53759  0.60380  1.0000
  C   C260      1.0  0.29122  0.68843  0.83169  1.0000
  N   N12       1.0  0.26318  0.66587  0.91402  1.0000
  C   C261      1.0  0.12593  0.50867  0.69731  1.0000
  H   H411      1.0  0.16409  0.68938  0.76291  1.0000
  H   H412      1.0  0.27668  0.61512  0.70990  1.0000
  H   H413      1.0  0.14699  0.66589  0.93277  1.0000
  C   C262      1.0  0.21894  0.58873  0.91077  1.0000
  H   H414      1.0  0.25326  0.61846  0.80439  1.0000
  H   H415      1.0  0.20641  0.57310  0.60987  1.0000
  C   C263      1.0  0.02281  0.52094  0.93893  1.0000
  H   H416      1.0  0.25172  0.66993  0.87460  1.0000
  H   H417      1.0  0.09795  0.59087  0.63148  1.0000
  H   H418      1.0  0.23358  0.57292  0.63239  1.0000
  C   C264      1.0  0.23200  0.67428  0.64933  1.0000
  H   H419      1.0  0.23813  0.67824  0.51064  1.0000
  H   H420      1.0  0.21747  0.56395  0.65629  1.0000
  H   H421      1.0  0.22124  0.66052  0.56478  1.0000
  H   H422      1.0  0.23907  0.67926  0.62266  1.0000
  H   H423      1.0  0.24963  0.74514  0.93597  1.0000
  H   H424      1.0  0.28372  0.58595  0.88263  1.0000
  H   H425      1.0  0.22340  0.58886  0.62165  1.0000
  H   H426      1.0  0.06981  0.59924  0.63553  1.0000
  H   H427      1.0  0.09939  0.56673  0.52352  1.0000
  H   H428      1.0  0.30919  0.64676  0.84780  1.0000
  H   H429      1.0  0.13075  0.50202  0.71228  1.0000
  C   C265      1.0  0.22411  0.66696  0.58273  1.0000
  C   C266      1.0  0.27016  0.68289  0.95043  1.0000
  H   H430      1.0  0.06090  0.51649  0.80013  1.0000
  N   N13       1.0  0.17226  0.60513  0.74260  1.0000
  C   C267      1.0  0.16997  0.60606  0.70449  1.0000
  C   C268      1.0  0.16105  0.60788  0.76757  1.0000
  C   C269      1.0  0.18448  0.61549  0.73953  1.0000
  C   C270      1.0  0.17456  0.59218  0.75824  1.0000
  C   C271      1.0  0.16333  0.58005  0.76360  1.0000
  C   C272      1.0  0.18024  0.60266  0.67636  1.0000
  C   C273      1.0  0.18662  0.61880  0.77626  1.0000
  C   C274      1.0  0.14714  0.60279  0.76256  1.0000
  C   C275      1.0  0.13681  0.60466  0.79299  1.0000
  C   C276      1.0  0.16785  0.56763  0.77229  1.0000
  C   C277      1.0  0.17839  0.60637  0.63734  1.0000
  C   C278      1.0  0.20059  0.62641  0.77216  1.0000
  H   H431      1.0  0.16897  0.61595  0.69301  1.0000
  H   H432      1.0  0.16069  0.59933  0.70519  1.0000
  H   H433      1.0  0.16103  0.60420  0.79693  1.0000
  H   H434      1.0  0.16231  0.61857  0.76306  1.0000
  H   H435      1.0  0.18458  0.62480  0.72084  1.0000
  H   H436      1.0  0.19329  0.61275  0.72677  1.0000
  H   H437      1.0  0.18337  0.59082  0.74064  1.0000
  H   H438      1.0  0.17682  0.59185  0.78554  1.0000
  H   H439      1.0  0.15949  0.58007  0.73867  1.0000
  H   H440      1.0  0.15539  0.57955  0.78739  1.0000
  H   H441      1.0  0.19024  0.60759  0.67616  1.0000
  H   H442      1.0  0.17920  0.59205  0.68347  1.0000
  H   H443      1.0  0.18448  0.61000  0.79890  1.0000
  H   H444      1.0  0.18013  0.62491  0.78489  1.0000
  H   H445      1.0  0.14619  0.60833  0.73605  1.0000
  H   H446      1.0  0.14480  0.59245  0.76212  1.0000
  H   H447      1.0  0.13848  0.61507  0.79339  1.0000
  H   H448      1.0  0.12704  0.60140  0.78780  1.0000
  H   H449      1.0  0.13694  0.59887  0.82023  1.0000
  H   H450      1.0  0.17555  0.56735  0.74886  1.0000
  H   H451      1.0  0.17170  0.56700  0.79738  1.0000
  H   H452      1.0  0.15954  0.55905  0.77697  1.0000
  H   H453      1.0  0.17937  0.61695  0.62872  1.0000
  H   H454      1.0  0.18590  0.60384  0.61788  1.0000
  H   H455      1.0  0.16865  0.60101  0.63581  1.0000
  H   H456      1.0  0.20127  0.63059  0.79630  1.0000
  H   H457      1.0  0.20722  0.61991  0.77079  1.0000
  H   H458      1.0  0.20393  0.63443  0.74684  1.0000
  N   N14       1.0  0.07026  0.55159  0.64271  1.0000
  C   C279      1.0  0.06816  0.53789  0.63792  1.0000
  C   C280      1.0  0.07789  0.55281  0.67172  1.0000
  C   C281      1.0  0.05703  0.55362  0.65726  1.0000
  C   C282      1.0  0.07685  0.56178  0.60719  1.0000
  C   C283      1.0  0.08673  0.55822  0.57809  1.0000
  C   C284      1.0  0.99606  0.61725  0.70085  1.0000
  C   C285      1.0  0.05695  0.56654  0.66883  1.0000
  C   C286      1.0  0.09218  0.55197  0.66151  1.0000
  C   C287      1.0  0.09782  0.55029  0.69542  1.0000
  C   C288      1.0  0.09243  0.56952  0.54401  1.0000
  H   H459      1.0  0.24932  0.72463  0.93075  1.0000
  C   C289      1.0  0.04374  0.56962  0.67083  1.0000
  H   H460      1.0  0.06437  0.53083  0.66527  1.0000
  H   H461      1.0  0.07747  0.53582  0.62624  1.0000
  H   H462      1.0  0.07856  0.56231  0.67893  1.0000
  H   H463      1.0  0.07267  0.54535  0.69778  1.0000
  H   H464      1.0  0.05142  0.54559  0.68145  1.0000
  H   H465      1.0  0.05117  0.55319  0.63632  1.0000
  H   H466      1.0  0.06949  0.56463  0.59273  1.0000
  H   H467      1.0  0.08203  0.57083  0.61322  1.0000
  H   H468      1.0  0.08198  0.54984  0.56867  1.0000
  H   H469      1.0  0.09489  0.55571  0.58895  1.0000
  C   C290      1.0  0.29249  0.74324  0.82462  1.0000
  H   H470      1.0  0.05992  0.54200  0.58936  1.0000
  H   H471      1.0  0.06440  0.57481  0.64920  1.0000
  H   H472      1.0  0.05892  0.56579  0.69662  1.0000
  H   H473      1.0  0.07228  0.52345  0.75601  1.0000
  H   H474      1.0  0.09826  0.56109  0.64165  1.0000
  H   H475      1.0  0.11105  0.59770  0.67696  1.0000
  H   H476      1.0  0.10006  0.58177  0.69245  1.0000
  H   H477      1.0  0.10831  0.55067  0.68688  1.0000
  C   C291      1.0  0.30567  0.60484  0.93980  1.0000
  H   H478      1.0  0.31872  0.58817  0.91664  1.0000
  H   H479      1.0  0.08556  0.50884  0.72840  1.0000
  H   H480      1.0  0.01738  0.51799  0.61841  1.0000
  H   H481      1.0  0.15182  0.58495  0.50908  1.0000
  H   H482      1.0  0.25472  0.63648  0.93133  1.0000
  H   H483      1.0  0.27463  0.56817  0.98115  1.0000
  H   H484      1.0  0.03591  0.56155  0.69026  1.0000
  H   H485      1.0  0.04385  0.57858  0.68073  1.0000
  H   H486      1.0  0.16749  0.59311  0.51451  1.0000
  H   H487      1.0  0.27374  0.62963  0.72216  1.0000
  C   C292      1.0  0.25224  0.61553  0.83440  1.0000
  C   C293      1.0  0.19697  0.55511  0.96612  1.0000
  S   S84       1.0  0.23017  0.71007  0.80960  1.0000
  C   C294      1.0  0.27962  0.62244  0.72545  1.0000
  H   H488      1.0  0.16610  0.69270  0.89827  1.0000
  C   C295      1.0  0.09398  0.59529  0.65365  1.0000
  H   H489      1.0  0.24008  0.62883  0.84322  1.0000
  H   H490      1.0  0.23133  0.61267  0.84445  1.0000
  H   H491      1.0  0.20807  0.59800  0.59057  1.0000
  N   N15       1.0  0.04653  0.52770  0.94759  1.0000
  C   C296      1.0  0.04997  0.53435  0.90711  1.0000
  H   H492      1.0  0.20325  0.53859  0.94881  1.0000
  H   H493      1.0  0.01233  0.51764  0.84332  1.0000
  C   C297      1.0  0.05337  0.53704  0.96672  1.0000
  H   H494      1.0  0.09277  0.54074  0.71475  1.0000
  C   C298      1.0  0.06462  0.53784  0.88739  1.0000
  C   C299      1.0  0.00812  0.61318  0.76654  1.0000
  C   C300      1.0  0.06813  0.50343  0.68255  1.0000
  H   H495      1.0  0.21354  0.54898  0.54723  1.0000
  H   H496      1.0  0.29558  0.64788  0.88184  1.0000
  C   C301      1.0  0.06670  0.54235  0.84576  1.0000
  H   H497      1.0  0.29008  0.62741  0.71359  1.0000
  H   H498      1.0  0.04674  0.54350  0.90314  1.0000
  H   H499      1.0  0.04458  0.52851  0.89142  1.0000
  C   C302      1.0  0.05110  0.51546  0.95482  1.0000
  H   H500      1.0  0.12209  0.62910  0.49775  1.0000
  H   H501      1.0  0.25540  0.65476  0.87800  1.0000
  H   H502      1.0  0.05290  0.51963  0.58433  1.0000
  C   C303      1.0  0.05842  0.53414  0.61429  1.0000
  C   C304      1.0  0.08671  0.60897  0.51723  1.0000
  H   H503      1.0  0.16568  0.62906  0.54961  1.0000
  H   H504      1.0  0.23495  0.66261  0.93197  1.0000
  H   H505      1.0  0.07019  0.54586  0.89675  1.0000
  H   H506      1.0  0.06880  0.52939  0.89257  1.0000
  H   H507      1.0  0.21649  0.54315  0.60918  1.0000
  H   H508      1.0  0.23444  0.66516  0.66045  1.0000
  H   H509      1.0  0.02338  0.52953  0.91686  1.0000
  H   H510      1.0  0.04779  0.50952  0.90399  1.0000
  H   H511      1.0  0.02067  0.59096  0.66504  1.0000
  H   H512      1.0  0.14614  0.61551  0.53635  1.0000
  H   H513      1.0  0.01683  0.60533  0.70883  1.0000
  H   H514      1.0  0.30971  0.56031  0.90797  1.0000
  H   H515      1.0  0.06286  0.55095  0.83869  1.0000
  H   H516      1.0  0.07725  0.54503  0.83232  1.0000
  H   H517      1.0  0.06172  0.53447  0.83476  1.0000
  H   H518      1.0  0.21107  0.66791  0.67217  1.0000
  H   H519      1.0  0.20387  0.66691  0.87958  1.0000
  C   C305      1.0  0.27823  0.74233  0.78229  1.0000
  C   C306      1.0  0.22593  0.68089  0.55978  1.0000
  C   C307      1.0  0.19579  0.67418  0.61196  1.0000
  C   C308      1.0  0.18211  0.67156  0.60532  1.0000
  C   C309      1.0  0.23886  0.65525  0.92016  1.0000
  H   H520      1.0  0.23383  0.66571  0.58584  1.0000
  H   H521      1.0  0.21636  0.68146  0.63425  1.0000
  H   H522      1.0  0.22659  0.68816  0.57652  1.0000
  H   H523      1.0  0.21772  0.68117  0.54640  1.0000
  H   H524      1.0  0.19523  0.67768  0.63744  1.0000
  H   H525      1.0  0.20213  0.68218  0.58918  1.0000
  H   H526      1.0  0.17870  0.68056  0.60285  1.0000
  H   H527      1.0  0.18199  0.66824  0.57957  1.0000
  H   H528      1.0  0.17526  0.66405  0.62883  1.0000
  H   H529      1.0  0.26438  0.63371  0.83458  1.0000
  H   H530      1.0  0.23432  0.59064  0.57812  1.0000
  H   H531      1.0  0.28342  0.62660  0.87697  1.0000
  H   H532      1.0  0.19910  0.65734  0.59284  1.0000
  N   N16       1.0  0.08774  0.61451  0.61483  1.0000
  C   C310      1.0  0.09155  0.62920  0.60465  1.0000
  C   C311      1.0  0.07385  0.60926  0.63785  1.0000
  C   C312      1.0  0.09653  0.61017  0.63835  1.0000
  H   H533      1.0  0.02327  0.60391  0.78107  1.0000
  H   H534      1.0  0.20444  0.69280  0.85503  1.0000
  C   C313      1.0  0.10477  0.63579  0.57645  1.0000
  C   C314      1.0  0.06390  0.61721  0.63016  1.0000
  H   H535      1.0  0.06525  0.50001  0.92148  1.0000
  C   C315      1.0  0.10912  0.65022  0.57510  1.0000
  H   H536      1.0  0.09155  0.63287  0.63002  1.0000
  H   H537      1.0  0.08442  0.63328  0.59209  1.0000
  N   N17       1.0  0.21457  0.66281  0.61989  1.0000
  H   H538      1.0  0.09605  0.61482  0.66192  1.0000
  H   H539      1.0  0.10685  0.61347  0.62297  1.0000
  H   H540      1.0  0.05693  0.51339  0.62664  1.0000
  C   C316      1.0  0.23394  0.68300  0.67590  1.0000
  H   H541      1.0  0.20412  0.55022  0.62770  1.0000
  H   H542      1.0  0.11255  0.63136  0.58296  1.0000
  H   H543      1.0  0.10399  0.63489  0.54839  1.0000
  H   H544      1.0  0.06601  0.62617  0.64037  1.0000
  H   H545      1.0  0.30912  0.62498  0.91088  1.0000
  H   H546      1.0  0.27107  0.58269  0.92408  1.0000
  H   H547      1.0  0.11065  0.65159  0.60224  1.0000
  H   H548      1.0  0.11849  0.65467  0.55423  1.0000
  H   H549      1.0  0.10177  0.65529  0.56749  1.0000
  H   H550      1.0  0.19086  0.69466  0.70155  1.0000
  C   C317      1.0  0.20072  0.66168  0.61630  1.0000
  H   H551      1.0  0.16747  0.66579  0.88511  1.0000
  S   S85       1.0  0.15778  0.65395  0.53937  1.0000
  S   S86       1.0  0.02357  0.55034  0.84372  1.0000
  S   S87       1.0  0.02293  0.58045  0.83857  1.0000
  H   H552      1.0  0.27084  0.68129  0.83809  1.0000
  C   C318      1.0  0.29753  0.59087  0.73658  1.0000
  Fe  Fe45      1.0  0.01529  0.56469  0.81121  1.0000
  H   H553      1.0  0.20181  0.55789  0.56120  1.0000
  S   S88       1.0  0.03173  0.56000  0.92946  1.0000
  C   C319      1.0  0.00869  0.51598  0.96129  1.0000
  C   C320      1.0  0.21787  0.67176  0.64439  1.0000
  H   H554      1.0  0.29837  0.69095  0.84818  1.0000
  H   H555      1.0  0.27807  0.66373  0.87066  1.0000
  H   H556      1.0  0.18383  0.69707  0.91634  1.0000
  S   S89       1.0  0.30623  0.59060  0.80135  1.0000
  H   H557      1.0  0.18970  0.70783  0.87057  1.0000
  H   H558      1.0  0.04156  0.57120  0.64325  1.0000
  C   C321      1.0  0.19481  0.66194  0.87325  1.0000
  C   C322      1.0  0.07950  0.50402  0.65666  1.0000
  H   H559      1.0  0.04706  0.60093  0.63902  1.0000
  H   H560      1.0  0.22448  0.62763  0.62890  1.0000
  H   H561      1.0  0.30761  0.59456  0.72156  1.0000
  H   H562      1.0  0.17811  0.69833  0.83824  1.0000
  H   H563      1.0  0.20541  0.65454  0.83074  1.0000
  C   C323      1.0  0.22945  0.64969  0.89863  1.0000
  H   H564      1.0  0.08350  0.59039  0.66454  1.0000
  H   H565      1.0  0.20137  0.64428  0.87656  1.0000
  C   C324      1.0  0.01699  0.60973  0.79234  1.0000
  H   H566      1.0  0.27323  0.65765  0.95276  1.0000
  Fe  Fe46      1.0  0.24889  0.68458  0.79126  1.0000
  C   C325      1.0  0.19778  0.65078  0.85693  1.0000
  H   H567      1.0  0.19381  0.65487  0.64143  1.0000
  H   H568      1.0  0.21242  0.71127  0.88057  1.0000
  C   C326      1.0  0.19521  0.53732  0.58095  1.0000
  H   H569      1.0  0.07354  0.60837  0.66770  1.0000
  C   C327      1.0  0.21839  0.59959  0.57581  1.0000
  C   C328      1.0  0.19026  0.67154  0.84588  1.0000
  H   H570      1.0  0.17507  0.67186  0.91754  1.0000
  H   H571      1.0  0.19895  0.52873  0.58949  1.0000
  S   S90       1.0  0.26527  0.73414  0.76568  1.0000
  H   H572      1.0  0.30561  0.60185  0.91355  1.0000
  H   H573      1.0  0.17916  0.67900  0.78941  1.0000
  S   S91       1.0  0.22362  0.68524  0.91061  1.0000
  C   C329      1.0  0.04999  0.60952  0.65012  1.0000
  C   C330      1.0  0.17253  0.67496  0.89082  1.0000
  H   H574      1.0  0.19868  0.67629  0.82172  1.0000
  H   H575      1.0  0.16489  0.67708  0.82417  1.0000
  H   H576      1.0  0.18888  0.64501  0.85159  1.0000
  S   S92       1.0  0.21071  0.69582  0.74207  1.0000
  H   H577      1.0  0.21279  0.64050  0.59182  1.0000
  H   H578      1.0  0.01572  0.59213  0.74533  1.0000
  C   C331      1.0  0.27743  0.68347  0.85623  1.0000
  C   C332      1.0  0.03054  0.50470  0.83363  1.0000
  H   H579      1.0  0.21164  0.59414  0.91363  1.0000
  N   N18       1.0  0.22224  0.56415  0.59825  1.0000
  H   H580      1.0  0.15690  0.68317  0.87459  1.0000
  S   S93       1.0  0.25399  0.69751  0.82850  1.0000
  C   C333      1.0  0.15173  0.67596  0.93306  1.0000
  H   H581      1.0  0.19882  0.63573  0.62997  1.0000
  H   H582      1.0  0.03550  0.50792  0.71829  1.0000
  C   C334      1.0  0.22598  0.56396  0.63458  1.0000
  H   H583      1.0  0.06774  0.51119  0.69633  1.0000
  C   C335      1.0  0.17377  0.68426  0.80634  1.0000
  Fe  Fe47      1.0  0.23245  0.69311  0.84984  1.0000
  Fe  Fe48      1.0  0.22691  0.69614  0.77316  1.0000
  C   C336      1.0  0.21541  0.64947  0.63854  1.0000
  C   C337      1.0  0.20963  0.63812  0.62219  1.0000
  H   H584      1.0  0.12456  0.50577  0.67167  1.0000
  C   C338      1.0  0.24338  0.71499  0.94355  1.0000
  C   C339      1.0  0.08193  0.61280  0.55295  1.0000
  H   H585      1.0  0.27045  0.64384  0.90134  1.0000
  C   C340      1.0  0.19201  0.70065  0.89150  1.0000
  H   H586      1.0  0.27768  0.72619  0.82572  1.0000
  C   C341      1.0  0.20612  0.54982  0.57044  1.0000
  H   H587      1.0  0.21027  0.62266  0.66694  1.0000
  H   H588      1.0  0.29182  0.69728  0.81053  1.0000
  N   N19       1.0  0.18479  0.68169  0.86100  1.0000
  H   H589      1.0  0.01905  0.50249  0.64116  1.0000
  H   H590      1.0  0.10028  0.61174  0.56722  1.0000
  H   H591      1.0  0.14004  0.59895  0.50140  1.0000
  H   H592      1.0  0.25105  0.60492  0.84309  1.0000
  C   C342      1.0  0.20357  0.70783  0.90358  1.0000
  C   C343      1.0  0.00334  0.58740  0.70935  1.0000
  C   C344      1.0  0.23053  0.69473  0.93780  1.0000
  H   H593      1.0  0.21373  0.57641  0.56295  1.0000
  H   H594      1.0  0.22569  0.64936  0.63809  1.0000
  H   H595      1.0  0.13242  0.51864  0.68955  1.0000
  H   H596      1.0  0.24100  0.54624  0.69261  1.0000
  C   C345      1.0  0.19535  0.54356  0.94772  1.0000
  C   C346      1.0  0.23838  0.70724  0.92156  1.0000
  C   C347      1.0  0.23142  0.55243  0.64970  1.0000
  C   C348      1.0  0.16201  0.68263  0.89720  1.0000
  H   H597      1.0  0.00159  0.61845  0.78007  1.0000
  H   H598      1.0  0.19194  0.69628  0.80951  1.0000
  H   H599      1.0  0.26983  0.62382  0.94666  1.0000
  C   C349      1.0  0.18247  0.69078  0.82909  1.0000
  H   H600      1.0  0.05123  0.54668  0.95897  1.0000
  S   S94       1.0  0.24828  0.70083  0.74564  1.0000
  C   C350      1.0  0.23429  0.56537  0.56889  1.0000
  C   C351      1.0  0.27522  0.74130  0.92114  1.0000
  H   H601      1.0  0.21032  0.64685  0.66834  1.0000
  H   H602      1.0  0.28118  0.63786  0.95103  1.0000
  C   C352      1.0  0.13771  0.63978  0.51623  1.0000
  C   C353      1.0  0.27286  0.60070  0.88494  1.0000
  H   H603      1.0  0.01999  0.62802  0.80912  1.0000
  C   C354      1.0  0.26408  0.62333  0.84479  1.0000
  H   H604      1.0  0.22502  0.59208  0.95959  1.0000
  H   H605      1.0  0.30268  0.66074  0.84074  1.0000
  C   C355      1.0  0.23965  0.61838  0.85252  1.0000
  H   H606      1.0  0.03246  0.62761  0.77040  1.0000
  H   H607      1.0  0.15620  0.67575  0.95702  1.0000
  H   H608      1.0  0.26676  0.58060  0.88204  1.0000
  H   H609      1.0  0.26181  0.62160  0.87532  1.0000
  H   H610      1.0  0.27012  0.60050  0.83088  1.0000
  C   C356      1.0  0.23539  0.57992  0.93438  1.0000
  C   C357      1.0  0.25270  0.66154  0.89479  1.0000
  C   C358      1.0  0.27687  0.60668  0.84276  1.0000
  H   H611      1.0  0.21899  0.60016  0.54613  1.0000
  H   H612      1.0  0.24517  0.73825  0.83056  1.0000
  H   H613      1.0  0.23788  0.61562  0.88299  1.0000
  C   C359      1.0  0.29069  0.64348  0.83183  1.0000
  C   C360      1.0  0.02583  0.62190  0.79721  1.0000
  H   H614      1.0  0.03433  0.51541  0.82443  1.0000
  C   C361      1.0  0.31406  0.57090  0.89718  1.0000
  H   H615      1.0  0.29619  0.62532  0.84181  1.0000
  N   N20       1.0  0.27708  0.62082  0.83059  1.0000
  H   H616      1.0  0.20515  0.55454  0.89159  1.0000
  H   H617      1.0  0.22894  0.65741  0.87560  1.0000
  H   H618      1.0  0.16361  0.69940  0.79550  1.0000
  H   H619      1.0  0.30834  0.57499  0.87877  1.0000
  C   C362      1.0  0.28697  0.62849  0.84663  1.0000
  H   H620      1.0  0.28343  0.60869  0.76734  1.0000
  H   H621      1.0  0.28202  0.64742  0.83554  1.0000
  H   H622      1.0  0.23260  0.64185  0.88743  1.0000
  H   H623      1.0  0.00279  0.50715  0.58469  1.0000
  H   H624      1.0  0.99641  0.57878  0.72900  1.0000
  C   C363      1.0  0.30068  0.57482  0.95419  1.0000
  H   H625      1.0  0.08592  0.59838  0.52258  1.0000
  H   H626      1.0  0.29560  0.64640  0.80208  1.0000
  H   H627      1.0  0.06188  0.51783  0.95002  1.0000
  H   H628      1.0  0.03103  0.50141  0.86266  1.0000
  H   H629      1.0  0.21957  0.64560  0.91713  1.0000
  H   H630      1.0  0.32119  0.57400  0.94419  1.0000
  H   H631      1.0  0.27851  0.63442  0.77935  1.0000
  H   H632      1.0  0.25700  0.68366  0.91377  1.0000
  C   C364      1.0  0.22794  0.68989  0.97603  1.0000
  H   H633      1.0  0.09336  0.51266  0.76265  1.0000
  C   C365      1.0  0.00752  0.50706  0.85244  1.0000
  H   H634      1.0  0.19355  0.53960  0.89496  1.0000
  H   H635      1.0  0.26716  0.73787  0.94616  1.0000
  H   H636      1.0  0.07796  0.52231  0.79782  1.0000
  H   H637      1.0  0.19101  0.53623  0.55699  1.0000
  C   C366      1.0  0.22645  0.58751  0.93689  1.0000
  H   H638      1.0  0.29393  0.57669  0.93632  1.0000
  H   H639      1.0  0.03645  0.49983  0.94625  1.0000
  H   H640      1.0  0.22406  0.60897  0.57861  1.0000
  H   H641      1.0  0.09684  0.55813  0.70977  1.0000
  C   C367      1.0  0.29558  0.59447  0.97181  1.0000
  H   H642      1.0  0.23584  0.58275  0.52598  1.0000
  C   C368      1.0  0.16321  0.61830  0.55760  1.0000
  N   N21       1.0  0.00040  0.60193  0.75547  1.0000
  H   H643      1.0  0.24705  0.68550  0.54039  1.0000
  H   H644      1.0  0.32408  0.57233  0.88064  1.0000
  C   C369      1.0  0.30234  0.61796  0.93560  1.0000
  C   C370      1.0  0.25969  0.67610  0.93291  1.0000
  C   C371      1.0  0.26436  0.65471  0.94254  1.0000
  H   H645      1.0  0.22577  0.56839  0.52021  1.0000
  H   H646      1.0  0.00781  0.50398  0.88185  1.0000
  H   H647      1.0  0.27937  0.68792  0.92954  1.0000
  H   H648      1.0  0.11061  0.49846  0.80000  1.0000
  C   C372      1.0  0.23834  0.68509  0.52884  1.0000
  H   H649      1.0  0.01452  0.62048  0.74165  1.0000
  C   C373      1.0  0.16975  0.69429  0.77998  1.0000
  H   H650      1.0  0.30336  0.62183  0.96013  1.0000
  H   H651      1.0  0.20558  0.70141  0.92705  1.0000
  H   H652      1.0  0.31565  0.60643  0.94399  1.0000
  H   H653      1.0  0.00052  0.58653  0.80073  1.0000
  C   C374      1.0  0.08950  0.53529  0.50071  1.0000
  C   C375      1.0  0.01708  0.50792  0.61600  1.0000
  H   H654      1.0  0.29602  0.74244  0.90854  1.0000
  H   H655      1.0  0.18792  0.55344  0.90380  1.0000
  H   H656      1.0  0.28615  0.72875  0.94503  1.0000
  C   C376      1.0  0.14992  0.64863  0.50593  1.0000
  H   H657      1.0  0.00423  0.55434  0.73615  1.0000
  H   H658      1.0  0.06971  0.52273  0.58674  1.0000
  H   H659      1.0  0.28649  0.59269  0.96199  1.0000
  H   H660      1.0  0.29558  0.73839  0.84760  1.0000
  H   H661      1.0  0.23599  0.55562  0.56881  1.0000
  H   H662      1.0  0.10896  0.51587  0.70587  1.0000
  C   C377      1.0  0.23471  0.57220  0.52878  1.0000
  C   C378      1.0  0.28753  0.73922  0.93268  1.0000
  H   H663      1.0  0.02529  0.51329  0.92573  1.0000
  H   H664      1.0  0.23879  0.64730  0.94331  1.0000
  H   H665      1.0  0.08465  0.57204  0.53106  1.0000
  H   H666      1.0  0.24532  0.56022  0.50187  1.0000
  H   H667      1.0  0.25077  0.67179  0.95563  1.0000
  H   H668      1.0  0.23915  0.69490  0.51198  1.0000
  H   H669      1.0  0.09524  0.52792  0.50251  1.0000
  H   H670      1.0  0.17851  0.70149  0.76127  1.0000
  H   H671      1.0  0.17228  0.61501  0.55640  1.0000
  H   H672      1.0  0.00879  0.57583  0.67152  1.0000
  H   H673      1.0  0.07901  0.53012  0.50942  1.0000
  H   H674      1.0  0.32849  0.53632  0.82549  1.0000
  H   H675      1.0  0.04828  0.53232  0.63068  1.0000
  C   C379      1.0  0.03204  0.52490  0.96363  1.0000
  H   H676      1.0  0.09164  0.54150  0.51978  1.0000
  H   H677      1.0  0.09710  0.50510  0.81540  1.0000
  H   H678      1.0  0.27220  0.67575  0.97217  1.0000
  H   H679      1.0  0.02950  0.53362  0.97128  1.0000
  H   H680      1.0  0.25554  0.57469  0.50833  1.0000
  C   C380      1.0  0.13158  0.63590  0.48930  1.0000
  C   C381      1.0  0.27072  0.63325  0.95438  1.0000
  H   H681      1.0  0.28959  0.74470  0.95351  1.0000
  H   H682      1.0  0.20132  0.71638  0.91273  1.0000
  H   H683      1.0  0.10581  0.49614  0.86679  1.0000
  C   C382      1.0  0.11288  0.50848  0.72148  1.0000
  H   H684      1.0  0.18807  0.55860  0.96531  1.0000
  C   C383      1.0  0.07089  0.51738  0.78415  1.0000
  H   H685      1.0  0.09701  0.61435  0.50413  1.0000
  H   H686      1.0  0.00149  0.51892  0.79719  1.0000
  H   H687      1.0  0.18583  0.53650  0.96131  1.0000
  C   C384      1.0  0.16304  0.61775  0.49130  1.0000
  H   H688      1.0  0.08073  0.61143  0.49757  1.0000
  H   H689      1.0  0.29772  0.56412  0.96585  1.0000
  H   H690      1.0  0.00313  0.61452  0.68065  1.0000
  H   H691      1.0  0.25624  0.65221  0.96746  1.0000
  H   H692      1.0  0.11475  0.51159  0.74629  1.0000
  H   H693      1.0  0.26386  0.70077  0.94742  1.0000
  H   H694      1.0  0.16736  0.57102  0.51280  1.0000
  H   H695      1.0  0.03560  0.59875  0.98149  1.0000
  C   C385      1.0  0.08609  0.50492  0.75707  1.0000
  H   H696      1.0  0.11874  0.58978  0.48796  1.0000
  C   C386      1.0  0.01656  0.50052  0.82993  1.0000
  C   C387      1.0  0.26559  0.69309  0.96832  1.0000
  H   H697      1.0  0.00098  0.52661  0.88314  1.0000
  H   H698      1.0  0.31983  0.59028  0.97710  1.0000
  C   C388      1.0  0.16225  0.58908  0.49527  1.0000
  H   H699      1.0  0.17350  0.61809  0.48936  1.0000
  C   C389      1.0  0.24625  0.57063  0.50150  1.0000
  C   C390      1.0  0.07273  0.50392  0.78252  1.0000
  C   C391      1.0  0.00386  0.50137  0.61063  1.0000
  H   H700      1.0  0.99801  0.59194  0.69061  1.0000
  H   H701      1.0  0.00106  0.62639  0.70660  1.0000
  C   C392      1.0  0.10026  0.49606  0.81503  1.0000
  H   H702      1.0  0.27312  0.69768  0.98123  1.0000
  H   H703      1.0  0.00756  0.50725  0.98355  1.0000
  H   H704      1.0  0.16250  0.62805  0.48457  1.0000
  C   C393      1.0  0.16787  0.57793  0.48667  1.0000
  H   H705      1.0  0.07174  0.49847  0.81106  1.0000
  C   C394      1.0  0.24080  0.71028  0.98179  1.0000
  N   N22       1.0  0.30662  0.77881  0.00623  1.0000
  H   H706      1.0  0.30179  0.80014  0.08727  1.0000
  C   C395      1.0  0.31489  0.75416  0.28052  1.0000
  C   C396      1.0  0.30853  0.78060  0.27393  1.0000
  H   H707      1.0  0.28388  0.77161  0.14550  1.0000
  H   H708      1.0  0.32085  0.76444  0.04767  1.0000
  H   H709      1.0  0.30151  0.78005  0.06305  1.0000
  H   H710      1.0  0.31704  0.78210  0.21677  1.0000
  H   H711      1.0  0.32209  0.76523  0.12275  1.0000
  H   H712      1.0  0.27945  0.76711  0.03303  1.0000
  S   S95       1.0  0.30979  0.78514  0.14478  1.0000
  C   C397      1.0  0.30934  0.79978  0.03030  1.0000
  H   H713      1.0  0.24793  0.75965  0.01784  1.0000
  H   H714      1.0  0.32732  0.77915  0.24703  1.0000
  N   N23       1.0  0.31346  0.76190  0.24471  1.0000
  H   H715      1.0  0.31939  0.80029  0.03342  1.0000
  C   C398      1.0  0.30279  0.80590  0.05906  1.0000
  H   H716      1.0  0.30879  0.81585  0.05608  1.0000
  C   C399      1.0  0.28485  0.75326  0.13277  1.0000
  C   C400      1.0  0.29022  0.76554  0.13834  1.0000
  C   C401      1.0  0.30366  0.76993  0.13521  1.0000
  C   C402      1.0  0.31171  0.76196  0.12587  1.0000
  H   H717      1.0  0.29143  0.78569  0.03592  1.0000
  H   H718      1.0  0.29300  0.80654  0.05537  1.0000
  C   C403      1.0  0.30171  0.78555  0.03507  1.0000
  H   H719      1.0  0.30979  0.80585  0.00302  1.0000
  C   C404      1.0  0.28484  0.76144  0.01763  1.0000
  H   H720      1.0  0.29973  0.76061  0.04762  1.0000
  C   C405      1.0  0.29941  0.76463  0.01874  1.0000
  C   C406      1.0  0.31436  0.79471  0.27371  1.0000
  H   H721      1.0  0.30797  0.79768  0.29518  1.0000
  C   C407      1.0  0.30632  0.74959  0.12109  1.0000
  H   H722      1.0  0.29871  0.78004  0.26867  1.0000
  H   H723      1.0  0.31991  0.76508  0.18610  1.0000
  H   H724      1.0  0.31517  0.80121  0.24656  1.0000
  H   H725      1.0  0.27449  0.74996  0.13563  1.0000
  C   C408      1.0  0.31717  0.77617  0.24398  1.0000
  C   C409      1.0  0.29950  0.75863  0.24153  1.0000
  H   H726      1.0  0.29285  0.75948  0.26651  1.0000
  H   H727      1.0  0.30748  0.77449  0.30178  1.0000
  H   H728      1.0  0.23808  0.76223  0.98527  1.0000
  H   H729      1.0  0.28386  0.76363  0.98886  1.0000
  H   H730      1.0  0.29828  0.76579  0.21800  1.0000
  C   C410      1.0  0.32213  0.76000  0.21135  1.0000
  C   C411      1.0  0.32101  0.77997  0.00113  1.0000
  H   H731      1.0  0.32012  0.74966  0.21037  1.0000
  C   C412      1.0  0.24518  0.75687  0.99330  1.0000
  H   H732      1.0  0.32415  0.79592  0.27953  1.0000
  H   H733      1.0  0.30430  0.75880  0.00238  1.0000
  H   H734      1.0  0.32263  0.75990  0.29071  1.0000
  H   H735      1.0  0.30583  0.75225  0.30246  1.0000
  H   H736      1.0  0.32282  0.78020  0.05768  1.0000
  H   H737      1.0  0.27885  0.75088  0.21127  1.0000
  C   C413      1.0  0.32541  0.77495  0.03633  1.0000
  H   H738      1.0  0.32668  0.79019  0.98856  1.0000
  H   H739      1.0  0.24048  0.74629  0.00105  1.0000
  C   C414      1.0  0.27815  0.74708  0.03473  1.0000
  H   H740      1.0  0.28108  0.76176  0.92004  1.0000
  C   C415      1.0  0.30427  0.78513  0.97013  1.0000
  H   H741      1.0  0.28729  0.77644  0.83983  1.0000
  H   H742      1.0  0.29397  0.78566  0.97367  1.0000
  H   H743      1.0  0.28137  0.76028  0.74203  1.0000
  H   H744      1.0  0.31598  0.86193  0.56318  1.0000
  H   H745      1.0  0.30556  0.78005  0.88182  1.0000
  H   H746      1.0  0.27266  0.77898  0.89767  1.0000
  C   C416      1.0  0.26838  0.77393  0.87849  1.0000
  H   H747      1.0  0.26421  0.75496  0.97211  1.0000
  H   H748      1.0  0.28478  0.75796  0.87708  1.0000
  C   C417      1.0  0.24882  0.75543  0.85261  1.0000
  H   H749      1.0  0.27270  0.79767  0.82790  1.0000
  C   C418      1.0  0.27696  0.75576  0.90249  1.0000
  S   S96       1.0  0.31083  0.76485  0.82644  1.0000
  H   H750      1.0  0.30344  0.76830  0.94482  1.0000
  N   N24       1.0  0.26501  0.75942  0.89366  1.0000
  C   C419      1.0  0.28155  0.79413  0.82913  1.0000
  H   H751      1.0  0.30826  0.79539  0.89414  1.0000
  C   C420      1.0  0.29458  0.76246  0.77768  1.0000
  C   C421      1.0  0.29868  0.75639  0.80757  1.0000
  C   C422      1.0  0.25395  0.75579  0.92759  1.0000
  C   C423      1.0  0.30329  0.78492  0.90439  1.0000
  C   C424      1.0  0.25732  0.76010  0.96183  1.0000
  H   H752      1.0  0.29916  0.77255  0.76429  1.0000
  H   H753      1.0  0.25025  0.76598  0.84177  1.0000
  C   C425      1.0  0.30787  0.77888  0.93757  1.0000
  H   H754      1.0  0.26172  0.77068  0.95544  1.0000
  H   H755      1.0  0.29268  0.78387  0.91188  1.0000
  H   H756      1.0  0.31009  0.79539  0.96050  1.0000
  H   H757      1.0  0.28839  0.79766  0.80149  1.0000
  C   C426      1.0  0.24621  0.74886  0.82189  1.0000
  C   C427      1.0  0.28444  0.75546  0.76517  1.0000
  S   S97       1.0  0.32280  0.80455  0.81079  1.0000
  H   H758      1.0  0.26898  0.75416  0.84148  1.0000
  H   H759      1.0  0.28641  0.79821  0.84902  1.0000
  H   H760      1.0  0.25946  0.77735  0.87692  1.0000
  H   H761      1.0  0.24586  0.76002  0.92155  1.0000
  H   H762      1.0  0.23709  0.75040  0.81472  1.0000
  C   C428      1.0  0.27806  0.77932  0.84009  1.0000
  C   C429      1.0  0.26078  0.75237  0.86587  1.0000
  H   H763      1.0  0.27381  0.77579  0.81847  1.0000
  H   H764      1.0  0.31858  0.78055  0.92874  1.0000
  C   C430      1.0  0.32630  0.86217  0.55197  1.0000
  H   H765      1.0  0.23996  0.75179  0.87560  1.0000
  Fe  Fe49      1.0  0.32606  0.78463  0.81113  1.0000
  H   H766      1.0  0.32746  0.85214  0.55918  1.0000
  H   H767      1.0  0.25430  0.75312  0.79689  1.0000
  H   H768      1.0  0.32861  0.86569  0.52154  1.0000
  H   H769      1.0  0.32882  0.82183  0.96680  1.0000
  H   H770      1.0  0.32430  0.77441  0.98116  1.0000
  Fe  Fe50      1.0  0.46642  0.00483  0.13976  1.0000
  S   S98       1.0  0.47067  0.00310  0.08112  1.0000
  H   H771      1.0  0.65416  0.11679  0.09952  1.0000
  Fe  Fe51      1.0  0.47828  0.03455  0.11862  1.0000
  S   S99       1.0  0.48286  0.03498  0.05803  1.0000
  S   S100      1.0  0.48459  0.05451  0.13114  1.0000
  Fe  Fe52      1.0  0.46346  0.02095  0.06845  1.0000
  H   H772      1.0  0.62038  0.06513  0.08459  1.0000
  Fe  Fe53      1.0  0.48970  0.01721  0.07500  1.0000
  S   S101      1.0  0.50882  0.01549  0.04413  1.0000
  S   S102      1.0  0.45785  0.02195  0.12803  1.0000
  S   S103      1.0  0.48637  0.01748  0.13471  1.0000
  Fe  Fe54      1.0  0.56778  0.04671  0.10296  1.0000
  S   S104      1.0  0.54946  0.05270  0.09961  1.0000
  Fe  Fe55      1.0  0.59326  0.05727  0.12317  1.0000
  S   S105      1.0  0.60296  0.07722  0.13139  1.0000
  S   S106      1.0  0.58676  0.05997  0.07006  1.0000
  Fe  Fe56      1.0  0.51527  0.09836  0.26066  1.0000
  S   S107      1.0  0.52845  0.11339  0.21128  1.0000
  S   S108      1.0  0.50173  0.07901  0.25981  1.0000
  Fe  Fe57      1.0  0.52819  0.11120  0.31616  1.0000
  S   S109      1.0  0.54224  0.12667  0.27018  1.0000
  S   S110      1.0  0.53426  0.11047  0.37070  1.0000
  Fe  Fe58      1.0  0.52555  0.12799  0.24473  1.0000
  S   S111      1.0  0.52406  0.14814  0.21861  1.0000
  Fe  Fe59      1.0  0.54421  0.11120  0.24039  1.0000
  S   S112      1.0  0.56378  0.10964  0.21268  1.0000
  S   S113      1.0  0.51082  0.11319  0.29275  1.0000
  S   S114      1.0  0.53153  0.09547  0.28781  1.0000
  S   S115      1.0  0.61871  0.12848  0.29690  1.0000
  C   C431      1.0  0.45224  0.06715  0.11386  1.0000
  Fe  Fe60      1.0  0.62115  0.14674  0.25469  1.0000
  S   S116      1.0  0.60453  0.15463  0.24265  1.0000
  S   S117      1.0  0.60042  0.03978  0.11307  1.0000
  Fe  Fe61      1.0  0.58103  0.21458  0.12373  1.0000
  H   H773      1.0  0.45388  0.01249  0.21333  1.0000
  S   S118      1.0  0.57041  0.19904  0.17651  1.0000
  S   S119      1.0  0.59037  0.20876  0.07375  1.0000
  C   C432      1.0  0.53779  0.16177  0.20159  1.0000
  C   C433      1.0  0.53616  0.17365  0.18349  1.0000
  C   C434      1.0  0.54652  0.18496  0.17248  1.0000
  C   C435      1.0  0.55860  0.18455  0.17995  1.0000
  C   C436      1.0  0.56035  0.17260  0.19713  1.0000
  C   C437      1.0  0.55007  0.16124  0.20732  1.0000
  H   H774      1.0  0.52672  0.17421  0.17885  1.0000
  H   H775      1.0  0.54492  0.19414  0.16015  1.0000
  H   H776      1.0  0.56956  0.17221  0.20376  1.0000
  H   H777      1.0  0.55157  0.15218  0.22070  1.0000
  C   C438      1.0  0.52868  0.11421  0.41323  1.0000
  C   C439      1.0  0.51722  0.11818  0.42171  1.0000
  C   C440      1.0  0.51316  0.12067  0.45652  1.0000
  H   H778      1.0  0.52265  0.14912  0.39487  1.0000
  C   C441      1.0  0.63897  0.14383  0.47194  1.0000
  C   C442      1.0  0.53601  0.11280  0.43979  1.0000
  H   H779      1.0  0.51141  0.11915  0.40172  1.0000
  H   H780      1.0  0.43431  0.00542  0.10053  1.0000
  C   C443      1.0  0.64162  0.07363  0.06494  1.0000
  H   H781      1.0  0.54484  0.10966  0.43360  1.0000
  C   C444      1.0  0.57550  0.12230  0.21886  1.0000
  C   C445      1.0  0.57308  0.13450  0.21743  1.0000
  C   C446      1.0  0.58217  0.14453  0.22381  1.0000
  C   C447      1.0  0.59365  0.14233  0.23211  1.0000
  C   C448      1.0  0.59626  0.13022  0.23252  1.0000
  C   C449      1.0  0.58719  0.12021  0.22588  1.0000
  H   H782      1.0  0.56422  0.13621  0.21111  1.0000
  H   H783      1.0  0.58016  0.15389  0.22323  1.0000
  H   H784      1.0  0.60520  0.12847  0.23823  1.0000
  H   H785      1.0  0.58917  0.11081  0.22674  1.0000
  C   C450      1.0  0.60864  0.08386  0.16656  1.0000
  C   C451      1.0  0.61113  0.09736  0.16282  1.0000
  C   C452      1.0  0.61684  0.10329  0.18778  1.0000
  C   C453      1.0  0.62043  0.09582  0.21647  1.0000
  C   C454      1.0  0.61763  0.08227  0.22076  1.0000
  C   C455      1.0  0.61165  0.07631  0.19630  1.0000
  H   H786      1.0  0.60877  0.10332  0.14015  1.0000
  H   H787      1.0  0.61883  0.11369  0.18417  1.0000
  H   H788      1.0  0.62027  0.07637  0.24298  1.0000
  H   H789      1.0  0.60969  0.06592  0.19993  1.0000
  C   C456      1.0  0.49100  0.06096  0.16560  1.0000
  C   C457      1.0  0.49465  0.07451  0.16060  1.0000
  C   C458      1.0  0.49858  0.08019  0.18835  1.0000
  C   C459      1.0  0.49872  0.07238  0.22194  1.0000
  C   C460      1.0  0.49530  0.05880  0.22677  1.0000
  C   C461      1.0  0.49165  0.05311  0.19863  1.0000
  H   H790      1.0  0.49422  0.08071  0.13524  1.0000
  H   H791      1.0  0.50107  0.09063  0.18419  1.0000
  H   H792      1.0  0.49531  0.05263  0.25265  1.0000
  H   H793      1.0  0.48889  0.04268  0.20302  1.0000
  C   C462      1.0  0.52053  0.02630  0.05696  1.0000
  C   C463      1.0  0.53355  0.02584  0.04954  1.0000
  C   C464      1.0  0.54265  0.03402  0.06220  1.0000
  C   C465      1.0  0.53870  0.04278  0.08165  1.0000
  C   C466      1.0  0.52583  0.04362  0.08737  1.0000
  C   C467      1.0  0.51675  0.03533  0.07536  1.0000
  C   C468      1.0  0.63922  0.18888  0.29892  1.0000
  H   H794      1.0  0.55270  0.03371  0.05636  1.0000
  H   H795      1.0  0.52280  0.05064  0.10143  1.0000
  H   H796      1.0  0.50688  0.03616  0.07999  1.0000
  C   C469      1.0  0.62461  0.04512  0.17228  1.0000
  C   C470      1.0  0.45870  0.01675  0.23306  1.0000
  H   H797      1.0  0.62952  0.16378  0.14521  1.0000
  H   H798      1.0  0.63102  0.05014  0.11354  1.0000
  H   H799      1.0  0.59433  0.19499  0.23915  1.0000
  H   H800      1.0  0.61479  0.04675  0.17283  1.0000
  H   H801      1.0  0.52256  0.14031  0.30386  1.0000
  H   H802      1.0  0.58022  0.20334  0.99490  1.0000
  H   H803      1.0  0.59863  0.19108  0.99124  1.0000
  C   C471      1.0  0.50348  0.14230  0.32468  1.0000
  N   N25       1.0  0.58634  0.15759  0.10042  1.0000
  H   H804      1.0  0.64630  0.17267  0.13536  1.0000
  C   C472      1.0  0.59005  0.14536  0.11585  1.0000
  C   C473      1.0  0.57242  0.15365  0.09726  1.0000
  C   C474      1.0  0.58719  0.16677  0.12556  1.0000
  C   C475      1.0  0.60044  0.17679  0.11918  1.0000
  C   C476      1.0  0.59240  0.00291  0.03164  1.0000
  H   H805      1.0  0.44909  0.03415  0.19159  1.0000
  C   C477      1.0  0.60387  0.14702  0.12281  1.0000
  C   C478      1.0  0.60735  0.13398  0.13043  1.0000
  C   C479      1.0  0.60014  0.18443  0.14878  1.0000
  H   H806      1.0  0.59408  0.01338  0.01849  1.0000
  H   H807      1.0  0.62265  0.14238  0.44686  1.0000
  C   C480      1.0  0.51051  0.08257  0.47897  1.0000
  H   H808      1.0  0.60509  0.16710  0.06247  1.0000
  H   H809      1.0  0.58346  0.14011  0.14302  1.0000
  H   H810      1.0  0.58879  0.13853  0.09767  1.0000
  C   C481      1.0  0.54834  0.14544  0.12935  1.0000
  H   H811      1.0  0.54633  0.14076  0.10688  1.0000
  H   H812      1.0  0.57988  0.17259  0.12366  1.0000
  H   H813      1.0  0.58449  0.16118  0.15477  1.0000
  H   H814      1.0  0.60273  0.18395  0.09234  1.0000
  H   H815      1.0  0.60859  0.17217  0.11944  1.0000
  C   C482      1.0  0.44817  0.01914  0.98930  1.0000
  H   H816      1.0  0.44699  0.07448  0.12034  1.0000
  H   H817      1.0  0.56360  0.15049  0.15637  1.0000
  S   S120      1.0  0.57556  0.23153  0.09106  1.0000
  H   H818      1.0  0.61150  0.15349  0.09908  1.0000
  H   H819      1.0  0.60423  0.15098  0.14748  1.0000
  H   H820      1.0  0.59972  0.12675  0.15285  1.0000
  H   H821      1.0  0.60841  0.13016  0.10534  1.0000
  H   H822      1.0  0.61669  0.13521  0.13898  1.0000
  H   H823      1.0  0.59846  0.17786  0.17640  1.0000
  H   H824      1.0  0.64023  0.19926  0.13854  1.0000
  H   H825      1.0  0.59233  0.18959  0.14882  1.0000
  H   H826      1.0  0.54618  0.17493  0.26434  1.0000
  H   H827      1.0  0.57643  0.14823  0.30895  1.0000
  H   H828      1.0  0.53847  0.19056  0.32095  1.0000
  C   C483      1.0  0.63279  0.14233  0.44311  1.0000
  H   H829      1.0  0.57543  0.03480  0.00770  1.0000
  S   S121      1.0  0.57476  0.00946  0.18973  1.0000
  H   H830      1.0  0.62489  0.08178  0.05914  1.0000
  H   H831      1.0  0.65041  0.21839  0.20512  1.0000
  C   C484      1.0  0.61502  0.19625  0.22394  1.0000
  H   H832      1.0  0.50114  0.07736  0.43615  1.0000
  H   H833      1.0  0.53658  0.01924  0.03395  1.0000
  H   H834      1.0  0.54094  0.14405  0.33036  1.0000
  H   H835      1.0  0.49825  0.14653  0.34535  1.0000
  C   C485      1.0  0.65274  0.14086  0.40521  1.0000
  C   C486      1.0  0.65816  0.07652  0.10048  1.0000
  H   H836      1.0  0.60461  0.21123  0.22903  1.0000
  H   H837      1.0  0.65652  0.09613  0.13308  1.0000
  H   H838      1.0  0.60562  0.00864  0.10573  1.0000
  C   C487      1.0  0.64277  0.09067  0.09882  1.0000
  H   H839      1.0  0.61576  0.19500  0.25295  1.0000
  H   H840      1.0  0.44894  0.06348  0.09107  1.0000
  N   N26       1.0  0.53818  0.16357  0.32042  1.0000
  C   C488      1.0  0.53320  0.15334  0.39086  1.0000
  C   C489      1.0  0.45274  0.02747  0.24385  1.0000
  Fe  Fe62      1.0  0.58004  0.02769  0.14299  1.0000
  C   C490      1.0  0.56016  0.15711  0.31325  1.0000
  C   C491      1.0  0.62773  0.20537  0.19731  1.0000
  H   H841      1.0  0.62730  0.05816  0.02755  1.0000
  H   H842      1.0  0.56144  0.15981  0.33914  1.0000
  H   H843      1.0  0.65185  0.19265  0.15763  1.0000
  C   C492      1.0  0.53510  0.15666  0.42695  1.0000
  H   H844      1.0  0.62393  0.03468  0.17394  1.0000
  H   H845      1.0  0.56597  0.16520  0.28949  1.0000
  Fe  Fe63      1.0  0.58645  0.22655  0.04148  1.0000
  C   C493      1.0  0.64153  0.24091  0.04452  1.0000
  H   H846      1.0  0.54779  0.17095  0.35976  1.0000
  C   C494      1.0  0.54563  0.15382  0.31187  1.0000
  H   H847      1.0  0.58888  0.11238  0.46265  1.0000
  N   N27       1.0  0.58553  0.13133  0.40262  1.0000
  C   C495      1.0  0.57621  0.12216  0.38874  1.0000
  C   C496      1.0  0.57842  0.13292  0.43891  1.0000
  C   C497      1.0  0.59049  0.14411  0.37424  1.0000
  C   C498      1.0  0.59703  0.12614  0.40846  1.0000
  C   C499      1.0  0.59386  0.11243  0.43433  1.0000
  C   C500      1.0  0.58213  0.11819  0.35351  1.0000
  C   C501      1.0  0.59930  0.15523  0.38517  1.0000
  C   C502      1.0  0.56759  0.14024  0.43710  1.0000
  H   H848      1.0  0.62535  0.06931  0.13594  1.0000
  H   H849      1.0  0.46334  0.07738  0.21931  1.0000
  C   C503      1.0  0.57165  0.10938  0.34133  1.0000
  C   C504      1.0  0.60264  0.16785  0.35543  1.0000
  H   H850      1.0  0.56825  0.12651  0.38240  1.0000
  H   H851      1.0  0.57117  0.11316  0.41059  1.0000
  H   H852      1.0  0.57366  0.12326  0.45818  1.0000
  H   H853      1.0  0.58537  0.13784  0.45308  1.0000
  H   H854      1.0  0.58224  0.14755  0.36610  1.0000
  H   H855      1.0  0.59643  0.14293  0.34849  1.0000
  H   H856      1.0  0.60329  0.12618  0.38162  1.0000
  H   H857      1.0  0.60340  0.13266  0.42064  1.0000
  H   H858      1.0  0.58760  0.10511  0.42435  1.0000
  H   H859      1.0  0.51810  0.08572  0.42016  1.0000
  H   H860      1.0  0.58672  0.12676  0.33008  1.0000
  H   H861      1.0  0.58956  0.11285  0.35837  1.0000
  H   H862      1.0  0.60861  0.15291  0.38813  1.0000
  H   H863      1.0  0.59454  0.15704  0.41141  1.0000
  H   H864      1.0  0.57159  0.15031  0.41999  1.0000
  C   C505      1.0  0.45459  0.03862  0.20973  1.0000
  H   H865      1.0  0.50234  0.14657  0.29692  1.0000
  H   H866      1.0  0.53790  0.02203  0.14914  1.0000
  H   H867      1.0  0.65349  0.21458  0.06454  1.0000
  H   H868      1.0  0.60454  0.17693  0.98789  1.0000
  H   H869      1.0  0.54679  0.15535  0.12367  1.0000
  H   H870      1.0  0.53147  0.14773  0.44974  1.0000
  H   H871      1.0  0.57616  0.10664  0.31626  1.0000
  H   H872      1.0  0.56679  0.10040  0.36331  1.0000
  H   H873      1.0  0.56422  0.11449  0.33447  1.0000
  H   H874      1.0  0.60932  0.17557  0.36310  1.0000
  H   H875      1.0  0.60754  0.16654  0.32854  1.0000
  H   H876      1.0  0.59370  0.17101  0.35255  1.0000
  C   C506      1.0  0.54501  0.17633  0.29286  1.0000
  H   H877      1.0  0.63248  0.24351  0.04385  1.0000
  H   H878      1.0  0.61303  0.11521  0.44637  1.0000
  H   H879      1.0  0.63490  0.20498  0.26509  1.0000
  H   H880      1.0  0.65992  0.07693  0.12811  1.0000
  H   H881      1.0  0.45595  0.06706  0.30351  1.0000
  Fe  Fe64      1.0  0.59503  0.24378  0.09207  1.0000
  H   H882      1.0  0.64787  0.08104  0.04014  1.0000
  H   H883      1.0  0.52959  0.16377  0.43371  1.0000
  H   H884      1.0  0.64803  0.11162  0.47032  1.0000
  H   H885      1.0  0.64971  0.08550  0.43940  1.0000
  H   H886      1.0  0.43465  0.03586  0.28653  1.0000
  C   C507      1.0  0.63530  0.06798  0.13354  1.0000
  H   H887      1.0  0.41796  0.00110  0.12837  1.0000
  C   C508      1.0  0.42406  0.00059  0.10204  1.0000
  C   C509      1.0  0.51077  0.07833  0.44295  1.0000
  H   H888      1.0  0.46200  0.08374  0.27769  1.0000
  C   C510      1.0  0.63962  0.14090  0.40949  1.0000
  N   N28       1.0  0.64446  0.07721  0.09943  1.0000
  H   H889      1.0  0.64002  0.19402  0.32121  1.0000
  H   H890      1.0  0.62773  0.04757  0.19675  1.0000
  Fe  Fe65      1.0  0.63591  0.13961  0.31291  1.0000
  S   S122      1.0  0.65031  0.13365  0.27222  1.0000
  H   H891      1.0  0.45749  0.03084  0.26480  1.0000
  N   N29       1.0  0.64000  0.20062  0.19473  1.0000
  C   C511      1.0  0.64038  0.19197  0.23035  1.0000
  C   C512      1.0  0.64168  0.19356  0.16436  1.0000
  H   H892      1.0  0.57166  0.14768  0.07668  1.0000
  H   H893      1.0  0.65780  0.10223  0.41579  1.0000
  C   C513      1.0  0.63280  0.17969  0.17175  1.0000
  C   C514      1.0  0.59075  0.17503  0.03959  1.0000
  N   N30       1.0  0.45051  0.05063  0.21626  1.0000
  C   C515      1.0  0.53007  0.00197  0.18139  1.0000
  H   H894      1.0  0.63163  0.18365  0.24033  1.0000
  H   H895      1.0  0.64535  0.22377  0.14039  1.0000
  H   H896      1.0  0.43096  0.03998  0.21881  1.0000
  C   C516      1.0  0.59476  0.16363  0.06202  1.0000
  C   C517      1.0  0.64635  0.11084  0.12382  1.0000
  H   H897      1.0  0.63394  0.17314  0.19640  1.0000
  H   H898      1.0  0.62252  0.17989  0.17517  1.0000
  C   C518      1.0  0.45805  0.05630  0.24139  1.0000
  C   C519      1.0  0.52450  0.15952  0.31530  1.0000
  H   H899      1.0  0.53855  0.14590  0.38651  1.0000
  H   H900      1.0  0.64792  0.11447  0.14835  1.0000
  C   C520      1.0  0.65434  0.22139  0.14628  1.0000
  C   C521      1.0  0.54143  0.01343  0.15910  1.0000
  H   H901      1.0  0.43304  0.05193  0.28533  1.0000
  C   C522      1.0  0.53833  0.18759  0.29476  1.0000
  C   C523      1.0  0.54542  0.19947  0.26323  1.0000
  H   H902      1.0  0.54821  0.01604  0.17655  1.0000
  H   H903      1.0  0.46501  0.04133  0.19486  1.0000
  H   H904      1.0  0.64653  0.18307  0.29771  1.0000
  H   H905      1.0  0.50791  0.09199  0.47528  1.0000
  H   H906      1.0  0.54130  0.13970  0.15545  1.0000
  C   C524      1.0  0.64663  0.09658  0.13035  1.0000
  H   H907      1.0  0.60208  0.20350  0.19220  1.0000
  S   S123      1.0  0.63100  0.13856  0.37491  1.0000
  H   H908      1.0  0.54082  0.20757  0.26584  1.0000
  C   C525      1.0  0.56582  0.14549  0.31090  1.0000
  H   H909      1.0  0.59473  0.15620  0.04557  1.0000
  H   H910      1.0  0.64874  0.18749  0.22567  1.0000
  H   H911      1.0  0.54487  0.19721  0.23629  1.0000
  H   H912      1.0  0.43886  0.05128  0.15581  1.0000
  H   H913      1.0  0.63969  0.09132  0.15698  1.0000
  H   H914      1.0  0.63238  0.09073  0.10084  1.0000
  H   H915      1.0  0.46856  0.05691  0.23163  1.0000
  H   H916      1.0  0.52809  0.18481  0.29266  1.0000
  H   H917      1.0  0.57152  0.01064  0.03845  1.0000
  S   S124      1.0  0.62700  0.21555  0.07239  1.0000
  H   H918      1.0  0.61043  0.18733  0.01627  1.0000
  H   H919      1.0  0.60111  0.00018  0.01842  1.0000
  H   H920      1.0  0.49899  0.13171  0.33170  1.0000
  H   H921      1.0  0.55605  0.00321  0.00644  1.0000
  H   H922      1.0  0.46516  0.06411  0.17034  1.0000
  H   H923      1.0  0.41118  0.04600  0.27177  1.0000
  C   C526      1.0  0.63436  0.05335  0.13681  1.0000
  C   C527      1.0  0.62562  0.06796  0.02620  1.0000
  H   H924      1.0  0.56292  0.13577  0.14084  1.0000
  C   C528      1.0  0.56219  0.14595  0.13338  1.0000
  C   C529      1.0  0.59269  0.00182  0.07263  1.0000
  H   H925      1.0  0.55582  0.20270  0.26363  1.0000
  H   H926      1.0  0.63806  0.07024  0.15867  1.0000
  C   C530      1.0  0.65157  0.21227  0.18505  1.0000
  H   H927      1.0  0.53157  0.17205  0.36506  1.0000
  C   C531      1.0  0.62744  0.07235  0.06101  1.0000
  H   H928      1.0  0.45079  0.06923  0.18233  1.0000
  H   H929      1.0  0.55991  0.13519  0.42556  1.0000
  H   H930      1.0  0.52677  0.99601  0.13328  1.0000
  N   N31       1.0  0.54139  0.06883  0.19898  1.0000
  C   C532      1.0  0.55403  0.06508  0.19957  1.0000
  C   C533      1.0  0.53223  0.05904  0.18628  1.0000
  C   C534      1.0  0.54466  0.08172  0.17124  1.0000
  C   C535      1.0  0.53491  0.07047  0.23583  1.0000
  C   C536      1.0  0.53145  0.05850  0.26873  1.0000
  C   C537      1.0  0.56456  0.07470  0.21056  1.0000
  C   C538      1.0  0.53294  0.08676  0.16234  1.0000
  C   C539      1.0  0.53228  0.04455  0.19835  1.0000
  C   C540      1.0  0.52004  0.03563  0.19389  1.0000
  C   C541      1.0  0.52702  0.06190  0.30528  1.0000
  C   C542      1.0  0.57571  0.06881  0.21786  1.0000
  C   C543      1.0  0.53758  0.09955  0.13290  1.0000
  H   H931      1.0  0.55844  0.06399  0.17179  1.0000
  H   H932      1.0  0.55244  0.05543  0.21821  1.0000
  H   H933      1.0  0.52208  0.05986  0.19482  1.0000
  H   H934      1.0  0.53444  0.06126  0.15564  1.0000
  H   H935      1.0  0.55076  0.08122  0.14468  1.0000
  H   H936      1.0  0.55061  0.08946  0.18080  1.0000
  H   H937      1.0  0.54082  0.07891  0.24278  1.0000
  H   H938      1.0  0.52559  0.07300  0.23458  1.0000
  H   H939      1.0  0.53984  0.05431  0.27077  1.0000
  H   H940      1.0  0.52320  0.05105  0.26592  1.0000
  H   H941      1.0  0.56879  0.08365  0.18803  1.0000
  H   H942      1.0  0.56058  0.07748  0.23595  1.0000
  H   H943      1.0  0.52711  0.08855  0.18712  1.0000
  H   H944      1.0  0.52646  0.07978  0.15182  1.0000
  H   H945      1.0  0.54090  0.04278  0.18102  1.0000
  H   H946      1.0  0.53281  0.04159  0.22724  1.0000
  H   H947      1.0  0.51932  0.03780  0.16484  1.0000
  H   H948      1.0  0.52040  0.02539  0.20205  1.0000
  H   H949      1.0  0.51122  0.03685  0.21170  1.0000
  H   H950      1.0  0.52404  0.05299  0.32802  1.0000
  H   H951      1.0  0.53510  0.06886  0.31073  1.0000
  H   H952      1.0  0.51856  0.06616  0.30500  1.0000
  H   H953      1.0  0.58039  0.06612  0.19303  1.0000
  H   H954      1.0  0.58313  0.07604  0.22484  1.0000
  H   H955      1.0  0.57214  0.06008  0.24124  1.0000
  H   H956      1.0  0.54410  0.10698  0.14203  1.0000
  H   H957      1.0  0.54288  0.09811  0.10667  1.0000
  H   H958      1.0  0.52906  0.10317  0.12790  1.0000
  H   H959      1.0  0.54687  0.01085  0.13507  1.0000
  H   H960      1.0  0.45520  0.04990  0.26953  1.0000
  C   C544      1.0  0.65338  0.22465  0.05619  1.0000
  S   S125      1.0  0.59967  0.22734  0.12885  1.0000
  C   C545      1.0  0.54430  0.99603  0.06187  1.0000
  H   H961      1.0  0.63235  0.07492  0.00132  1.0000
  S   S126      1.0  0.60303  0.04067  0.00630  1.0000
  C   C546      1.0  0.60581  0.00933  0.07617  1.0000
  H   H962      1.0  0.51864  0.13965  0.35198  1.0000
  H   H963      1.0  0.63496  0.17962  0.11373  1.0000
  C   C547      1.0  0.53798  0.16562  0.35854  1.0000
  S   S127      1.0  0.57361  0.04498  0.15646  1.0000
  Fe  Fe66      1.0  0.59220  0.04173  0.06256  1.0000
  C   C548      1.0  0.55587  0.99605  0.03181  1.0000
  H   H964      1.0  0.62905  0.21462  0.20629  1.0000
  H   H965      1.0  0.55502  0.18002  0.29601  1.0000
  H   H966      1.0  0.62574  0.20790  0.16953  1.0000
  H   H967      1.0  0.55329  0.14625  0.47370  1.0000
  H   H968      1.0  0.51794  0.16422  0.33115  1.0000
  H   H969      1.0  0.56094  0.13737  0.33538  1.0000
  S   S128      1.0  0.63710  0.15837  0.27322  1.0000
  H   H970      1.0  0.54558  0.16070  0.42511  1.0000
  S   S129      1.0  0.57254  0.02851  0.09195  1.0000
  Fe  Fe67      1.0  0.63292  0.12377  0.25354  1.0000
  H   H971      1.0  0.64422  0.06442  0.06222  1.0000
  S   S130      1.0  0.44937  0.02304  0.03185  1.0000
  S   S131      1.0  0.60547  0.23946  0.04107  1.0000
  H   H972      1.0  0.46286  0.07179  0.10438  1.0000
  H   H973      1.0  0.60955  0.19180  0.14290  1.0000
  C   C549      1.0  0.60334  0.20187  0.22080  1.0000
  S   S132      1.0  0.62924  0.10293  0.24583  1.0000
  H   H974      1.0  0.52435  0.16300  0.28587  1.0000
  C   C550      1.0  0.51788  0.14477  0.32485  1.0000
  Fe  Fe68      1.0  0.65027  0.15194  0.23158  1.0000
  Fe  Fe69      1.0  0.60855  0.22228  0.07743  1.0000
  H   H975      1.0  0.56911  0.16240  0.08690  1.0000
  C   C551      1.0  0.63614  0.17362  0.13938  1.0000
  H   H976      1.0  0.58230  0.17119  0.02871  1.0000
  C   C552      1.0  0.43058  0.04351  0.27319  1.0000
  S   S133      1.0  0.63412  0.14146  0.21030  1.0000
  H   H977      1.0  0.54534  0.15254  0.28381  1.0000
  H   H978      1.0  0.51348  0.06897  0.44481  1.0000
  C   C553      1.0  0.64155  0.22791  0.05634  1.0000
  H   H979      1.0  0.56437  0.14214  0.28607  1.0000
  H   H980      1.0  0.58787  0.18156  0.05684  1.0000
  H   H981      1.0  0.61283  0.18650  0.21862  1.0000
  H   H982      1.0  0.41277  0.02964  0.27350  1.0000
  H   H983      1.0  0.43224  0.05623  0.22122  1.0000
  C   C554      1.0  0.44947  0.05586  0.14752  1.0000
  C   C555      1.0  0.64174  0.19873  0.26225  1.0000
  C   C556      1.0  0.56105  0.14109  0.47543  1.0000
  H   H984      1.0  0.62906  0.24001  0.15106  1.0000
  C   C557      1.0  0.60634  0.10817  0.43656  1.0000
  H   H985      1.0  0.63681  0.11203  0.11927  1.0000
  C   C558      1.0  0.41577  0.03846  0.28360  1.0000
  H   H986      1.0  0.62004  0.22573  0.00306  1.0000
  H   H987      1.0  0.45736  0.00887  0.25788  1.0000
  H   H988      1.0  0.60395  0.09851  0.45600  1.0000
  H   H989      1.0  0.51731  0.00671  0.14611  1.0000
  H   H990      1.0  0.64390  0.05124  0.13741  1.0000
  H   H991      1.0  0.58520  0.00598  0.08651  1.0000
  H   H992      1.0  0.46929  0.02059  0.22032  1.0000
  H   H993      1.0  0.60785  0.01974  0.06204  1.0000
  C   C559      1.0  0.45437  0.06050  0.17961  1.0000
  C   C560      1.0  0.46216  0.07360  0.27717  1.0000
  C   C561      1.0  0.43593  0.04764  0.23073  1.0000
  H   H994      1.0  0.41218  0.03590  0.31404  1.0000
  H   H995      1.0  0.50425  0.12367  0.46298  1.0000
  H   H996      1.0  0.53059  0.05273  0.00632  1.0000
  H   H997      1.0  0.61549  0.06743  0.02358  1.0000
  H   H998      1.0  0.45463  0.04876  0.13860  1.0000
  H   H999      1.0  0.44704  0.07106  0.24772  1.0000
  H   H1000     1.0  0.44223  0.02298  0.25613  1.0000
  H   H1001     1.0  0.47235  0.07282  0.27466  1.0000
  C   C562      1.0  0.45717  0.07012  0.24456  1.0000
  H   H1002     1.0  0.61141  0.10750  0.40903  1.0000
  C   C563      1.0  0.65205  0.14373  0.46783  1.0000
  C   C564      1.0  0.60180  0.18305  0.00673  1.0000
  H   H1003     1.0  0.66061  0.20910  0.18715  1.0000
  H   H1004     1.0  0.64814  0.09751  0.07195  1.0000
  C   C565      1.0  0.53195  0.11526  0.47448  1.0000
  H   H1005     1.0  0.54766  0.06079  0.99253  1.0000
  C   C566      1.0  0.52060  0.99800  0.15728  1.0000
  C   C567      1.0  0.65875  0.09697  0.47319  1.0000
  C   C568      1.0  0.56891  0.99986  0.04336  1.0000
  H   H1006     1.0  0.66073  0.23940  0.16270  1.0000
  H   H1007     1.0  0.42084  0.00584  0.07887  1.0000
  H   H1008     1.0  0.49989  0.99967  0.20010  1.0000
  H   H1009     1.0  0.62933  0.18228  0.30578  1.0000
  H   H1010     1.0  0.54608  0.00522  0.07095  1.0000
  C   C569      1.0  0.65829  0.09365  0.43624  1.0000
  H   H1011     1.0  0.61774  0.21060  0.99033  1.0000
  H   H1012     1.0  0.52522  0.00504  0.20524  1.0000
  H   H1013     1.0  0.65180  0.20491  0.25690  1.0000
  C   C570      1.0  0.65888  0.14219  0.43434  1.0000
  H   H1014     1.0  0.65842  0.21664  0.12518  1.0000
  S   S134      1.0  0.58138  0.23090  0.98627  1.0000
  H   H1015     1.0  0.61376  0.00528  0.06411  1.0000
  H   H1016     1.0  0.56519  0.99882  0.13271  1.0000
  H   H1017     1.0  0.65957  0.06696  0.09674  1.0000
  H   H1018     1.0  0.42864  0.02137  0.99723  1.0000
  H   H1019     1.0  0.65812  0.13970  0.37962  1.0000
  H   H1020     1.0  0.56687  0.99612  0.07367  1.0000
  H   H1021     1.0  0.63812  0.09564  0.48272  1.0000
  H   H1022     1.0  0.52051  0.08410  0.48319  1.0000
  C   C571      1.0  0.52049  0.11919  0.48312  1.0000
  H   H1023     1.0  0.63768  0.11958  0.51787  1.0000
  Fe  Fe70      1.0  0.45251  0.00487  0.83225  1.0000
  S   S135      1.0  0.44712  0.00659  0.77742  1.0000
  S   S136      1.0  0.44105  0.01078  0.87976  1.0000
  H   H1024     1.0  0.56121  0.23596  0.90419  1.0000
  H   H1025     1.0  0.57756  0.00714  0.97491  1.0000
  H   H1026     1.0  0.60847  0.19316  0.83575  1.0000
  Fe  Fe71      1.0  0.46850  0.01614  0.75294  1.0000
  S   S137      1.0  0.47396  0.03509  0.70844  1.0000
  H   H1027     1.0  0.44728  0.03518  0.75999  1.0000
  H   H1028     1.0  0.48427  0.02369  0.62956  1.0000
  S   S138      1.0  0.47329  0.01545  0.80770  1.0000
  N   N32       1.0  0.64452  0.10229  0.52812  1.0000
  Fe  Fe72      1.0  0.58672  0.04262  0.74213  1.0000
  S   S139      1.0  0.57394  0.04752  0.78833  1.0000
  S   S140      1.0  0.60064  0.05762  0.69218  1.0000
  Fe  Fe73      1.0  0.55778  0.03424  0.77489  1.0000
  S   S141      1.0  0.53919  0.03955  0.77071  1.0000
  S   S142      1.0  0.57010  0.03062  0.72598  1.0000
  Fe  Fe74      1.0  0.53071  0.10086  0.63513  1.0000
  S   S143      1.0  0.53712  0.10444  0.57371  1.0000
  S   S144      1.0  0.52589  0.08044  0.67237  1.0000
  Fe  Fe75      1.0  0.53725  0.13020  0.63293  1.0000
  S   S145      1.0  0.54352  0.13605  0.57089  1.0000
  S   S146      1.0  0.53732  0.14307  0.67442  1.0000
  Fe  Fe76      1.0  0.52655  0.12007  0.57082  1.0000
  Fe  Fe77      1.0  0.55359  0.12002  0.57721  1.0000
  S   S147      1.0  0.57345  0.12272  0.54196  1.0000
  S   S148      1.0  0.51884  0.11556  0.63277  1.0000
  S   S149      1.0  0.54857  0.11508  0.63884  1.0000
  S   S150      1.0  0.61100  0.16575  0.58745  1.0000
  S   S151      1.0  0.57818  0.19288  0.69065  1.0000
  S   S152      1.0  0.59747  0.19877  0.76634  1.0000
  H   H1029     1.0  0.62390  0.06603  0.59993  1.0000
  H   H1030     1.0  0.58046  0.18989  0.94882  1.0000
  C   C572      1.0  0.54918  0.15657  0.67879  1.0000
  C   C573      1.0  0.54777  0.16029  0.71247  1.0000
  C   C574      1.0  0.55657  0.17120  0.71688  1.0000
  C   C575      1.0  0.56686  0.17873  0.68738  1.0000
  C   C576      1.0  0.56829  0.17495  0.65375  1.0000
  C   C577      1.0  0.55962  0.16393  0.64955  1.0000
  H   H1031     1.0  0.53972  0.15475  0.73530  1.0000
  H   H1032     1.0  0.55526  0.17390  0.74290  1.0000
  H   H1033     1.0  0.57620  0.18060  0.63067  1.0000
  H   H1034     1.0  0.56085  0.16132  0.62338  1.0000
  C   C578      1.0  0.58372  0.13579  0.55103  1.0000
  C   C579      1.0  0.57871  0.14244  0.57598  1.0000
  C   C580      1.0  0.58706  0.15233  0.58517  1.0000
  C   C581      1.0  0.60047  0.15518  0.57066  1.0000
  C   C582      1.0  0.60545  0.14880  0.54490  1.0000
  C   C583      1.0  0.59704  0.13923  0.53462  1.0000
  H   H1035     1.0  0.56845  0.13988  0.58876  1.0000
  H   H1036     1.0  0.58319  0.15740  0.60469  1.0000
  H   H1037     1.0  0.61579  0.15129  0.53289  1.0000
  H   H1038     1.0  0.60086  0.13436  0.51457  1.0000
  C   C584      1.0  0.60655  0.07426  0.69079  1.0000
  C   C585      1.0  0.61275  0.08311  0.65668  1.0000
  C   C586      1.0  0.61830  0.09625  0.65478  1.0000
  C   C587      1.0  0.61769  0.10065  0.68702  1.0000
  C   C588      1.0  0.61124  0.09185  0.72096  1.0000
  C   C589      1.0  0.60561  0.07875  0.72287  1.0000
  H   H1039     1.0  0.61339  0.07974  0.63171  1.0000
  H   H1040     1.0  0.61085  0.09511  0.74605  1.0000
  H   H1041     1.0  0.60092  0.07205  0.74928  1.0000
  H   H1042     1.0  0.59971  0.03565  0.88242  1.0000
  H   H1043     1.0  0.61165  0.04065  0.92980  1.0000
  C   C590      1.0  0.48793  0.04801  0.70173  1.0000
  C   C591      1.0  0.49840  0.04621  0.71669  1.0000
  C   C592      1.0  0.50974  0.05641  0.70864  1.0000
  C   C593      1.0  0.51085  0.06843  0.68490  1.0000
  C   C594      1.0  0.50017  0.07041  0.67112  1.0000
  C   C595      1.0  0.48873  0.06026  0.67972  1.0000
  H   H1044     1.0  0.49778  0.03689  0.73411  1.0000
  H   H1045     1.0  0.51774  0.05494  0.72066  1.0000
  H   H1046     1.0  0.50077  0.07975  0.65381  1.0000
  H   H1047     1.0  0.48050  0.06187  0.66900  1.0000
  C   C596      1.0  0.50539  0.00356  0.81152  1.0000
  C   C597      1.0  0.50594  0.01303  0.78031  1.0000
  C   C598      1.0  0.51640  0.02407  0.76789  1.0000
  C   C599      1.0  0.52629  0.02564  0.78653  1.0000
  C   C600      1.0  0.52571  0.01621  0.81785  1.0000
  H   H1048     1.0  0.60037  0.01047  0.95608  1.0000
  H   H1049     1.0  0.49837  0.01182  0.76553  1.0000
  H   H1050     1.0  0.51688  0.03138  0.74379  1.0000
  H   H1051     1.0  0.53310  0.01762  0.83301  1.0000
  H   H1052     1.0  0.45675  0.05133  0.73474  1.0000
  C   C601      1.0  0.44448  0.01371  0.92160  1.0000
  C   C602      1.0  0.45639  0.01366  0.93131  1.0000
  H   H1053     1.0  0.63864  0.06250  0.57813  1.0000
  C   C603      1.0  0.43461  0.01647  0.94584  1.0000
  H   H1054     1.0  0.46411  0.01154  0.91279  1.0000
  C   C604      1.0  0.49095  0.06321  0.57734  1.0000
  H   H1055     1.0  0.48261  0.09093  0.76941  1.0000
  H   H1056     1.0  0.53682  0.06596  0.96570  1.0000
  C   C605      1.0  0.64395  0.23243  0.73032  1.0000
  C   C606      1.0  0.59431  0.00075  0.95692  1.0000
  H   H1057     1.0  0.53765  0.19122  0.93646  1.0000
  C   C607      1.0  0.65649  0.11349  0.57115  1.0000
  H   H1058     1.0  0.65836  0.22490  0.70019  1.0000
  H   H1059     1.0  0.55017  0.05636  0.81297  1.0000
  H   H1060     1.0  0.50148  0.04216  0.85630  1.0000
  C   C608      1.0  0.54015  0.00049  0.93425  1.0000
  S   S153      1.0  0.59682  0.22474  0.70743  1.0000
  H   H1061     1.0  0.57447  0.04299  0.61096  1.0000
  H   H1062     1.0  0.66080  0.11935  0.51158  1.0000
  N   N33       1.0  0.56215  0.06050  0.64746  1.0000
  C   C609      1.0  0.55905  0.06503  0.68247  1.0000
  C   C610      1.0  0.55269  0.04752  0.65270  1.0000
  C   C611      1.0  0.53805  0.04712  0.66432  1.0000
  C   C612      1.0  0.57026  0.07430  0.69167  1.0000
  C   C613      1.0  0.56516  0.07959  0.72431  1.0000
  C   C614      1.0  0.52947  0.03374  0.66675  1.0000
  H   H1063     1.0  0.55072  0.06958  0.68293  1.0000
  H   H1064     1.0  0.55576  0.05656  0.70671  1.0000
  H   H1065     1.0  0.55459  0.04002  0.67400  1.0000
  H   H1066     1.0  0.55098  0.07257  0.62266  1.0000
  H   H1067     1.0  0.56979  0.08949  0.61708  1.0000
  H   H1068     1.0  0.53533  0.05432  0.64440  1.0000
  H   H1069     1.0  0.53573  0.04918  0.69182  1.0000
  H   H1070     1.0  0.57736  0.06893  0.69967  1.0000
  H   H1071     1.0  0.57549  0.08257  0.66811  1.0000
  H   H1072     1.0  0.55951  0.07149  0.74827  1.0000
  H   H1073     1.0  0.57349  0.08519  0.73243  1.0000
  H   H1074     1.0  0.55884  0.08601  0.71686  1.0000
  H   H1075     1.0  0.56055  0.09247  0.56337  1.0000
  H   H1076     1.0  0.53148  0.02622  0.68758  1.0000
  H   H1077     1.0  0.51907  0.03372  0.67521  1.0000
  H   H1078     1.0  0.53119  0.03125  0.63965  1.0000
  H   H1079     1.0  0.62070  0.18051  0.65320  1.0000
  N   N34       1.0  0.49951  0.07512  0.54900  1.0000
  C   C615      1.0  0.62047  0.10335  0.53237  1.0000
  H   H1080     1.0  0.46755  0.06376  0.88996  1.0000
  C   C616      1.0  0.63165  0.23939  0.86153  1.0000
  H   H1081     1.0  0.53867  0.06413  0.56389  1.0000
  C   C617      1.0  0.45037  0.04901  0.79387  1.0000
  C   C618      1.0  0.44851  0.05498  0.92578  1.0000
  C   C619      1.0  0.53501  0.02205  0.93700  1.0000
  C   C620      1.0  0.52887  0.04162  0.94806  1.0000
  C   C621      1.0  0.43643  0.01917  0.97917  1.0000
  H   H1082     1.0  0.57078  0.23522  0.86150  1.0000
  C   C622      1.0  0.48207  0.01429  0.65008  1.0000
  H   H1083     1.0  0.61548  0.09525  0.55694  1.0000
  H   H1084     1.0  0.54864  0.07156  0.82277  1.0000
  H   H1085     1.0  0.62070  0.20609  0.80225  1.0000
  H   H1086     1.0  0.65723  0.16767  0.84825  1.0000
  H   H1087     1.0  0.47302  0.03444  0.85733  1.0000
  H   H1088     1.0  0.46474  0.04695  0.91363  1.0000
  H   H1089     1.0  0.66168  0.19848  0.68790  1.0000
  C   C623      1.0  0.59436  0.03800  0.97220  1.0000
  H   H1090     1.0  0.65203  0.19188  0.82673  1.0000
  H   H1091     1.0  0.63209  0.24239  0.76036  1.0000
  C   C624      1.0  0.62745  0.22762  0.94527  1.0000
  C   C625      1.0  0.63428  0.10957  0.53594  1.0000
  H   H1092     1.0  0.55243  0.22713  0.75575  1.0000
  C   C626      1.0  0.49026  0.04637  0.81579  1.0000
  H   H1093     1.0  0.63815  0.07579  0.51808  1.0000
  H   H1094     1.0  0.48222  0.10350  0.61264  1.0000
  H   H1095     1.0  0.48760  0.10897  0.56332  1.0000
  C   C627      1.0  0.46045  0.05412  0.89852  1.0000
  H   H1096     1.0  0.49071  0.02431  0.91745  1.0000
  C   C628      1.0  0.45669  0.04966  0.86483  1.0000
  C   C629      1.0  0.50052  0.07227  0.51151  1.0000
  H   H1097     1.0  0.64821  0.21384  0.56023  1.0000
  C   C630      1.0  0.52037  0.06777  0.55557  1.0000
  H   H1098     1.0  0.63889  0.21097  0.85330  1.0000
  H   H1099     1.0  0.52407  0.04933  0.93872  1.0000
  H   H1100     1.0  0.51469  0.99799  0.85505  1.0000
  H   H1101     1.0  0.53228  0.07393  0.59219  1.0000
  H   H1102     1.0  0.47320  0.09576  0.58417  1.0000
  C   C631      1.0  0.62956  0.06504  0.57357  1.0000
  H   H1103     1.0  0.65304  0.17637  0.78818  1.0000
  H   H1104     1.0  0.56188  0.22959  0.81391  1.0000
  C   C632      1.0  0.48846  0.08415  0.76195  1.0000
  Fe  Fe78      1.0  0.65265  0.16240  0.62140  1.0000
  H   H1105     1.0  0.63477  0.22297  0.82251  1.0000
  H   H1106     1.0  0.60210  0.10836  0.53144  1.0000
  N   N35       1.0  0.58429  0.12533  0.70838  1.0000
  C   C633      1.0  0.58956  0.13898  0.71147  1.0000
  C   C634      1.0  0.58826  0.11577  0.73579  1.0000
  C   C635      1.0  0.59037  0.12450  0.67007  1.0000
  C   C636      1.0  0.56972  0.12198  0.71333  1.0000
  C   C637      1.0  0.56156  0.12282  0.75032  1.0000
  C   C638      1.0  0.58718  0.14999  0.68328  1.0000
  C   C639      1.0  0.58757  0.11076  0.66251  1.0000
  C   C640      1.0  0.58955  0.11916  0.77293  1.0000
  C   C641      1.0  0.59107  0.10763  0.80028  1.0000
  C   C642      1.0  0.54712  0.12010  0.75065  1.0000
  C   C643      1.0  0.59207  0.16312  0.69130  1.0000
  C   C644      1.0  0.59493  0.11111  0.62390  1.0000
  H   H1107     1.0  0.60030  0.14092  0.70833  1.0000
  H   H1108     1.0  0.58556  0.14029  0.73907  1.0000
  H   H1109     1.0  0.58149  0.10598  0.74192  1.0000
  H   H1110     1.0  0.59803  0.11459  0.72373  1.0000
  H   H1111     1.0  0.60115  0.12839  0.66374  1.0000
  H   H1112     1.0  0.58695  0.13065  0.64898  1.0000
  H   H1113     1.0  0.56698  0.12807  0.69053  1.0000
  H   H1114     1.0  0.56612  0.11186  0.71127  1.0000
  H   H1115     1.0  0.56447  0.13257  0.75554  1.0000
  H   H1116     1.0  0.56253  0.11534  0.77316  1.0000
  H   H1117     1.0  0.59268  0.15048  0.65530  1.0000
  H   H1118     1.0  0.57671  0.14865  0.68369  1.0000
  H   H1119     1.0  0.57708  0.10699  0.66423  1.0000
  H   H1120     1.0  0.59063  0.10377  0.68214  1.0000
  H   H1121     1.0  0.59835  0.12725  0.76820  1.0000
  H   H1122     1.0  0.58108  0.12222  0.78614  1.0000
  H   H1123     1.0  0.59191  0.11033  0.82651  1.0000
  H   H1124     1.0  0.58250  0.09921  0.80617  1.0000
  H   H1125     1.0  0.60002  0.10479  0.78921  1.0000
  H   H1126     1.0  0.54141  0.12043  0.77774  1.0000
  H   H1127     1.0  0.54544  0.12758  0.72916  1.0000
  H   H1128     1.0  0.54356  0.11039  0.74564  1.0000
  H   H1129     1.0  0.58589  0.16393  0.71715  1.0000
  H   H1130     1.0  0.60227  0.16449  0.69356  1.0000
  H   H1131     1.0  0.59176  0.17094  0.66832  1.0000
  H   H1132     1.0  0.59152  0.11724  0.60288  1.0000
  H   H1133     1.0  0.60552  0.11507  0.62041  1.0000
  H   H1134     1.0  0.59331  0.10116  0.61951  1.0000
  C   C645      1.0  0.50659  0.01994  0.94111  1.0000
  C   C646      1.0  0.57996  0.05322  0.60677  1.0000
  H   H1135     1.0  0.47189  0.06783  0.58718  1.0000
  H   H1136     1.0  0.51498  0.05853  0.57590  1.0000
  C   C647      1.0  0.58198  0.20027  0.93990  1.0000
  C   C648      1.0  0.60114  0.03832  0.93655  1.0000
  H   H1137     1.0  0.61285  0.17668  0.73530  1.0000
  Fe  Fe79      1.0  0.58373  0.20449  0.73267  1.0000
  S   S154      1.0  0.58255  0.19634  0.87053  1.0000
  C   C649      1.0  0.59439  0.03553  0.90959  1.0000
  Fe  Fe80      1.0  0.58719  0.20679  0.81018  1.0000
  C   C650      1.0  0.58357  0.20604  0.90250  1.0000
  S   S155      1.0  0.57233  0.21101  0.77867  1.0000
  H   H1138     1.0  0.56357  0.02933  0.96125  1.0000
  C   C651      1.0  0.58546  0.21943  0.89124  1.0000
  Fe  Fe81      1.0  0.57583  0.02933  0.82473  1.0000
  C   C652      1.0  0.58078  0.03219  0.91830  1.0000
  C   C653      1.0  0.61736  0.23998  0.86511  1.0000
  C   C654      1.0  0.53357  0.07197  0.56436  1.0000
  C   C655      1.0  0.56029  0.06981  0.61516  1.0000
  H   H1139     1.0  0.62068  0.19091  0.59173  1.0000
  H   H1140     1.0  0.64604  0.22724  0.59431  1.0000
  H   H1141     1.0  0.45869  0.03411  0.81753  1.0000
  H   H1142     1.0  0.64205  0.18803  0.61791  1.0000
  C   C656      1.0  0.58326  0.22121  0.95464  1.0000
  C   C657      1.0  0.57093  0.08274  0.59897  1.0000
  C   C658      1.0  0.56974  0.08936  0.56106  1.0000
  H   H1143     1.0  0.57805  0.09802  0.54891  1.0000
  H   H1144     1.0  0.62956  0.22641  0.58948  1.0000
  S   S156      1.0  0.51487  0.12196  0.52708  1.0000
  H   H1145     1.0  0.60137  0.19284  0.63448  1.0000
  H   H1146     1.0  0.48644  0.08215  0.61010  1.0000
  S   S157      1.0  0.58996  0.02509  0.77911  1.0000
  H   H1147     1.0  0.54201  0.20797  0.87870  1.0000
  C   C659      1.0  0.54221  0.22055  0.81379  1.0000
  H   H1148     1.0  0.45828  0.04550  0.60613  1.0000
  H   H1149     1.0  0.63995  0.18763  0.68270  1.0000
  H   H1150     1.0  0.58674  0.22394  0.86261  1.0000
  S   S158      1.0  0.55873  0.01637  0.81309  1.0000
  H   H1151     1.0  0.64152  0.19501  0.77417  1.0000
  C   C660      1.0  0.57406  0.03196  0.95392  1.0000
  H   H1152     1.0  0.54086  0.03578  0.86374  1.0000
  H   H1153     1.0  0.51882  0.08771  0.53961  1.0000
  H   H1154     1.0  0.51422  0.03812  0.90084  1.0000
  C   C661      1.0  0.48386  0.00354  0.63052  1.0000
  N   N36       1.0  0.46776  0.05154  0.83177  1.0000
  C   C662      1.0  0.62294  0.17631  0.72363  1.0000
  N   N37       1.0  0.55015  0.22873  0.86720  1.0000
  C   C663      1.0  0.62270  0.18990  0.66145  1.0000
  C   C664      1.0  0.63586  0.23788  0.62551  1.0000
  H   H1155     1.0  0.50089  0.09526  0.59179  1.0000
  H   H1156     1.0  0.50048  0.09543  0.52916  1.0000
  C   C665      1.0  0.55028  0.21492  0.88342  1.0000
  H   H1157     1.0  0.52974  0.05368  0.85907  1.0000
  C   C666      1.0  0.63270  0.07757  0.54352  1.0000
  H   H1158     1.0  0.54995  0.00403  0.93896  1.0000
  S   S159      1.0  0.60065  0.22674  0.79021  1.0000
  H   H1159     1.0  0.62274  0.16744  0.71310  1.0000
  H   H1160     1.0  0.62821  0.17579  0.74593  1.0000
  C   C667      1.0  0.60728  0.20146  0.61265  1.0000
  C   C668      1.0  0.62136  0.20023  0.60006  1.0000
  H   H1161     1.0  0.61309  0.19116  0.67445  1.0000
  H   H1162     1.0  0.53766  0.11403  0.49459  1.0000
  S   S160      1.0  0.64831  0.16784  0.56567  1.0000
  H   H1163     1.0  0.64993  0.20255  0.62761  1.0000
  C   C669      1.0  0.58521  0.22697  0.91720  1.0000
  S   S161      1.0  0.57160  0.02713  0.88729  1.0000
  Fe  Fe82      1.0  0.57234  0.01355  0.76500  1.0000
  H   H1164     1.0  0.47725  0.00322  0.61165  1.0000
  H   H1165     1.0  0.64254  0.23842  0.64427  1.0000
  H   H1166     1.0  0.54492  0.02531  0.94121  1.0000
  H   H1167     1.0  0.58768  0.00773  0.90795  1.0000
  H   H1168     1.0  0.55958  0.06336  0.84202  1.0000
  H   H1169     1.0  0.59639  0.04743  0.62403  1.0000
  H   H1170     1.0  0.49448  0.02826  0.84029  1.0000
  H   H1171     1.0  0.55923  0.06492  0.59242  1.0000
  H   H1172     1.0  0.58091  0.08144  0.59509  1.0000
  H   H1173     1.0  0.47001  0.04742  0.63359  1.0000
  Fe  Fe83      1.0  0.60974  0.21921  0.74395  1.0000
  H   H1174     1.0  0.61497  0.21821  0.91508  1.0000
  C   C670      1.0  0.62996  0.18840  0.69283  1.0000
  H   H1175     1.0  0.50382  0.02455  0.96396  1.0000
  H   H1176     1.0  0.49590  0.05667  0.80629  1.0000
  H   H1177     1.0  0.53893  0.06108  0.88769  1.0000
  H   H1178     1.0  0.46970  0.04567  0.77994  1.0000
  H   H1179     1.0  0.63830  0.21401  0.65709  1.0000
  C   C671      1.0  0.54243  0.22525  0.77318  1.0000
  H   H1180     1.0  0.53970  0.08083  0.54355  1.0000
  H   H1181     1.0  0.60039  0.06360  0.59450  1.0000
  H   H1182     1.0  0.55071  0.04263  0.89030  1.0000
  H   H1183     1.0  0.59722  0.04961  0.57550  1.0000
  C   C672      1.0  0.58189  0.20786  0.96597  1.0000
  C   C673      1.0  0.46882  0.04729  0.60538  1.0000
  H   H1184     1.0  0.62602  0.20780  0.57423  1.0000
  H   H1185     1.0  0.65650  0.20594  0.74576  1.0000
  C   C674      1.0  0.64269  0.19863  0.61274  1.0000
  H   H1186     1.0  0.50837  0.04065  0.81115  1.0000
  Fe  Fe84      1.0  0.65004  0.14804  0.55930  1.0000
  H   H1187     1.0  0.62055  0.09967  0.50730  1.0000
  H   H1188     1.0  0.47454  0.05962  0.55081  1.0000
  C   C675      1.0  0.47763  0.04497  0.84481  1.0000
  H   H1189     1.0  0.61224  0.23291  0.85223  1.0000
  H   H1190     1.0  0.44426  0.06267  0.91322  1.0000
  C   C676      1.0  0.51784  0.02949  0.91004  1.0000
  C   C677      1.0  0.53575  0.01176  0.91418  1.0000
  H   H1191     1.0  0.62536  0.19370  0.83221  1.0000
  H   H1192     1.0  0.48874  0.01532  0.66876  1.0000
  H   H1193     1.0  0.59041  0.20290  0.59096  1.0000
  C   C678      1.0  0.60050  0.20217  0.58096  1.0000
  H   H1194     1.0  0.62321  0.10293  0.62858  1.0000
  C   C679      1.0  0.62545  0.22009  0.91532  1.0000
  H   H1195     1.0  0.62715  0.21038  0.92514  1.0000
  N   N38       1.0  0.62956  0.20084  0.62783  1.0000
  H   H1196     1.0  0.60715  0.21026  0.62321  1.0000
  C   C680      1.0  0.44837  0.04570  0.75792  1.0000
  H   H1197     1.0  0.50930  0.01099  0.95254  1.0000
  H   H1198     1.0  0.53585  0.21772  0.76460  1.0000
  H   H1199     1.0  0.46631  0.07152  0.82021  1.0000
  C   C681      1.0  0.58078  0.03497  0.98055  1.0000
  C   C682      1.0  0.55005  0.06192  0.83445  1.0000
  Fe  Fe85      1.0  0.58657  0.23077  0.75597  1.0000
  H   H1200     1.0  0.53839  0.23389  0.91172  1.0000
  C   C683      1.0  0.49451  0.01582  0.92669  1.0000
  C   C684      1.0  0.57565  0.05839  0.64104  1.0000
  H   H1201     1.0  0.58315  0.06733  0.63914  1.0000
  H   H1202     1.0  0.55402  0.04406  0.62698  1.0000
  H   H1203     1.0  0.55832  0.21590  0.93209  1.0000
  C   C685      1.0  0.49912  0.03885  0.83207  1.0000
  H   H1204     1.0  0.59999  0.19325  0.57050  1.0000
  C   C686      1.0  0.55200  0.23042  0.82618  1.0000
  C   C687      1.0  0.54074  0.04129  0.88553  1.0000
  H   H1205     1.0  0.54493  0.04027  0.97502  1.0000
  C   C688      1.0  0.49147  0.09058  0.58667  1.0000
  S   S162      1.0  0.47335  0.99723  0.74762  1.0000
  H   H1206     1.0  0.57651  0.05144  0.66535  1.0000
  H   H1207     1.0  0.42542  0.01659  0.93871  1.0000
  H   H1208     1.0  0.65961  0.15576  0.90807  1.0000
  H   H1209     1.0  0.63715  0.22796  0.95115  1.0000
  H   H1210     1.0  0.55505  0.19319  0.92406  1.0000
  H   H1211     1.0  0.52619  0.00768  0.90895  1.0000
  H   H1212     1.0  0.62654  0.23768  0.93686  1.0000
  C   C689      1.0  0.51266  0.07825  0.55767  1.0000
  H   H1213     1.0  0.64977  0.08611  0.55955  1.0000
  H   H1214     1.0  0.45137  0.05734  0.95065  1.0000
  H   H1215     1.0  0.52205  0.03556  0.97423  1.0000
  H   H1216     1.0  0.60573  0.21081  0.55820  1.0000
  S   S163      1.0  0.62898  0.13784  0.58411  1.0000
  H   H1217     1.0  0.64355  0.19756  0.55559  1.0000
  H   H1218     1.0  0.47233  0.03917  0.59692  1.0000
  C   C690      1.0  0.61832  0.19974  0.83045  1.0000
  H   H1219     1.0  0.54942  0.05329  0.93443  1.0000
  C   C691      1.0  0.53898  0.05476  0.86811  1.0000
  H   H1220     1.0  0.65115  0.12109  0.57343  1.0000
  H   H1221     1.0  0.48107  0.04901  0.86685  1.0000
  H   H1222     1.0  0.52878  0.23794  0.84005  1.0000
  S   S164      1.0  0.65619  0.14320  0.61321  1.0000
  H   H1223     1.0  0.52218  0.06589  0.52774  1.0000
  H   H1224     1.0  0.44103  0.04556  0.93449  1.0000
  H   H1225     1.0  0.44137  0.04387  0.81567  1.0000
  H   H1226     1.0  0.65158  0.10485  0.59419  1.0000
  H   H1227     1.0  0.51162  0.07966  0.58613  1.0000
  H   H1228     1.0  0.55495  0.00430  0.70398  1.0000
  H   H1229     1.0  0.48621  0.06402  0.76381  1.0000
  H   H1230     1.0  0.57840  0.05913  0.58166  1.0000
  C   C692      1.0  0.54716  0.19656  0.93951  1.0000
  S   S165      1.0  0.62492  0.11692  0.68671  1.0000
  Fe  Fe86      1.0  0.62774  0.15728  0.59384  1.0000
  H   H1231     1.0  0.63056  0.19682  0.70528  1.0000
  H   H1232     1.0  0.48467  0.08518  0.53998  1.0000
  C   C693      1.0  0.64878  0.20383  0.57077  1.0000
  C   C694      1.0  0.59439  0.05350  0.59983  1.0000
  H   H1233     1.0  0.47187  0.01218  0.66637  1.0000
  S   S166      1.0  0.63111  0.22115  0.72284  1.0000
  H   H1234     1.0  0.63552  0.08952  0.58216  1.0000
  H   H1235     1.0  0.61228  0.11784  0.55403  1.0000
  C   C695      1.0  0.51526  0.00514  0.83038  1.0000
  H   H1236     1.0  0.63281  0.11082  0.56449  1.0000
  H   H1237     1.0  0.57006  0.08280  0.54207  1.0000
  H   H1238     1.0  0.49254  0.08699  0.73166  1.0000
  H   H1239     1.0  0.48114  0.06960  0.83003  1.0000
  C   C696      1.0  0.48310  0.10029  0.58655  1.0000
  H   H1240     1.0  0.49419  0.05443  0.57302  1.0000
  H   H1241     1.0  0.45148  0.05957  0.79060  1.0000
  H   H1242     1.0  0.62183  0.21363  0.65788  1.0000
  C   C697      1.0  0.45821  0.01632  0.96533  1.0000
  H   H1243     1.0  0.54486  0.21113  0.81714  1.0000
  H   H1244     1.0  0.49676  0.01124  0.90341  1.0000
  H   H1245     1.0  0.52877  0.01716  0.96511  1.0000
  H   H1246     1.0  0.49202  0.06375  0.60540  1.0000
  H   H1247     1.0  0.49404  0.00642  0.61384  1.0000
  H   H1248     1.0  0.48815  0.04273  0.79189  1.0000
  H   H1249     1.0  0.48679  0.00864  0.94903  1.0000
  Fe  Fe87      1.0  0.63470  0.13430  0.63789  1.0000
  C   C698      1.0  0.65667  0.23176  0.71653  1.0000
  H   H1250     1.0  0.52953  0.22209  0.89354  1.0000
  C   C699      1.0  0.63112  0.21339  0.63979  1.0000
  H   H1251     1.0  0.63357  0.14500  0.49745  1.0000
  H   H1252     1.0  0.65743  0.22805  0.82378  1.0000
  H   H1253     1.0  0.61599  0.20094  0.88634  1.0000
  H   H1254     1.0  0.61078  0.21296  0.85780  1.0000
  C   C700      1.0  0.52101  0.24471  0.88644  1.0000
  H   H1255     1.0  0.64797  0.21016  0.78502  1.0000
  H   H1256     1.0  0.65008  0.23592  0.89692  1.0000
  S   S167      1.0  0.63160  0.15301  0.64953  1.0000
  H   H1257     1.0  0.64986  0.21969  0.89422  1.0000
  C   C701      1.0  0.61229  0.11319  0.53062  1.0000
  C   C702      1.0  0.47622  0.06022  0.57827  1.0000
  C   C703      1.0  0.49387  0.08667  0.54939  1.0000
  C   C704      1.0  0.64796  0.22884  0.88000  1.0000
  C   C705      1.0  0.64088  0.08908  0.55462  1.0000
  H   H1258     1.0  0.51916  0.02514  0.88587  1.0000
  H   H1259     1.0  0.45127  0.03924  0.87481  1.0000
  N   N39       1.0  0.63397  0.22644  0.87720  1.0000
  C   C706      1.0  0.56170  0.23755  0.87425  1.0000
  C   C707      1.0  0.63588  0.22610  0.60914  1.0000
  C   C708      1.0  0.53893  0.05741  0.98224  1.0000
  C   C709      1.0  0.61852  0.20785  0.85896  1.0000
  H   H1260     1.0  0.61221  0.23812  0.89442  1.0000
  H   H1261     1.0  0.54105  0.21403  0.94123  1.0000
  H   H1262     1.0  0.58633  0.23729  0.90831  1.0000
  H   H1263     1.0  0.49672  0.08501  0.77548  1.0000
  H   H1264     1.0  0.47239  0.06976  0.75749  1.0000
  H   H1265     1.0  0.53213  0.21873  0.83037  1.0000
  C   C710      1.0  0.48003  0.07021  0.77323  1.0000
  C   C711      1.0  0.46217  0.04474  0.80516  1.0000
  C   C712      1.0  0.47372  0.06591  0.81543  1.0000
  C   C713      1.0  0.63212  0.21738  0.85180  1.0000
  N   N40       1.0  0.53061  0.03361  0.92016  1.0000
  C   C714      1.0  0.54144  0.04787  0.95878  1.0000
  H   H1266     1.0  0.46733  0.01632  0.97287  1.0000
  H   H1267     1.0  0.44946  0.05490  0.85698  1.0000
  H   H1268     1.0  0.54289  0.01608  0.88736  1.0000
  H   H1269     1.0  0.55929  0.21270  0.86927  1.0000
  H   H1270     1.0  0.49095  0.07121  0.50423  1.0000
  H   H1271     1.0  0.43942  0.04816  0.75193  1.0000
  H   H1272     1.0  0.61627  0.12087  0.50466  1.0000
  C   C715      1.0  0.53753  0.23117  0.88541  1.0000
  C   C716      1.0  0.64187  0.24166  0.75021  1.0000
  H   H1273     1.0  0.65756  0.24415  0.82941  1.0000
  C   C717      1.0  0.65835  0.23446  0.84304  1.0000
  C   C718      1.0  0.65707  0.11010  0.53324  1.0000
  C   C719      1.0  0.54925  0.21118  0.92550  1.0000
  C   C720      1.0  0.53237  0.24155  0.86249  1.0000
  C   C721      1.0  0.65058  0.20200  0.77441  1.0000
  C   C722      1.0  0.65831  0.19547  0.79834  1.0000
  H   H1274     1.0  0.62590  0.23732  0.64115  1.0000
  H   H1275     1.0  0.53913  0.23431  0.76852  1.0000
  H   H1276     1.0  0.55184  0.24032  0.81238  1.0000
  H   H1277     1.0  0.51295  0.23583  0.89915  1.0000
  H   H1278     1.0  0.50284  0.06276  0.51167  1.0000
  H   H1279     1.0  0.62370  0.05694  0.56515  1.0000
  H   H1280     1.0  0.62342  0.07934  0.53863  1.0000
  H   H1281     1.0  0.60286  0.00329  0.89884  1.0000
  H   H1282     1.0  0.63653  0.24285  0.83173  1.0000
  H   H1283     1.0  0.51954  0.99867  0.57756  1.0000
  H   H1284     1.0  0.54727  0.19427  0.96909  1.0000
  C   C723      1.0  0.59304  0.00062  0.91775  1.0000
  H   H1285     1.0  0.60756  0.22136  0.97909  1.0000
  S   S168      1.0  0.66028  0.17758  0.65201  1.0000
  C   C724      1.0  0.64674  0.10177  0.48818  1.0000
  S   S169      1.0  0.65997  0.14491  0.50441  1.0000
  H   H1286     1.0  0.65940  0.08829  0.49282  1.0000
  H   H1287     1.0  0.55653  0.13123  0.49360  1.0000
  H   H1288     1.0  0.56825  0.14643  0.48802  1.0000
  C   C725      1.0  0.58078  0.99819  0.98361  1.0000
  C   C726      1.0  0.66217  0.18410  0.78374  1.0000
  C   C727      1.0  0.61751  0.22086  0.98151  1.0000
  H   H1289     1.0  0.64649  0.44200  0.20932  1.0000
  H   H1290     1.0  0.53667  0.36443  0.22560  1.0000
  Fe  Fe88      1.0  0.48889  0.46564  0.12611  1.0000
  S   S170      1.0  0.50754  0.47214  0.08358  1.0000
  S   S171      1.0  0.48435  0.44512  0.16060  1.0000
  C   C728      1.0  0.52963  0.44030  0.36059  1.0000
  Fe  Fe89      1.0  0.49672  0.48112  0.04575  1.0000
  H   H1291     1.0  0.60966  0.49177  0.46796  1.0000
  S   S172      1.0  0.49230  0.48327  0.14900  1.0000
  S   S173      1.0  0.47744  0.47340  0.08713  1.0000
  Fe  Fe90      1.0  0.56257  0.44160  0.23492  1.0000
  S   S174      1.0  0.57143  0.42732  0.26509  1.0000
  S   S175      1.0  0.56859  0.46276  0.23287  1.0000
  Fe  Fe91      1.0  0.54457  0.42160  0.21130  1.0000
  S   S176      1.0  0.55159  0.40529  0.24038  1.0000
  S   S177      1.0  0.52947  0.41708  0.17871  1.0000
  Fe  Fe92      1.0  0.55090  0.41530  0.28682  1.0000
  S   S178      1.0  0.54272  0.40363  0.34588  1.0000
  Fe  Fe93      1.0  0.57163  0.41841  0.21661  1.0000
  S   S179      1.0  0.58996  0.41203  0.19771  1.0000
  S   S180      1.0  0.54191  0.43032  0.26005  1.0000
  S   S181      1.0  0.56478  0.43407  0.18393  1.0000
  S   S182      1.0  0.59076  0.46866  0.37136  1.0000
  C   C729      1.0  0.52946  0.46786  0.26257  1.0000
  C   C730      1.0  0.50997  0.45646  0.24627  1.0000
  N   N41       1.0  0.63474  0.43663  0.17208  1.0000
  H   H1292     1.0  0.57667  0.28004  0.01821  1.0000
  S   S183      1.0  0.60088  0.26590  0.08033  1.0000
  H   H1293     1.0  0.59748  0.35939  0.20655  1.0000
  Fe  Fe94      1.0  0.61920  0.34381  0.05571  1.0000
  S   S184      1.0  0.60017  0.33575  0.09724  1.0000
  C   C731      1.0  0.58814  0.37290  0.00997  1.0000
  Fe  Fe95      1.0  0.63282  0.35629  0.10831  1.0000
  S   S185      1.0  0.61494  0.34866  0.15530  1.0000
  C   C732      1.0  0.64435  0.42915  0.11436  1.0000
  Fe  Fe96      1.0  0.61228  0.33000  0.13607  1.0000
  S   S186      1.0  0.60685  0.30935  0.17105  1.0000
  Fe  Fe97      1.0  0.60433  0.35499  0.11251  1.0000
  S   S187      1.0  0.58845  0.36566  0.11869  1.0000
  S   S188      1.0  0.63115  0.33707  0.09352  1.0000
  S   S189      1.0  0.62232  0.36355  0.06678  1.0000
  H   H1294     1.0  0.52409  0.46463  0.17813  1.0000
  C   C733      1.0  0.54864  0.47305  0.14194  1.0000
  Fe  Fe98      1.0  0.60821  0.48569  0.35042  1.0000
  C   C734      1.0  0.64660  0.38372  0.15217  1.0000
  H   H1295     1.0  0.53468  0.43778  0.33580  1.0000
  H   H1296     1.0  0.54532  0.48582  0.23687  1.0000
  H   H1297     1.0  0.56508  0.28830  0.06822  1.0000
  H   H1298     1.0  0.57642  0.30405  0.04999  1.0000
  H   H1299     1.0  0.59624  0.33425  0.01625  1.0000
  C   C735      1.0  0.60181  0.27747  0.10734  1.0000
  C   C736      1.0  0.59959  0.27409  0.14573  1.0000
  C   C737      1.0  0.60093  0.28390  0.16529  1.0000
  C   C738      1.0  0.60456  0.29709  0.14657  1.0000
  C   C739      1.0  0.60673  0.30039  0.10827  1.0000
  C   C740      1.0  0.60534  0.29064  0.08889  1.0000
  H   H1300     1.0  0.59687  0.26398  0.16029  1.0000
  H   H1301     1.0  0.59923  0.28127  0.19495  1.0000
  H   H1302     1.0  0.60961  0.31048  0.09345  1.0000
  H   H1303     1.0  0.60721  0.29336  0.05924  1.0000
  C   C741      1.0  0.58937  0.39904  0.17609  1.0000
  C   C742      1.0  0.60024  0.39390  0.17005  1.0000
  C   C743      1.0  0.60004  0.38352  0.15298  1.0000
  C   C744      1.0  0.58901  0.37833  0.14144  1.0000
  C   C745      1.0  0.57819  0.38353  0.14729  1.0000
  C   C746      1.0  0.57834  0.39383  0.16462  1.0000
  H   H1304     1.0  0.60885  0.39796  0.17848  1.0000
  H   H1305     1.0  0.60843  0.37957  0.14853  1.0000
  H   H1306     1.0  0.56964  0.37957  0.13829  1.0000
  H   H1307     1.0  0.56997  0.39781  0.16883  1.0000
  H   H1308     1.0  0.46431  0.45170  0.05129  1.0000
  H   H1309     1.0  0.61852  0.45469  0.18451  1.0000
  H   H1310     1.0  0.56525  0.42368  0.34662  1.0000
  C   C747      1.0  0.57371  0.46463  0.27286  1.0000
  C   C748      1.0  0.58215  0.47629  0.27261  1.0000
  C   C749      1.0  0.58675  0.47777  0.30379  1.0000
  C   C750      1.0  0.58316  0.46748  0.33511  1.0000
  C   C751      1.0  0.57432  0.45594  0.33599  1.0000
  C   C752      1.0  0.56955  0.45453  0.30485  1.0000
  H   H1311     1.0  0.58555  0.48402  0.24793  1.0000
  H   H1312     1.0  0.53129  0.49031  0.03415  1.0000
  H   H1313     1.0  0.57146  0.44799  0.36025  1.0000
  H   H1314     1.0  0.56275  0.44560  0.30556  1.0000
  C   C753      1.0  0.49724  0.43795  0.16713  1.0000
  C   C754      1.0  0.51033  0.44496  0.15463  1.0000
  C   C755      1.0  0.52034  0.43879  0.15940  1.0000
  C   C756      1.0  0.51728  0.42556  0.17681  1.0000
  C   C757      1.0  0.50421  0.41858  0.18901  1.0000
  C   C758      1.0  0.49426  0.42476  0.18455  1.0000
  H   H1315     1.0  0.51274  0.45508  0.14084  1.0000
  H   H1316     1.0  0.53041  0.44416  0.14878  1.0000
  H   H1317     1.0  0.50176  0.40830  0.20174  1.0000
  H   H1318     1.0  0.48420  0.41922  0.19415  1.0000
  Fe  Fe99      1.0  0.51034  0.49019  0.10319  1.0000
  C   C759      1.0  0.65604  0.43290  0.08129  1.0000
  H   H1319     1.0  0.55873  0.34187  0.37864  1.0000
  H   H1320     1.0  0.57250  0.34671  0.39753  1.0000
  H   H1321     1.0  0.65345  0.33839  0.03632  1.0000
  H   H1322     1.0  0.64108  0.26928  0.06825  1.0000
  H   H1323     1.0  0.55909  0.35427  0.31467  1.0000
  H   H1324     1.0  0.51822  0.44230  0.27796  1.0000
  H   H1325     1.0  0.58647  0.46328  0.47197  1.0000
  C   C760      1.0  0.65608  0.38194  0.12443  1.0000
  H   H1326     1.0  0.64607  0.40374  0.08476  1.0000
  S   S190      1.0  0.50424  0.47895  0.98815  1.0000
  C   C761      1.0  0.56400  0.45332  0.44679  1.0000
  H   H1327     1.0  0.61322  0.40228  0.27839  1.0000
  H   H1328     1.0  0.55768  0.48067  0.12751  1.0000
  C   C762      1.0  0.65101  0.29403  0.05900  1.0000
  H   H1329     1.0  0.52973  0.46023  0.07171  1.0000
  H   H1330     1.0  0.52952  0.42233  0.39569  1.0000
  H   H1331     1.0  0.59739  0.49284  0.11219  1.0000
  C   C763      1.0  0.63710  0.39763  0.08081  1.0000
  C   C764      1.0  0.54375  0.43491  0.46120  1.0000
  C   C765      1.0  0.57758  0.29061  0.01438  1.0000
  C   C766      1.0  0.46717  0.44340  0.06662  1.0000
  Fe  Fe100     1.0  0.63750  0.49239  0.32204  1.0000
  C   C767      1.0  0.50832  0.44339  0.05833  1.0000
  H   H1332     1.0  0.56947  0.44844  0.42858  1.0000
  H   H1333     1.0  0.56805  0.46397  0.43647  1.0000
  H   H1334     1.0  0.50983  0.48004  0.27981  1.0000
  C   C768      1.0  0.55267  0.36632  0.25254  1.0000
  N   N42       1.0  0.57225  0.37241  0.28184  1.0000
  H   H1335     1.0  0.63976  0.40869  0.02621  1.0000
  C   C769      1.0  0.57516  0.29348  0.05241  1.0000
  C   C770      1.0  0.64535  0.45990  0.17550  1.0000
  C   C771      1.0  0.66192  0.40294  0.15740  1.0000
  H   H1336     1.0  0.60787  0.43066  0.08457  1.0000
  C   C772      1.0  0.64458  0.46885  0.20171  1.0000
  H   H1337     1.0  0.60266  0.46988  0.44580  1.0000
  H   H1338     1.0  0.51102  0.41855  0.07070  1.0000
  H   H1339     1.0  0.63988  0.42204  0.35223  1.0000
  C   C773      1.0  0.50131  0.42947  0.01639  1.0000
  H   H1340     1.0  0.64882  0.25527  0.11070  1.0000
  H   H1341     1.0  0.61557  0.39813  0.23459  1.0000
  H   H1342     1.0  0.48863  0.38625  0.11105  1.0000
  H   H1343     1.0  0.50536  0.39489  0.09027  1.0000
  H   H1344     1.0  0.54915  0.42994  0.44304  1.0000
  H   H1345     1.0  0.49024  0.40475  0.05909  1.0000
  C   C774      1.0  0.58142  0.38434  0.28577  1.0000
  C   C775      1.0  0.56197  0.37681  0.26452  1.0000
  C   C776      1.0  0.57530  0.39263  0.30954  1.0000
  C   C777      1.0  0.58581  0.40374  0.31358  1.0000
  H   H1346     1.0  0.58631  0.39081  0.25804  1.0000
  H   H1347     1.0  0.58944  0.38185  0.29746  1.0000
  H   H1348     1.0  0.56668  0.38497  0.23980  1.0000
  H   H1349     1.0  0.55561  0.38068  0.28379  1.0000
  H   H1350     1.0  0.56842  0.39704  0.29655  1.0000
  H   H1351     1.0  0.57005  0.38673  0.33760  1.0000
  H   H1352     1.0  0.58122  0.40969  0.32994  1.0000
  H   H1353     1.0  0.59267  0.39990  0.32815  1.0000
  H   H1354     1.0  0.59124  0.41008  0.28612  1.0000
  H   H1355     1.0  0.53704  0.37617  0.25312  1.0000
  H   H1356     1.0  0.54851  0.37986  0.20884  1.0000
  C   C778      1.0  0.51215  0.44270  0.25762  1.0000
  H   H1357     1.0  0.48352  0.43236  0.09847  1.0000
  H   H1358     1.0  0.55094  0.46346  0.14597  1.0000
  H   H1359     1.0  0.57923  0.35173  0.33007  1.0000
  C   C779      1.0  0.54301  0.47556  0.17905  1.0000
  H   H1360     1.0  0.60889  0.43580  0.29381  1.0000
  H   H1361     1.0  0.59679  0.43378  0.45940  1.0000
  C   C780      1.0  0.56605  0.35035  0.38090  1.0000
  H   H1362     1.0  0.61181  0.41982  0.22805  1.0000
  H   H1363     1.0  0.64144  0.29230  0.19684  1.0000
  H   H1364     1.0  0.53584  0.46103  0.26128  1.0000
  C   C781      1.0  0.50118  0.41992  0.08067  1.0000
  H   H1365     1.0  0.59214  0.42162  0.11333  1.0000
  C   C782      1.0  0.55073  0.40677  0.38072  1.0000
  C   C783      1.0  0.54608  0.39853  0.41622  1.0000
  H   H1366     1.0  0.61446  0.45762  0.25418  1.0000
  H   H1367     1.0  0.63550  0.42952  0.10401  1.0000
  C   C784      1.0  0.62351  0.43968  0.15677  1.0000
  H   H1368     1.0  0.55807  0.36198  0.23255  1.0000
  H   H1369     1.0  0.57681  0.42692  0.39570  1.0000
  C   C785      1.0  0.49141  0.40666  0.08597  1.0000
  C   C786      1.0  0.59668  0.46455  0.47391  1.0000
  H   H1370     1.0  0.51691  0.43972  0.23349  1.0000
  H   H1371     1.0  0.56099  0.35647  0.39553  1.0000
  N   N43       1.0  0.49910  0.43140  0.05512  1.0000
  H   H1372     1.0  0.57983  0.37025  0.22702  1.0000
  C   C787      1.0  0.61964  0.39685  0.04532  1.0000
  C   C788      1.0  0.49922  0.43253  0.27482  1.0000
  H   H1373     1.0  0.49720  0.39714  0.13375  1.0000
  H   H1374     1.0  0.62306  0.38930  0.03330  1.0000
  H   H1375     1.0  0.50416  0.45632  0.22502  1.0000
  C   C789      1.0  0.51778  0.47989  0.22198  1.0000
  H   H1376     1.0  0.58195  0.29006  0.06803  1.0000
  H   H1377     1.0  0.53087  0.41248  0.45076  1.0000
  C   C790      1.0  0.57417  0.35823  0.34278  1.0000
  C   C791      1.0  0.52553  0.43577  0.43044  1.0000
  H   H1378     1.0  0.61782  0.43090  0.15055  1.0000
  H   H1379     1.0  0.54474  0.45519  0.46414  1.0000
  H   H1380     1.0  0.59353  0.42937  0.06609  1.0000
  N   N44       1.0  0.62230  0.43856  0.34774  1.0000
  C   C792      1.0  0.63184  0.44535  0.36647  1.0000
  C   C793      1.0  0.62928  0.43298  0.31857  1.0000
  C   C794      1.0  0.61648  0.44860  0.32848  1.0000
  C   C795      1.0  0.61136  0.42817  0.37491  1.0000
  C   C796      1.0  0.61544  0.41709  0.39813  1.0000
  C   C797      1.0  0.62609  0.45109  0.39814  1.0000
  C   C798      1.0  0.60646  0.44352  0.30687  1.0000
  H   H1381     1.0  0.58614  0.49126  0.18005  1.0000
  C   C799      1.0  0.60384  0.40808  0.42782  1.0000
  C   C800      1.0  0.63674  0.45751  0.41487  1.0000
  C   C801      1.0  0.60543  0.45439  0.27646  1.0000
  H   H1382     1.0  0.63937  0.45332  0.34567  1.0000
  H   H1383     1.0  0.63725  0.43877  0.37875  1.0000
  C   C802      1.0  0.62148  0.41885  0.23141  1.0000
  H   H1384     1.0  0.63258  0.44020  0.29139  1.0000
  H   H1385     1.0  0.62441  0.45680  0.30949  1.0000
  H   H1386     1.0  0.61117  0.45308  0.34833  1.0000
  H   H1387     1.0  0.60535  0.43250  0.39365  1.0000
  H   H1388     1.0  0.60443  0.42341  0.36048  1.0000
  H   H1389     1.0  0.62294  0.42084  0.41220  1.0000
  H   H1390     1.0  0.61924  0.41113  0.38021  1.0000
  H   H1391     1.0  0.62113  0.45855  0.38852  1.0000
  H   H1392     1.0  0.61916  0.44329  0.42058  1.0000
  H   H1393     1.0  0.59669  0.43940  0.32616  1.0000
  C   C803      1.0  0.53183  0.45646  0.04676  1.0000
  H   H1394     1.0  0.64963  0.43730  0.32263  1.0000
  C   C804      1.0  0.56816  0.41904  0.40160  1.0000
  H   H1395     1.0  0.59565  0.40445  0.41572  1.0000
  H   H1396     1.0  0.64481  0.37854  0.99408  1.0000
  H   H1397     1.0  0.58070  0.48178  0.47141  1.0000
  H   H1398     1.0  0.64161  0.45029  0.42702  1.0000
  H   H1399     1.0  0.64412  0.46545  0.39372  1.0000
  H   H1400     1.0  0.63242  0.46176  0.43692  1.0000
  H   H1401     1.0  0.54165  0.47333  0.12409  1.0000
  H   H1402     1.0  0.60389  0.46279  0.28751  1.0000
  C   C805      1.0  0.53006  0.46538  0.19868  1.0000
  H   H1403     1.0  0.64865  0.42807  0.26765  1.0000
  C   C806      1.0  0.63523  0.28657  0.14980  1.0000
  C   C807      1.0  0.63485  0.29448  0.17885  1.0000
  H   H1404     1.0  0.51901  0.43773  0.36243  1.0000
  H   H1405     1.0  0.51346  0.47976  0.19768  1.0000
  C   C808      1.0  0.60276  0.44742  0.16207  1.0000
  H   H1406     1.0  0.63123  0.27619  0.16441  1.0000
  H   H1407     1.0  0.62858  0.28916  0.13273  1.0000
  H   H1408     1.0  0.59710  0.45091  0.26470  1.0000
  H   H1409     1.0  0.53284  0.45608  0.20499  1.0000
  H   H1410     1.0  0.63767  0.30503  0.16547  1.0000
  H   H1411     1.0  0.63062  0.27321  0.10289  1.0000
  H   H1412     1.0  0.59778  0.43843  0.15557  1.0000
  C   C809      1.0  0.64051  0.27171  0.09548  1.0000
  H   H1413     1.0  0.60046  0.41326  0.44866  1.0000
  C   C810      1.0  0.58622  0.47356  0.14053  1.0000
  C   C811      1.0  0.54317  0.37210  0.23393  1.0000
  C   C812      1.0  0.52545  0.41583  0.47324  1.0000
  H   H1414     1.0  0.62480  0.29205  0.19631  1.0000
  H   H1415     1.0  0.57591  0.46799  0.15215  1.0000
  N   N45       1.0  0.61235  0.40355  0.02099  1.0000
  C   C813      1.0  0.60866  0.41487  0.03385  1.0000
  H   H1416     1.0  0.62990  0.41388  0.06171  1.0000
  C   C814      1.0  0.59985  0.39381  0.02284  1.0000
  C   C815      1.0  0.63911  0.44543  0.19592  1.0000
  H   H1417     1.0  0.62935  0.40288  0.25362  1.0000
  C   C816      1.0  0.60044  0.41179  0.07400  1.0000
  H   H1418     1.0  0.61302  0.39146  0.07257  1.0000
  H   H1419     1.0  0.64303  0.26167  0.14894  1.0000
  C   C817      1.0  0.64166  0.42868  0.32481  1.0000
  H   H1420     1.0  0.50090  0.42176  0.10858  1.0000
  C   C818      1.0  0.59842  0.42416  0.08498  1.0000
  H   H1421     1.0  0.62474  0.42480  0.24996  1.0000
  H   H1422     1.0  0.60313  0.41936  0.01540  1.0000
  H   H1423     1.0  0.61737  0.42270  0.03166  1.0000
  S   S191      1.0  0.62469  0.34084  0.99875  1.0000
  H   H1424     1.0  0.59544  0.45041  0.18093  1.0000
  H   H1425     1.0  0.52620  0.48853  0.21246  1.0000
  H   H1426     1.0  0.59421  0.38960  0.05191  1.0000
  H   H1427     1.0  0.53202  0.48803  0.26853  1.0000
  H   H1428     1.0  0.52590  0.43906  0.02856  1.0000
  C   C819      1.0  0.61369  0.44517  0.18060  1.0000
  H   H1429     1.0  0.58217  0.37800  0.99471  1.0000
  H   H1430     1.0  0.59066  0.40537  0.07729  1.0000
  H   H1431     1.0  0.60535  0.40704  0.09361  1.0000
  H   H1432     1.0  0.50353  0.45767  0.27107  1.0000
  H   H1433     1.0  0.64826  0.46535  0.22597  1.0000
  C   C820      1.0  0.64654  0.42175  0.29581  1.0000
  H   H1434     1.0  0.62734  0.41604  0.17740  1.0000
  H   H1435     1.0  0.65393  0.29954  0.11950  1.0000
  H   H1436     1.0  0.62980  0.39425  0.10764  1.0000
  S   S192      1.0  0.62108  0.48914  0.29434  1.0000
  C   C821      1.0  0.53803  0.48119  0.26318  1.0000
  C   C822      1.0  0.55243  0.40054  0.44436  1.0000
  H   H1437     1.0  0.63022  0.31104  0.02379  1.0000
  H   H1438     1.0  0.54338  0.43550  0.39071  1.0000
  H   H1439     1.0  0.63636  0.30358  0.08078  1.0000
  H   H1440     1.0  0.48177  0.40643  0.10285  1.0000
  H   H1441     1.0  0.59044  0.46948  0.11791  1.0000
  C   C823      1.0  0.57946  0.36579  0.25626  1.0000
  H   H1442     1.0  0.59383  0.34698  0.24878  1.0000
  C   C824      1.0  0.63829  0.29834  0.05893  1.0000
  H   H1443     1.0  0.64223  0.39539  0.19040  1.0000
  H   H1444     1.0  0.65323  0.26066  0.02471  1.0000
  H   H1445     1.0  0.65495  0.43719  0.15091  1.0000
  H   H1446     1.0  0.60001  0.37635  0.24302  1.0000
  H   H1447     1.0  0.49422  0.43439  0.30077  1.0000
  C   C825      1.0  0.56167  0.41717  0.37368  1.0000
  C   C826      1.0  0.52282  0.44301  0.05257  1.0000
  C   C827      1.0  0.48100  0.44351  0.04791  1.0000
  H   H1448     1.0  0.54792  0.49557  0.00708  1.0000
  H   H1449     1.0  0.55019  0.47478  0.19599  1.0000
  H   H1450     1.0  0.55142  0.47286  0.29026  1.0000
  H   H1451     1.0  0.56519  0.45036  0.47521  1.0000
  H   H1452     1.0  0.58956  0.36454  0.99829  1.0000
  H   H1453     1.0  0.64058  0.46313  0.15335  1.0000
  H   H1454     1.0  0.63708  0.37698  0.16110  1.0000
  S   S193      1.0  0.65297  0.36901  0.10270  1.0000
  H   H1455     1.0  0.59817  0.29770  0.00768  1.0000
  S   S194      1.0  0.62440  0.48744  0.37905  1.0000
  C   C828      1.0  0.59389  0.36637  0.25649  1.0000
  C   C829      1.0  0.59896  0.35725  0.23490  1.0000
  H   H1456     1.0  0.57410  0.35543  0.26132  1.0000
  H   H1457     1.0  0.55861  0.36746  0.33503  1.0000
  H   H1458     1.0  0.58140  0.36633  0.34696  1.0000
  H   H1459     1.0  0.54680  0.35843  0.27665  1.0000
  C   C830      1.0  0.65766  0.35857  0.00680  1.0000
  H   H1460     1.0  0.49277  0.43260  0.25538  1.0000
  H   H1461     1.0  0.62998  0.28995  0.06262  1.0000
  C   C831      1.0  0.59992  0.33646  0.98672  1.0000
  H   H1462     1.0  0.48084  0.44257  0.01956  1.0000
  C   C832      1.0  0.64099  0.25941  0.12315  1.0000
  H   H1463     1.0  0.62719  0.44697  0.12978  1.0000
  H   H1464     1.0  0.59440  0.48880  0.43332  1.0000
  C   C833      1.0  0.56541  0.36313  0.31857  1.0000
  H   H1465     1.0  0.53315  0.45092  0.35732  1.0000
  H   H1466     1.0  0.50102  0.42274  0.28113  1.0000
  C   C834      1.0  0.53267  0.43282  0.39477  1.0000
  H   H1467     1.0  0.59346  0.39868  0.00852  1.0000
  C   C835      1.0  0.59114  0.29864  0.99015  1.0000
  N   N46       1.0  0.52208  0.46763  0.23269  1.0000
  H   H1468     1.0  0.62247  0.42449  0.31434  1.0000
  H   H1469     1.0  0.65784  0.44320  0.06657  1.0000
  C   C836      1.0  0.61984  0.40467  0.25061  1.0000
  H   H1470     1.0  0.59170  0.47238  0.16225  1.0000
  C   C837      1.0  0.59020  0.48906  0.46208  1.0000
  C   C838      1.0  0.63137  0.42267  0.19363  1.0000
  C   C839      1.0  0.56353  0.41076  0.43706  1.0000
  H   H1471     1.0  0.64051  0.30276  0.99956  1.0000
  C   C840      1.0  0.49597  0.39559  0.10650  1.0000
  H   H1472     1.0  0.65358  0.29059  0.03348  1.0000
  C   C841      1.0  0.63190  0.40540  0.05184  1.0000
  H   H1473     1.0  0.58293  0.44035  0.46439  1.0000
  C   C842      1.0  0.64932  0.28892  0.12657  1.0000
  S   S195      1.0  0.65171  0.47971  0.31718  1.0000
  H   H1474     1.0  0.63958  0.38913  0.07193  1.0000
  H   H1475     1.0  0.54210  0.45586  0.04156  1.0000
  H   H1476     1.0  0.49222  0.42350  0.01239  1.0000
  N   N47       1.0  0.65093  0.28382  0.09217  1.0000
  H   H1477     1.0  0.64349  0.41900  0.12879  1.0000
  H   H1478     1.0  0.59536  0.36375  0.28457  1.0000
  H   H1479     1.0  0.66127  0.36174  0.02977  1.0000
  H   H1480     1.0  0.60953  0.35853  0.23302  1.0000
  N   N48       1.0  0.52929  0.43041  0.46527  1.0000
  H   H1481     1.0  0.53824  0.47596  0.32120  1.0000
  H   H1482     1.0  0.65426  0.42681  0.06166  1.0000
  C   C843      1.0  0.64954  0.39417  0.16865  1.0000
  H   H1483     1.0  0.53764  0.39043  0.42186  1.0000
  C   C844      1.0  0.63927  0.30768  0.02244  1.0000
  H   H1484     1.0  0.52260  0.46414  0.29026  1.0000
  C   C845      1.0  0.53757  0.49399  0.00580  1.0000
  H   H1485     1.0  0.65464  0.28456  0.14591  1.0000
  C   C846      1.0  0.64624  0.43838  0.14037  1.0000
  C   C847      1.0  0.60137  0.38202  0.00651  1.0000
  H   H1486     1.0  0.51495  0.43183  0.43329  1.0000
  C   C848      1.0  0.50759  0.48243  0.25250  1.0000
  H   H1487     1.0  0.65581  0.46118  0.16259  1.0000
  H   H1488     1.0  0.54184  0.48557  0.17365  1.0000
  C   C849      1.0  0.62821  0.24894  0.13291  1.0000
  H   H1489     1.0  0.64722  0.35840  0.01127  1.0000
  H   H1490     1.0  0.64758  0.31632  0.01677  1.0000
  H   H1491     1.0  0.59699  0.44838  0.42686  1.0000
  H   H1492     1.0  0.60667  0.45518  0.13623  1.0000
  H   H1493     1.0  0.63924  0.41261  0.29812  1.0000
  H   H1494     1.0  0.60675  0.39963  0.44209  1.0000
  H   H1495     1.0  0.63442  0.46938  0.21119  1.0000
  H   H1496     1.0  0.64037  0.42002  0.19875  1.0000
  H   H1497     1.0  0.53063  0.46329  0.02270  1.0000
  H   H1498     1.0  0.50088  0.44930  0.98797  1.0000
  H   H1499     1.0  0.64904  0.44842  0.12265  1.0000
  H   H1500     1.0  0.49777  0.47631  0.25435  1.0000
  H   H1501     1.0  0.62013  0.25231  0.14749  1.0000
  H   H1502     1.0  0.50777  0.45221  0.03912  1.0000
  Fe  Fe101     1.0  0.48271  0.49188  0.10626  1.0000
  H   H1503     1.0  0.59339  0.48679  0.30314  1.0000
  C   C850      1.0  0.59368  0.44294  0.45617  1.0000
  H   H1504     1.0  0.60921  0.43860  0.20813  1.0000
  H   H1505     1.0  0.47627  0.47270  0.99038  1.0000
  H   H1506     1.0  0.65059  0.47879  0.18727  1.0000
  H   H1507     1.0  0.52693  0.44645  0.42577  1.0000
  H   H1508     1.0  0.63096  0.44501  0.21902  1.0000
  H   H1509     1.0  0.48744  0.45302  0.04687  1.0000
  H   H1510     1.0  0.47825  0.42325  0.06752  1.0000
  H   H1511     1.0  0.54905  0.39392  0.47131  1.0000
  H   H1512     1.0  0.50859  0.42370  0.01188  1.0000
  H   H1513     1.0  0.50533  0.44508  0.08616  1.0000
  H   H1514     1.0  0.46658  0.44429  0.09539  1.0000
  C   C851      1.0  0.48529  0.43210  0.06886  1.0000
  C   C852      1.0  0.54524  0.47967  0.29387  1.0000
  C   C853      1.0  0.54967  0.44976  0.44667  1.0000
  S   S196      1.0  0.57278  0.41265  0.46991  1.0000
  H   H1515     1.0  0.52426  0.43672  0.07734  1.0000
  H   H1516     1.0  0.60689  0.37624  0.02142  1.0000
  H   H1517     1.0  0.58283  0.36906  0.03938  1.0000
  C   C854      1.0  0.65328  0.25063  0.03391  1.0000
  H   H1518     1.0  0.46017  0.43429  0.06687  1.0000
  H   H1519     1.0  0.56978  0.29315  0.00155  1.0000
  H   H1520     1.0  0.61992  0.47386  0.47961  1.0000
  H   H1521     1.0  0.62584  0.24654  0.10758  1.0000
  H   H1522     1.0  0.63542  0.42387  0.98869  1.0000
  H   H1523     1.0  0.54897  0.45317  0.41795  1.0000
  H   H1524     1.0  0.46625  0.49338  0.18841  1.0000
  H   H1525     1.0  0.51504  0.41222  0.47334  1.0000
  H   H1526     1.0  0.65568  0.41928  0.30012  1.0000
  C   C855      1.0  0.66133  0.47895  0.27519  1.0000
  H   H1527     1.0  0.58137  0.48838  0.10439  1.0000
  C   C856      1.0  0.58706  0.48787  0.12568  1.0000
  H   H1528     1.0  0.55158  0.48919  0.29327  1.0000
  H   H1529     1.0  0.60032  0.27928  0.98996  1.0000
  C   C857      1.0  0.58166  0.49405  0.15684  1.0000
  H   H1530     1.0  0.60990  0.45173  0.47500  1.0000
  C   C858      1.0  0.65879  0.34468  0.00882  1.0000
  H   H1531     1.0  0.65449  0.34078  0.98774  1.0000
  H   H1532     1.0  0.65858  0.30309  0.05584  1.0000
  H   H1533     1.0  0.53534  0.48655  0.99007  1.0000
  C   C859      1.0  0.59928  0.45087  0.48094  1.0000
  H   H1534     1.0  0.57115  0.48912  0.16786  1.0000
  H   H1535     1.0  0.59094  0.30903  0.98466  1.0000
  C   C860      1.0  0.50627  0.44190  0.98418  1.0000
  Fe  Fe102     1.0  0.48605  0.47363  0.80618  1.0000
  S   S197      1.0  0.47838  0.46616  0.76115  1.0000
  S   S198      1.0  0.47394  0.46932  0.86492  1.0000
  H   H1536     1.0  0.55588  0.25551  0.87719  1.0000
  H   H1537     1.0  0.50666  0.43325  0.56488  1.0000
  H   H1538     1.0  0.45685  0.47558  0.72333  1.0000
  C   C861      1.0  0.57573  0.46775  0.53977  1.0000
  Fe  Fe103     1.0  0.49837  0.46317  0.74238  1.0000
  S   S199      1.0  0.50166  0.44421  0.73082  1.0000
  S   S200      1.0  0.50525  0.46903  0.79023  1.0000
  Fe  Fe104     1.0  0.57847  0.42338  0.58550  1.0000
  S   S201      1.0  0.56064  0.41567  0.63203  1.0000
  S   S202      1.0  0.59780  0.43548  0.58737  1.0000
  Fe  Fe105     1.0  0.56573  0.41103  0.53122  1.0000
  S   S203      1.0  0.54684  0.40194  0.57396  1.0000
  H   H1539     1.0  0.65174  0.37222  0.65845  1.0000
  Fe  Fe106     1.0  0.54961  0.42118  0.58960  1.0000
  S   S204      1.0  0.53560  0.43416  0.58835  1.0000
  Fe  Fe107     1.0  0.55949  0.39717  0.61311  1.0000
  S   S205      1.0  0.55530  0.37830  0.65668  1.0000
  S   S206      1.0  0.56772  0.43039  0.54459  1.0000
  S   S207      1.0  0.57803  0.40469  0.56900  1.0000
  S   S208      1.0  0.59363  0.47553  0.68560  1.0000
  H   H1540     1.0  0.44680  0.45740  0.80324  1.0000
  C   C862      1.0  0.65450  0.47975  0.77369  1.0000
  C   C863      1.0  0.43730  0.45213  0.69648  1.0000
  H   H1541     1.0  0.66088  0.40470  0.98115  1.0000
  H   H1542     1.0  0.62205  0.42863  0.64552  1.0000
  C   C864      1.0  0.63927  0.42343  0.93199  1.0000
  H   H1543     1.0  0.42997  0.45746  0.76707  1.0000
  Fe  Fe108     1.0  0.60250  0.34409  0.75746  1.0000
  S   S209      1.0  0.62061  0.33692  0.74915  1.0000
  S   S210      1.0  0.60104  0.35571  0.70284  1.0000
  Fe  Fe109     1.0  0.59743  0.33461  0.84043  1.0000
  S   S211      1.0  0.61518  0.32695  0.83728  1.0000
  S   S212      1.0  0.58557  0.33328  0.89699  1.0000
  Fe  Fe110     1.0  0.62500  0.34567  0.79529  1.0000
  C   C865      1.0  0.65257  0.25001  0.75679  1.0000
  Fe  Fe111     1.0  0.60891  0.31887  0.79173  1.0000
  S   S213      1.0  0.61220  0.29900  0.78949  1.0000
  S   S214      1.0  0.60766  0.35386  0.80129  1.0000
  S   S215      1.0  0.59037  0.32533  0.79732  1.0000
  H   H1544     1.0  0.63919  0.24690  0.60311  1.0000
  H   H1545     1.0  0.62986  0.44180  0.68587  1.0000
  C   C866      1.0  0.59604  0.33721  0.92552  1.0000
  C   C867      1.0  0.60942  0.34189  0.91037  1.0000
  C   C868      1.0  0.61804  0.34313  0.93323  1.0000
  C   C869      1.0  0.63510  0.45137  0.68822  1.0000
  H   H1546     1.0  0.61319  0.34438  0.88096  1.0000
  H   H1547     1.0  0.62841  0.34631  0.92116  1.0000
  C   C870      1.0  0.58839  0.26300  0.76349  1.0000
  C   C871      1.0  0.60103  0.26379  0.76784  1.0000
  C   C872      1.0  0.60813  0.27494  0.77551  1.0000
  C   C873      1.0  0.60271  0.28541  0.77914  1.0000
  C   C874      1.0  0.59004  0.28466  0.77489  1.0000
  C   C875      1.0  0.58294  0.27351  0.76690  1.0000
  H   H1548     1.0  0.60542  0.25588  0.76484  1.0000
  H   H1549     1.0  0.61797  0.27552  0.77836  1.0000
  H   H1550     1.0  0.58572  0.29261  0.77797  1.0000
  C   C876      1.0  0.62019  0.40789  0.98134  1.0000
  C   C877      1.0  0.43811  0.46625  0.76090  1.0000
  H   H1551     1.0  0.65054  0.48231  0.79874  1.0000
  H   H1552     1.0  0.60070  0.47064  0.81583  1.0000
  H   H1553     1.0  0.63434  0.43303  0.74960  1.0000
  H   H1554     1.0  0.61311  0.47930  0.55684  1.0000
  H   H1555     1.0  0.61263  0.46181  0.52199  1.0000
  C   C878      1.0  0.56831  0.37298  0.67129  1.0000
  C   C879      1.0  0.58101  0.37740  0.64931  1.0000
  C   C880      1.0  0.59098  0.37225  0.66000  1.0000
  C   C881      1.0  0.58845  0.36288  0.69322  1.0000
  C   C882      1.0  0.57587  0.35879  0.71600  1.0000
  C   C883      1.0  0.56580  0.36369  0.70477  1.0000
  H   H1556     1.0  0.58308  0.38446  0.62343  1.0000
  H   H1557     1.0  0.60065  0.37540  0.64207  1.0000
  H   H1558     1.0  0.57381  0.35159  0.74164  1.0000
  H   H1559     1.0  0.55600  0.36023  0.72197  1.0000
  C   C884      1.0  0.59638  0.44670  0.61423  1.0000
  C   C885      1.0  0.58438  0.44641  0.63627  1.0000
  C   C886      1.0  0.58353  0.45541  0.65787  1.0000
  C   C887      1.0  0.59461  0.46495  0.65657  1.0000
  C   C888      1.0  0.60650  0.46555  0.63344  1.0000
  C   C889      1.0  0.60743  0.45623  0.61301  1.0000
  H   H1560     1.0  0.57578  0.43916  0.63721  1.0000
  H   H1561     1.0  0.57428  0.45494  0.67564  1.0000
  H   H1562     1.0  0.45145  0.47493  0.79105  1.0000
  H   H1563     1.0  0.61671  0.45642  0.59613  1.0000
  C   C890      1.0  0.60644  0.26339  0.94318  1.0000
  C   C891      1.0  0.50518  0.43874  0.94738  1.0000
  H   H1564     1.0  0.53873  0.40988  0.50572  1.0000
  H   H1565     1.0  0.62892  0.38511  0.93831  1.0000
  H   H1566     1.0  0.50105  0.47219  0.86711  1.0000
  H   H1567     1.0  0.56260  0.48401  0.69278  1.0000
  H   H1568     1.0  0.59839  0.47861  0.77211  1.0000
  C   C892      1.0  0.51218  0.44244  0.69136  1.0000
  C   C893      1.0  0.51780  0.43186  0.69462  1.0000
  C   C894      1.0  0.52542  0.42951  0.66353  1.0000
  C   C895      1.0  0.52721  0.43754  0.62863  1.0000
  C   C896      1.0  0.52164  0.44817  0.62531  1.0000
  C   C897      1.0  0.51426  0.45070  0.65655  1.0000
  H   H1569     1.0  0.51614  0.42535  0.72134  1.0000
  H   H1570     1.0  0.52957  0.42125  0.66647  1.0000
  H   H1571     1.0  0.52293  0.45441  0.59841  1.0000
  H   H1572     1.0  0.50987  0.45878  0.65361  1.0000
  H   H1573     1.0  0.64137  0.39823  0.76527  1.0000
  H   H1574     1.0  0.57678  0.30609  0.87267  1.0000
  C   C898      1.0  0.61124  0.39408  0.76033  1.0000
  H   H1575     1.0  0.64295  0.45022  0.70252  1.0000
  C   C899      1.0  0.62899  0.37481  0.94749  1.0000
  H   H1576     1.0  0.60710  0.39793  0.73735  1.0000
  H   H1577     1.0  0.55689  0.46228  0.57878  1.0000
  H   H1578     1.0  0.47676  0.46515  0.60837  1.0000
  C   C900      1.0  0.62596  0.44749  0.77300  1.0000
  H   H1579     1.0  0.53966  0.49422  0.67194  1.0000
  N   N49       1.0  0.58453  0.31588  0.68157  1.0000
  C   C901      1.0  0.58022  0.30150  0.68453  1.0000
  C   C902      1.0  0.57919  0.31843  0.71821  1.0000
  C   C903      1.0  0.57954  0.32294  0.65140  1.0000
  C   C904      1.0  0.59917  0.32063  0.67226  1.0000
  C   C905      1.0  0.60616  0.31328  0.69798  1.0000
  C   C906      1.0  0.58661  0.29662  0.65171  1.0000
  C   C907      1.0  0.58163  0.33777  0.64740  1.0000
  C   C908      1.0  0.56417  0.31581  0.73014  1.0000
  C   C909      1.0  0.55990  0.31820  0.76824  1.0000
  C   C910      1.0  0.62091  0.31773  0.68302  1.0000
  C   C911      1.0  0.58193  0.28187  0.65901  1.0000
  C   C912      1.0  0.57569  0.34378  0.61721  1.0000
  H   H1580     1.0  0.56955  0.29845  0.68730  1.0000
  H   H1581     1.0  0.58179  0.29585  0.71016  1.0000
  H   H1582     1.0  0.58213  0.31230  0.74040  1.0000
  H   H1583     1.0  0.58355  0.32860  0.71887  1.0000
  H   H1584     1.0  0.56897  0.31860  0.65497  1.0000
  H   H1585     1.0  0.58433  0.32172  0.62424  1.0000
  H   H1586     1.0  0.60340  0.32057  0.64335  1.0000
  H   H1587     1.0  0.60213  0.33098  0.67333  1.0000
  H   H1588     1.0  0.60332  0.30266  0.70103  1.0000
  H   H1589     1.0  0.60385  0.31514  0.72576  1.0000
  H   H1590     1.0  0.58406  0.30094  0.62611  1.0000
  H   H1591     1.0  0.59735  0.29906  0.64686  1.0000
  H   H1592     1.0  0.59214  0.34277  0.64011  1.0000
  H   H1593     1.0  0.57697  0.33990  0.67318  1.0000
  H   H1594     1.0  0.56048  0.32225  0.71069  1.0000
  H   H1595     1.0  0.55934  0.30560  0.73160  1.0000
  H   H1596     1.0  0.56438  0.32835  0.76841  1.0000
  H   H1597     1.0  0.54916  0.31657  0.77575  1.0000
  H   H1598     1.0  0.56270  0.31146  0.78930  1.0000
  H   H1599     1.0  0.62377  0.31496  0.65669  1.0000
  H   H1600     1.0  0.62443  0.32841  0.67843  1.0000
  H   H1601     1.0  0.62569  0.31299  0.70320  1.0000
  H   H1602     1.0  0.57120  0.27876  0.66330  1.0000
  H   H1603     1.0  0.58650  0.27858  0.63508  1.0000
  H   H1604     1.0  0.58472  0.27706  0.68371  1.0000
  H   H1605     1.0  0.57739  0.35437  0.61496  1.0000
  H   H1606     1.0  0.58022  0.34229  0.59021  1.0000
  H   H1607     1.0  0.56501  0.33949  0.62397  1.0000
  H   H1608     1.0  0.46275  0.45067  0.66791  1.0000
  C   C913      1.0  0.65778  0.48267  0.70786  1.0000
  S   S216      1.0  0.64516  0.35827  0.78907  1.0000
  H   H1609     1.0  0.62357  0.37081  0.97670  1.0000
  H   H1610     1.0  0.59501  0.44529  0.50976  1.0000
  H   H1611     1.0  0.51076  0.43158  0.94157  1.0000
  H   H1612     1.0  0.47061  0.46145  0.69218  1.0000
  C   C914      1.0  0.61559  0.47102  0.76793  1.0000
  C   C915      1.0  0.60572  0.47702  0.78814  1.0000
  H   H1613     1.0  0.62401  0.42907  0.96486  1.0000
  H   H1614     1.0  0.58584  0.42015  0.74395  1.0000
  C   C916      1.0  0.44905  0.46657  0.72749  1.0000
  C   C917      1.0  0.63183  0.31523  0.92735  1.0000
  H   H1615     1.0  0.62655  0.36670  0.83858  1.0000
  H   H1616     1.0  0.62067  0.47807  0.74132  1.0000
  C   C918      1.0  0.46721  0.46095  0.66675  1.0000
  H   H1617     1.0  0.61505  0.47298  0.63180  1.0000
  C   C919      1.0  0.57754  0.29596  0.87452  1.0000
  C   C920      1.0  0.61880  0.30771  0.95386  1.0000
  H   H1618     1.0  0.54619  0.43201  0.48821  1.0000
  H   H1619     1.0  0.58480  0.25717  0.84806  1.0000
  H   H1620     1.0  0.45333  0.45841  0.73662  1.0000
  C   C921      1.0  0.49557  0.47218  0.89394  1.0000
  H   H1621     1.0  0.65049  0.38973  0.68964  1.0000
  H   H1622     1.0  0.51666  0.44649  0.98179  1.0000
  H   H1623     1.0  0.51090  0.39234  0.52398  1.0000
  C   C922      1.0  0.52810  0.40862  0.50914  1.0000
  C   C923      1.0  0.65264  0.48605  0.74010  1.0000
  H   H1624     1.0  0.57207  0.48575  0.63299  1.0000
  H   H1625     1.0  0.52441  0.41225  0.53324  1.0000
  C   C924      1.0  0.43255  0.44895  0.66273  1.0000
  C   C925      1.0  0.42633  0.43444  0.66965  1.0000
  H   H1626     1.0  0.44284  0.44506  0.70552  1.0000
  H   H1627     1.0  0.42839  0.44973  0.71908  1.0000
  H   H1628     1.0  0.44063  0.45165  0.63775  1.0000
  H   H1629     1.0  0.42499  0.45408  0.65751  1.0000
  H   H1630     1.0  0.41794  0.43119  0.69408  1.0000
  H   H1631     1.0  0.42275  0.43245  0.64536  1.0000
  H   H1632     1.0  0.43355  0.42876  0.67410  1.0000
  H   H1633     1.0  0.62397  0.36929  0.93041  1.0000
  H   H1634     1.0  0.46610  0.49063  0.82314  1.0000
  H   H1635     1.0  0.49140  0.43073  0.55157  1.0000
  H   H1636     1.0  0.65597  0.42929  0.72683  1.0000
  C   C926      1.0  0.43708  0.47545  0.68446  1.0000
  H   H1637     1.0  0.65102  0.25724  0.77187  1.0000
  H   H1638     1.0  0.57051  0.46637  0.59889  1.0000
  H   H1639     1.0  0.63667  0.43596  0.82683  1.0000
  H   H1640     1.0  0.53371  0.47305  0.71819  1.0000
  H   H1641     1.0  0.65651  0.48755  0.68176  1.0000
  H   H1642     1.0  0.46268  0.47962  0.65838  1.0000
  H   H1643     1.0  0.52497  0.38990  0.49467  1.0000
  H   H1644     1.0  0.41693  0.48157  0.65191  1.0000
  C   C927      1.0  0.58814  0.29335  0.89410  1.0000
  H   H1645     1.0  0.62968  0.41834  0.62186  1.0000
  H   H1646     1.0  0.62919  0.38520  0.86788  1.0000
  H   H1647     1.0  0.62282  0.46988  0.78453  1.0000
  H   H1648     1.0  0.62201  0.39441  0.67886  1.0000
  H   H1649     1.0  0.50534  0.41868  0.52213  1.0000
  H   H1650     1.0  0.58825  0.28308  0.89579  1.0000
  C   C928      1.0  0.65530  0.41015  0.71611  1.0000
  C   C929      1.0  0.66043  0.39086  0.81954  1.0000
  C   C930      1.0  0.61655  0.25333  0.84548  1.0000
  H   H1651     1.0  0.64251  0.36309  0.95168  1.0000
  H   H1652     1.0  0.63208  0.46897  0.54319  1.0000
  C   C931      1.0  0.63750  0.38394  0.84951  1.0000
  C   C932      1.0  0.56362  0.25233  0.86048  1.0000
  H   H1653     1.0  0.51730  0.25187  0.86923  1.0000
  C   C933      1.0  0.59125  0.33483  0.96372  1.0000
  S   S217      1.0  0.50633  0.48299  0.70452  1.0000
  C   C934      1.0  0.52250  0.43524  0.49625  1.0000
  H   H1654     1.0  0.63942  0.48256  0.50399  1.0000
  C   C935      1.0  0.49521  0.47468  0.95633  1.0000
  C   C936      1.0  0.63075  0.40060  0.68409  1.0000
  C   C937      1.0  0.59979  0.38531  0.79102  1.0000
  H   H1655     1.0  0.42675  0.47116  0.70003  1.0000
  H   H1656     1.0  0.59749  0.29975  0.87655  1.0000
  H   H1657     1.0  0.53032  0.47144  0.67472  1.0000
  N   N50       1.0  0.44512  0.46582  0.69180  1.0000
  H   H1658     1.0  0.62152  0.26104  0.85709  1.0000
  C   C938      1.0  0.60892  0.43753  0.74391  1.0000
  H   H1659     1.0  0.61341  0.41207  0.65120  1.0000
  C   C939      1.0  0.59219  0.42521  0.71623  1.0000
  H   H1660     1.0  0.64244  0.42455  0.80373  1.0000
  C   C940      1.0  0.63597  0.37347  0.83280  1.0000
  H   H1661     1.0  0.62109  0.25539  0.81558  1.0000
  H   H1662     1.0  0.63830  0.42158  0.67676  1.0000
  S   S218      1.0  0.65146  0.40455  0.86861  1.0000
  H   H1663     1.0  0.60694  0.28115  0.90629  1.0000
  H   H1664     1.0  0.63605  0.41105  0.74234  1.0000
  C   C941      1.0  0.62095  0.38637  0.74709  1.0000
  H   H1665     1.0  0.45533  0.46907  0.63446  1.0000
  H   H1666     1.0  0.58089  0.33133  0.97560  1.0000
  C   C942      1.0  0.62966  0.42167  0.96865  1.0000
  H   H1667     1.0  0.60575  0.31452  0.92336  1.0000
  H   H1668     1.0  0.63880  0.40141  0.66004  1.0000
  C   C943      1.0  0.48213  0.47059  0.90053  1.0000
  H   H1669     1.0  0.61767  0.28282  0.93625  1.0000
  H   H1670     1.0  0.63493  0.45560  0.76614  1.0000
  C   C944      1.0  0.45744  0.46936  0.66161  1.0000
  H   H1671     1.0  0.63406  0.42155  0.91035  1.0000
  H   H1672     1.0  0.48619  0.45958  0.63942  1.0000
  C   C945      1.0  0.62317  0.41860  0.64785  1.0000
  C   C946      1.0  0.65889  0.38038  0.80272  1.0000
  C   C947      1.0  0.52165  0.39409  0.51801  1.0000
  H   H1673     1.0  0.43611  0.47390  0.62754  1.0000
  C   C948      1.0  0.58988  0.46679  0.53811  1.0000
  H   H1674     1.0  0.66044  0.41817  0.76122  1.0000
  C   C949      1.0  0.57664  0.25983  0.86469  1.0000
  C   C950      1.0  0.60798  0.30505  0.93287  1.0000
  H   H1675     1.0  0.58305  0.30538  0.93087  1.0000
  H   H1676     1.0  0.63425  0.46092  0.63318  1.0000
  H   H1677     1.0  0.61084  0.48654  0.79154  1.0000
  H   H1678     1.0  0.64765  0.37668  0.91292  1.0000
  C   C951      1.0  0.64028  0.43421  0.79943  1.0000
  H   H1679     1.0  0.51250  0.47564  0.91601  1.0000
  H   H1680     1.0  0.64836  0.45473  0.63492  1.0000
  H   H1681     1.0  0.59697  0.25817  0.93948  1.0000
  H   H1682     1.0  0.61360  0.40792  0.96215  1.0000
  C   C952      1.0  0.59743  0.28140  0.96328  1.0000
  C   C953      1.0  0.64163  0.45961  0.64921  1.0000
  H   H1683     1.0  0.61531  0.37905  0.73546  1.0000
  H   H1684     1.0  0.57782  0.27038  0.85453  1.0000
  H   H1685     1.0  0.56359  0.25512  0.83103  1.0000
  H   H1686     1.0  0.60323  0.38121  0.81528  1.0000
  H   H1687     1.0  0.48440  0.47590  0.63345  1.0000
  H   H1688     1.0  0.62225  0.41537  0.70556  1.0000
  H   H1689     1.0  0.57315  0.27297  0.76363  1.0000
  H   H1690     1.0  0.61583  0.40213  0.77128  1.0000
  H   H1691     1.0  0.63911  0.35729  0.67473  1.0000
  H   H1692     1.0  0.43544  0.46630  0.81881  1.0000
  H   H1693     1.0  0.52395  0.44592  0.48779  1.0000
  H   H1694     1.0  0.64549  0.43354  0.92298  1.0000
  C   C954      1.0  0.64100  0.40341  0.73734  1.0000
  C   C955      1.0  0.64144  0.38465  0.71133  1.0000
  H   H1695     1.0  0.61226  0.30259  0.90719  1.0000
  N   N51       1.0  0.63346  0.39407  0.71959  1.0000
  C   C956      1.0  0.55731  0.49177  0.69016  1.0000
  H   H1696     1.0  0.52425  0.38904  0.54268  1.0000
  Fe  Fe112     1.0  0.48690  0.48660  0.72658  1.0000
  C   C957      1.0  0.44330  0.46622  0.79551  1.0000
  S   S219      1.0  0.57917  0.24906  0.75389  1.0000
  H   H1697     1.0  0.60264  0.46053  0.74185  1.0000
  C   C958      1.0  0.53823  0.47396  0.68879  1.0000
  H   H1698     1.0  0.63636  0.48508  0.54989  1.0000
  C   C959      1.0  0.60772  0.27800  0.93494  1.0000
  H   H1699     1.0  0.56799  0.28917  0.88944  1.0000
  H   H1700     1.0  0.58590  0.42626  0.69656  1.0000
  H   H1701     1.0  0.62323  0.38082  0.77178  1.0000
  C   C960      1.0  0.48167  0.47251  0.96364  1.0000
  C   C961      1.0  0.62883  0.41451  0.68078  1.0000
  H   H1702     1.0  0.59287  0.39099  0.79974  1.0000
  H   H1703     1.0  0.60599  0.44320  0.68815  1.0000
  C   C962      1.0  0.50202  0.43517  0.54142  1.0000
  H   H1704     1.0  0.57601  0.28840  0.94828  1.0000
  C   C963      1.0  0.47935  0.46572  0.63491  1.0000
  C   C964      1.0  0.62582  0.45799  0.70916  1.0000
  H   H1705     1.0  0.61471  0.43087  0.73566  1.0000
  H   H1706     1.0  0.59300  0.47157  0.55925  1.0000
  C   C965      1.0  0.61911  0.48106  0.52858  1.0000
  C   C966      1.0  0.50205  0.47410  0.92180  1.0000
  H   H1707     1.0  0.58003  0.29461  0.84613  1.0000
  H   H1708     1.0  0.59072  0.49038  0.57921  1.0000
  H   H1709     1.0  0.57541  0.47805  0.53337  1.0000
  C   C967      1.0  0.63015  0.43456  0.77669  1.0000
  C   C968      1.0  0.61291  0.47177  0.50688  1.0000
  H   H1710     1.0  0.64472  0.38064  0.73605  1.0000
  C   C969      1.0  0.47515  0.47044  0.93577  1.0000
  H   H1711     1.0  0.50256  0.43116  0.48818  1.0000
  H   H1712     1.0  0.54430  0.46693  0.68690  1.0000
  H   H1713     1.0  0.57151  0.46277  0.52043  1.0000
  H   H1714     1.0  0.62085  0.44725  0.80150  1.0000
  H   H1715     1.0  0.62969  0.37606  0.67634  1.0000
  C   C970      1.0  0.64976  0.39253  0.84347  1.0000
  H   H1716     1.0  0.58952  0.45646  0.54853  1.0000
  C   C971      1.0  0.64294  0.37349  0.94264  1.0000
  H   H1717     1.0  0.55232  0.49124  0.71888  1.0000
  C   C972      1.0  0.58526  0.29571  0.93324  1.0000
  H   H1718     1.0  0.49483  0.43484  0.94751  1.0000
  H   H1719     1.0  0.56665  0.45103  0.58645  1.0000
  H   H1720     1.0  0.66140  0.40315  0.71919  1.0000
  H   H1721     1.0  0.46472  0.46905  0.94123  1.0000
  C   C973      1.0  0.56697  0.46148  0.57834  1.0000
  H   H1722     1.0  0.61962  0.46138  0.69119  1.0000
  H   H1723     1.0  0.59452  0.37723  0.78117  1.0000
  H   H1724     1.0  0.62159  0.42626  0.79092  1.0000
  H   H1725     1.0  0.63217  0.46704  0.71193  1.0000
  H   H1726     1.0  0.52693  0.43371  0.52028  1.0000
  H   H1727     1.0  0.59872  0.41920  0.70728  1.0000
  H   H1728     1.0  0.55035  0.48821  0.64113  1.0000
  H   H1729     1.0  0.64930  0.36221  0.70436  1.0000
  H   H1730     1.0  0.62586  0.40081  0.97504  1.0000
  H   H1731     1.0  0.64734  0.46929  0.64990  1.0000
  C   C974      1.0  0.63464  0.37295  0.69814  1.0000
  H   H1732     1.0  0.60620  0.25355  0.84883  1.0000
  H   H1733     1.0  0.62733  0.36587  0.72163  1.0000
  Fe  Fe113     1.0  0.61113  0.49252  0.66946  1.0000
  H   H1734     1.0  0.64571  0.41677  0.93495  1.0000
  C   C975      1.0  0.60007  0.43861  0.71654  1.0000
  C   C976      1.0  0.63254  0.47927  0.53155  1.0000
  C   C977      1.0  0.60871  0.45794  0.76110  1.0000
  C   C978      1.0  0.64669  0.37155  0.80968  1.0000
  C   C979      1.0  0.64435  0.36578  0.68297  1.0000
  H   H1735     1.0  0.61998  0.29855  0.96995  1.0000
  H   H1736     1.0  0.64944  0.44168  0.78475  1.0000
  H   H1737     1.0  0.60256  0.43231  0.77166  1.0000
  H   H1738     1.0  0.59300  0.44428  0.72398  1.0000
  H   H1739     1.0  0.60176  0.45205  0.78736  1.0000
  N   N52       1.0  0.61753  0.45009  0.74628  1.0000
  H   H1740     1.0  0.58694  0.49479  0.63975  1.0000
  H   H1741     1.0  0.57714  0.25783  0.89401  1.0000
  H   H1742     1.0  0.64974  0.39175  0.95482  1.0000
  C   C980      1.0  0.61335  0.34030  0.97141  1.0000
  H   H1743     1.0  0.44051  0.48410  0.69493  1.0000
  H   H1744     1.0  0.63551  0.30910  0.90977  1.0000
  H   H1745     1.0  0.61437  0.26126  0.92413  1.0000
  H   H1746     1.0  0.52422  0.24896  0.90847  1.0000
  H   H1747     1.0  0.63080  0.32412  0.90941  1.0000
  N   N53       1.0  0.59564  0.29500  0.95443  1.0000
  C   C981      1.0  0.43736  0.48130  0.64367  1.0000
  C   C982      1.0  0.50763  0.42930  0.51057  1.0000
  N   N54       1.0  0.59958  0.47240  0.50135  1.0000
  C   C983      1.0  0.42670  0.48845  0.64098  1.0000
  H   H1748     1.0  0.63908  0.31822  0.94310  1.0000
  H   H1749     1.0  0.50365  0.44581  0.53134  1.0000
  Fe  Fe114     1.0  0.51162  0.48910  0.75362  1.0000
  S   S220      1.0  0.63179  0.49143  0.65451  1.0000
  H   H1750     1.0  0.50918  0.44773  0.92489  1.0000
  H   H1751     1.0  0.53992  0.25071  0.84953  1.0000
  C   C984      1.0  0.54637  0.48781  0.67043  1.0000
  C   C985      1.0  0.65040  0.38165  0.96480  1.0000
  H   H1752     1.0  0.43416  0.47488  0.75580  1.0000
  H   H1753     1.0  0.58797  0.27414  0.96787  1.0000
  H   H1754     1.0  0.62036  0.49131  0.51468  1.0000
  H   H1755     1.0  0.59863  0.49142  0.50910  1.0000
  H   H1756     1.0  0.60641  0.38516  0.97690  1.0000
  C   C986      1.0  0.66180  0.47046  0.77496  1.0000
  H   H1757     1.0  0.42761  0.49320  0.61174  1.0000
  H   H1758     1.0  0.61625  0.31370  0.97333  1.0000
  C   C987      1.0  0.59990  0.48643  0.48623  1.0000
  C   C988      1.0  0.66108  0.42149  0.73132  1.0000
  S   S221      1.0  0.49293  0.49428  0.77291  1.0000
  H   H1759     1.0  0.65607  0.41379  0.68633  1.0000
  H   H1760     1.0  0.44687  0.48843  0.63017  1.0000
  H   H1761     1.0  0.63622  0.24694  0.87444  1.0000
  C   C989      1.0  0.57924  0.49534  0.62476  1.0000
  H   H1762     1.0  0.60709  0.25971  0.97185  1.0000
  Fe  Fe115     1.0  0.43966  0.56410  0.24454  1.0000
  S   S222      1.0  0.41949  0.56484  0.26941  1.0000
  S   S223      1.0  0.45646  0.58135  0.21734  1.0000
  Fe  Fe116     1.0  0.43339  0.53496  0.26236  1.0000
  S   S224      1.0  0.41241  0.53296  0.28983  1.0000
  H   H1763     1.0  0.58126  0.50423  0.44203  1.0000
  Fe  Fe117     1.0  0.41314  0.54909  0.24174  1.0000
  S   S225      1.0  0.39661  0.54790  0.21261  1.0000
  Fe  Fe118     1.0  0.42015  0.54888  0.31603  1.0000
  S   S226      1.0  0.41113  0.55147  0.37231  1.0000
  S   S227      1.0  0.43345  0.54973  0.21244  1.0000
  S   S228      1.0  0.44099  0.54952  0.29300  1.0000
  Fe  Fe119     1.0  0.48511  0.63135  0.30828  1.0000
  S   S229      1.0  0.49862  0.63387  0.25377  1.0000
  S   S230      1.0  0.46522  0.61749  0.32601  1.0000
  Fe  Fe120     1.0  0.50436  0.65095  0.33143  1.0000
  S   S231      1.0  0.51933  0.65522  0.27774  1.0000
  S   S232      1.0  0.50915  0.66033  0.37704  1.0000
  Fe  Fe121     1.0  0.50225  0.65512  0.25156  1.0000
  S   S233      1.0  0.50171  0.66672  0.19586  1.0000
  Fe  Fe122     1.0  0.51416  0.63360  0.28476  1.0000
  S   S234      1.0  0.52736  0.61997  0.28612  1.0000
  S   S235      1.0  0.48776  0.65263  0.30471  1.0000
  S   S236      1.0  0.50025  0.62945  0.33976  1.0000
  H   H1764     1.0  0.48445  0.58048  0.28164  1.0000
  H   H1765     1.0  0.37757  0.50476  0.27431  1.0000
  S   S237      1.0  0.35237  0.59040  0.08559  1.0000
  Fe  Fe123     1.0  0.37761  0.62434  0.05150  1.0000
  S   S238      1.0  0.38356  0.60595  0.06670  1.0000
  S   S239      1.0  0.39255  0.64358  0.02689  1.0000
  Fe  Fe124     1.0  0.36938  0.59770  0.03612  1.0000
  C   C990      1.0  0.36292  0.65313  0.15371  1.0000
  Fe  Fe125     1.0  0.36636  0.60030  0.11486  1.0000
  S   S240      1.0  0.37041  0.59415  0.17104  1.0000
  H   H1766     1.0  0.45722  0.62126  0.40762  1.0000
  S   S241      1.0  0.36119  0.61946  0.10147  1.0000
  Fe  Fe126     1.0  0.44890  0.71355  0.05416  1.0000
  S   S242      1.0  0.42828  0.71436  0.07382  1.0000
  H   H1767     1.0  0.37029  0.64792  0.10331  1.0000
  Fe  Fe127     1.0  0.45296  0.70657  0.13169  1.0000
  S   S243      1.0  0.43254  0.70694  0.15609  1.0000
  S   S244      1.0  0.46338  0.70315  0.17755  1.0000
  Fe  Fe128     1.0  0.42686  0.69596  0.11499  1.0000
  S   S245      1.0  0.41043  0.67756  0.13477  1.0000
  Fe  Fe129     1.0  0.43632  0.72529  0.11239  1.0000
  H   H1768     1.0  0.58483  0.61138  0.14647  1.0000
  S   S246      1.0  0.44709  0.69445  0.09305  1.0000
  S   S247      1.0  0.45704  0.72563  0.09004  1.0000
  Fe  Fe130     1.0  0.57262  0.56473  0.18584  1.0000
  S   S248      1.0  0.56448  0.54994  0.15702  1.0000
  S   S249      1.0  0.58362  0.56169  0.23041  1.0000
  Fe  Fe131     1.0  0.55851  0.58418  0.15400  1.0000
  S   S250      1.0  0.54901  0.57089  0.12336  1.0000
  S   S251      1.0  0.55531  0.60434  0.14650  1.0000
  Fe  Fe132     1.0  0.54570  0.55529  0.17445  1.0000
  S   S252      1.0  0.52599  0.54139  0.19729  1.0000
  Fe  Fe133     1.0  0.56845  0.56673  0.10783  1.0000
  S   S253      1.0  0.55342  0.56888  0.20656  1.0000
  S   S254      1.0  0.57840  0.58120  0.13516  1.0000
  H   H1769     1.0  0.46742  0.57188  0.29957  1.0000
  H   H1770     1.0  0.43828  0.73872  0.25443  1.0000
  H   H1771     1.0  0.61334  0.58619  0.32156  1.0000
  H   H1772     1.0  0.55749  0.57292  0.33193  1.0000
  H   H1773     1.0  0.65478  0.50720  0.48286  1.0000
  C   C991      1.0  0.49568  0.59532  0.40213  1.0000
  Fe  Fe134     1.0  0.62162  0.51022  0.29034  1.0000
  S   S255      1.0  0.50130  0.50010  0.06174  1.0000
  C   C992      1.0  0.59295  0.55015  0.23217  1.0000
  C   C993      1.0  0.59525  0.54455  0.26595  1.0000
  C   C994      1.0  0.60300  0.53563  0.26792  1.0000
  C   C995      1.0  0.60881  0.53252  0.23592  1.0000
  C   C996      1.0  0.60664  0.53830  0.20211  1.0000
  C   C997      1.0  0.59857  0.54689  0.20028  1.0000
  H   H1774     1.0  0.59102  0.54709  0.29073  1.0000
  H   H1775     1.0  0.60469  0.53137  0.29407  1.0000
  H   H1776     1.0  0.61142  0.53636  0.17709  1.0000
  H   H1777     1.0  0.59707  0.55132  0.17403  1.0000
  C   C998      1.0  0.52622  0.52791  0.17893  1.0000
  C   C999      1.0  0.53731  0.52316  0.17498  1.0000
  C   C1000     1.0  0.53832  0.51365  0.15537  1.0000
  H   H1778     1.0  0.58154  0.50899  0.09008  1.0000
  C   C1001     1.0  0.51683  0.51314  0.14534  1.0000
  C   C1002     1.0  0.51581  0.52264  0.16505  1.0000
  H   H1779     1.0  0.54512  0.52685  0.18698  1.0000
  H   H1780     1.0  0.50321  0.57406  0.22967  1.0000
  C   C1003     1.0  0.55966  0.60763  0.98863  1.0000
  H   H1781     1.0  0.50727  0.52638  0.16768  1.0000
  C   C1004     1.0  0.55753  0.60766  0.41586  1.0000
  H   H1782     1.0  0.44775  0.67160  0.00579  1.0000
  H   H1783     1.0  0.54296  0.64072  0.08605  1.0000
  H   H1784     1.0  0.48127  0.54383  0.17789  1.0000
  H   H1785     1.0  0.37204  0.65997  0.15411  1.0000
  C   C1005     1.0  0.39833  0.65251  0.05713  1.0000
  C   C1006     1.0  0.39529  0.64720  0.09510  1.0000
  C   C1007     1.0  0.39935  0.65487  0.11865  1.0000
  C   C1008     1.0  0.40679  0.66775  0.10434  1.0000
  C   C1009     1.0  0.41028  0.67286  0.06626  1.0000
  C   C1010     1.0  0.40589  0.66533  0.04284  1.0000
  H   H1786     1.0  0.38956  0.63729  0.10643  1.0000
  H   H1787     1.0  0.39659  0.65086  0.14812  1.0000
  H   H1788     1.0  0.41592  0.68278  0.05503  1.0000
  C   C1011     1.0  0.43432  0.65363  0.03694  1.0000
  H   H1789     1.0  0.34188  0.66004  0.10175  1.0000
  C   C1012     1.0  0.55619  0.56984  0.02374  1.0000
  C   C1013     1.0  0.58337  0.58469  0.29836  1.0000
  H   H1790     1.0  0.60129  0.51505  0.10271  1.0000
  C   C1014     1.0  0.49022  0.67598  0.19182  1.0000
  C   C1015     1.0  0.48719  0.67953  0.15766  1.0000
  C   C1016     1.0  0.47855  0.68743  0.15314  1.0000
  C   C1017     1.0  0.47310  0.69205  0.18263  1.0000
  C   C1018     1.0  0.47598  0.68833  0.21689  1.0000
  C   C1019     1.0  0.48440  0.68023  0.22160  1.0000
  H   H1791     1.0  0.49170  0.67631  0.13448  1.0000
  H   H1792     1.0  0.47646  0.69031  0.12658  1.0000
  H   H1793     1.0  0.47179  0.69184  0.23981  1.0000
  H   H1794     1.0  0.48672  0.67761  0.24795  1.0000
  C   C1020     1.0  0.50348  0.65084  0.42281  1.0000
  C   C1021     1.0  0.49502  0.63851  0.43088  1.0000
  H   H1795     1.0  0.49254  0.58891  0.43038  1.0000
  H   H1796     1.0  0.53609  0.54331  0.10394  1.0000
  H   H1797     1.0  0.33285  0.68309  0.11370  1.0000
  C   C1022     1.0  0.50780  0.65549  0.45143  1.0000
  H   H1798     1.0  0.49145  0.63497  0.40926  1.0000
  H   H1799     1.0  0.33352  0.51369  0.35622  1.0000
  H   H1800     1.0  0.62274  0.52940  0.12767  1.0000
  H   H1801     1.0  0.36752  0.55534  0.34911  1.0000
  C   C1023     1.0  0.53342  0.61533  0.24589  1.0000
  C   C1024     1.0  0.53510  0.60276  0.24906  1.0000
  C   C1025     1.0  0.54133  0.59917  0.21832  1.0000
  C   C1026     1.0  0.54621  0.60821  0.18441  1.0000
  C   C1027     1.0  0.54420  0.62068  0.18092  1.0000
  C   C1028     1.0  0.53772  0.62422  0.21156  1.0000
  H   H1802     1.0  0.53172  0.59585  0.27553  1.0000
  H   H1803     1.0  0.54252  0.58947  0.22102  1.0000
  H   H1804     1.0  0.54789  0.62772  0.15469  1.0000
  H   H1805     1.0  0.53651  0.63397  0.20896  1.0000
  C   C1029     1.0  0.38940  0.56088  0.20201  1.0000
  C   C1030     1.0  0.37861  0.55894  0.18646  1.0000
  C   C1031     1.0  0.37303  0.56920  0.17559  1.0000
  C   C1032     1.0  0.37792  0.58141  0.18143  1.0000
  C   C1033     1.0  0.38845  0.58325  0.19810  1.0000
  C   C1034     1.0  0.39435  0.57311  0.20767  1.0000
  H   H1806     1.0  0.37461  0.54947  0.18244  1.0000
  H   H1807     1.0  0.36473  0.56760  0.16358  1.0000
  H   H1808     1.0  0.39215  0.59261  0.20327  1.0000
  H   H1809     1.0  0.40267  0.57476  0.21955  1.0000
  H   H1810     1.0  0.47384  0.55085  0.30523  1.0000
  H   H1811     1.0  0.35378  0.53448  0.37921  1.0000
  S   S256      1.0  0.63940  0.51396  0.31366  1.0000
  H   H1812     1.0  0.60549  0.51390  0.18068  1.0000
  C   C1035     1.0  0.45139  0.52311  0.18346  1.0000
  C   C1036     1.0  0.45764  0.52038  0.15101  1.0000
  H   H1813     1.0  0.52858  0.51305  0.03460  1.0000
  H   H1814     1.0  0.54838  0.54240  0.04433  1.0000
  H   H1815     1.0  0.50240  0.55105  0.23599  1.0000
  H   H1816     1.0  0.44726  0.53136  0.18182  1.0000
  H   H1817     1.0  0.45822  0.52655  0.12456  1.0000
  H   H1818     1.0  0.35335  0.63268  0.17920  1.0000
  S   S257      1.0  0.61894  0.52164  0.23674  1.0000
  C   C1037     1.0  0.45883  0.59110  0.24819  1.0000
  C   C1038     1.0  0.47141  0.59792  0.24697  1.0000
  C   C1039     1.0  0.47347  0.60542  0.27232  1.0000
  C   C1040     1.0  0.46291  0.60688  0.29718  1.0000
  C   C1041     1.0  0.45031  0.60012  0.29822  1.0000
  C   C1042     1.0  0.44828  0.59201  0.27427  1.0000
  H   H1819     1.0  0.47962  0.59704  0.22734  1.0000
  H   H1820     1.0  0.48324  0.60983  0.27300  1.0000
  H   H1821     1.0  0.44212  0.60127  0.31726  1.0000
  H   H1822     1.0  0.43853  0.58675  0.27542  1.0000
  H   H1823     1.0  0.40168  0.58588  0.02332  1.0000
  H   H1824     1.0  0.50323  0.49880  0.21903  1.0000
  H   H1825     1.0  0.39783  0.69318  0.07526  1.0000
  C   C1043     1.0  0.57934  0.60191  0.20468  1.0000
  N   N55       1.0  0.43929  0.58339  0.46784  1.0000
  H   H1826     1.0  0.52390  0.56860  0.20882  1.0000
  H   H1827     1.0  0.54470  0.56086  0.29629  1.0000
  H   H1828     1.0  0.56806  0.53729  0.06463  1.0000
  C   C1044     1.0  0.48331  0.52692  0.23445  1.0000
  H   H1829     1.0  0.46685  0.55760  0.25034  1.0000
  H   H1830     1.0  0.41197  0.60904  0.08306  1.0000
  H   H1831     1.0  0.46845  0.53476  0.26207  1.0000
  C   C1045     1.0  0.59080  0.60399  0.04588  1.0000
  C   C1046     1.0  0.47743  0.55044  0.19337  1.0000
  H   H1832     1.0  0.42287  0.61006  0.11330  1.0000
  H   H1833     1.0  0.58738  0.50622  0.21965  1.0000
  H   H1834     1.0  0.57913  0.59848  0.00944  1.0000
  C   C1047     1.0  0.45030  0.73301  0.20951  1.0000
  C   C1048     1.0  0.42833  0.58980  0.41447  1.0000
  C   C1049     1.0  0.47758  0.57136  0.29927  1.0000
  H   H1835     1.0  0.46610  0.73556  0.14489  1.0000
  C   C1050     1.0  0.46220  0.50170  0.18686  1.0000
  H   H1836     1.0  0.40295  0.55520  0.44458  1.0000
  H   H1837     1.0  0.50157  0.55168  0.18997  1.0000
  H   H1838     1.0  0.41693  0.59507  0.02649  1.0000
  H   H1839     1.0  0.42742  0.74151  0.20382  1.0000
  S   S258      1.0  0.45731  0.71910  0.99301  1.0000
  H   H1840     1.0  0.53571  0.63259  0.44442  1.0000
  H   H1841     1.0  0.38925  0.55653  0.11944  1.0000
  C   C1051     1.0  0.45936  0.60198  0.42972  1.0000
  H   H1842     1.0  0.43525  0.55236  0.11493  1.0000
  H   H1843     1.0  0.42818  0.57049  0.44185  1.0000
  H   H1844     1.0  0.59737  0.57768  0.35001  1.0000
  H   H1845     1.0  0.36655  0.55384  0.11316  1.0000
  C   C1052     1.0  0.54563  0.63859  0.05866  1.0000
  H   H1846     1.0  0.47806  0.52493  0.21310  1.0000
  N   N56       1.0  0.57677  0.59300  0.27548  1.0000
  H   H1847     1.0  0.48344  0.53771  0.27568  1.0000
  C   C1053     1.0  0.41430  0.57401  0.04482  1.0000
  H   H1848     1.0  0.41978  0.58656  0.12853  1.0000
  C   C1054     1.0  0.53806  0.53680  0.05333  1.0000
  C   C1055     1.0  0.37222  0.55199  0.32532  1.0000
  N   N57       1.0  0.45773  0.63699  0.20898  1.0000
  C   C1056     1.0  0.45327  0.63835  0.24772  1.0000
  C   C1057     1.0  0.45017  0.62424  0.20428  1.0000
  C   C1058     1.0  0.47188  0.63676  0.20322  1.0000
  C   C1059     1.0  0.45681  0.64830  0.18054  1.0000
  C   C1060     1.0  0.44325  0.65109  0.18368  1.0000
  C   C1061     1.0  0.46008  0.65107  0.25634  1.0000
  C   C1062     1.0  0.47815  0.63408  0.16620  1.0000
  C   C1063     1.0  0.43575  0.61890  0.22626  1.0000
  C   C1064     1.0  0.42890  0.60731  0.21374  1.0000
  C   C1065     1.0  0.44408  0.66390  0.15717  1.0000
  C   C1066     1.0  0.45447  0.65143  0.29593  1.0000
  C   C1067     1.0  0.49190  0.63259  0.16542  1.0000
  H   H1849     1.0  0.45457  0.63007  0.26773  1.0000
  H   H1850     1.0  0.44271  0.63771  0.25490  1.0000
  H   H1851     1.0  0.45048  0.62481  0.17465  1.0000
  H   H1852     1.0  0.45485  0.61632  0.21306  1.0000
  H   H1853     1.0  0.47314  0.62936  0.22602  1.0000
  H   H1854     1.0  0.47804  0.64618  0.20421  1.0000
  H   H1855     1.0  0.46395  0.65732  0.18051  1.0000
  H   H1856     1.0  0.45971  0.64683  0.15241  1.0000
  H   H1857     1.0  0.43896  0.65184  0.21171  1.0000
  H   H1858     1.0  0.43660  0.64334  0.17618  1.0000
  H   H1859     1.0  0.47062  0.65196  0.25322  1.0000
  H   H1860     1.0  0.45876  0.65969  0.23797  1.0000
  H   H1861     1.0  0.47889  0.64229  0.14284  1.0000
  H   H1862     1.0  0.47249  0.62505  0.16148  1.0000
  H   H1863     1.0  0.43531  0.61551  0.25601  1.0000
  H   H1864     1.0  0.43016  0.62630  0.22331  1.0000
  H   H1865     1.0  0.43417  0.59956  0.21622  1.0000
  H   H1866     1.0  0.41885  0.60323  0.23126  1.0000
  H   H1867     1.0  0.42832  0.61034  0.18471  1.0000
  H   H1868     1.0  0.43419  0.66548  0.15904  1.0000
  H   H1869     1.0  0.45020  0.67216  0.16435  1.0000
  H   H1870     1.0  0.44822  0.66376  0.12832  1.0000
  H   H1871     1.0  0.45966  0.66055  0.30145  1.0000
  H   H1872     1.0  0.44397  0.65112  0.30041  1.0000
  H   H1873     1.0  0.45578  0.64311  0.31565  1.0000
  H   H1874     1.0  0.49814  0.64148  0.16937  1.0000
  H   H1875     1.0  0.49168  0.62411  0.18736  1.0000
  H   H1876     1.0  0.49628  0.63101  0.13842  1.0000
  H   H1877     1.0  0.38704  0.68180  0.03264  1.0000
  H   H1878     1.0  0.48185  0.50634  0.25051  1.0000
  H   H1879     1.0  0.48608  0.51511  0.28403  1.0000
  H   H1880     1.0  0.55358  0.64685  0.04059  1.0000
  H   H1881     1.0  0.52350  0.58384  0.18086  1.0000
  C   C1068     1.0  0.57712  0.51327  0.17798  1.0000
  H   H1882     1.0  0.49055  0.55961  0.28482  1.0000
  C   C1069     1.0  0.51915  0.57320  0.18837  1.0000
  C   C1070     1.0  0.49804  0.55549  0.21408  1.0000
  H   H1883     1.0  0.62421  0.51589  0.10735  1.0000
  C   C1071     1.0  0.55373  0.57849  0.31073  1.0000
  C   C1072     1.0  0.41648  0.55029  0.10021  1.0000
  H   H1884     1.0  0.42067  0.55140  0.07053  1.0000
  H   H1885     1.0  0.56933  0.61293  0.06696  1.0000
  C   C1073     1.0  0.38376  0.56563  0.07106  1.0000
  H   H1886     1.0  0.42880  0.52272  0.45500  1.0000
  H   H1887     1.0  0.56629  0.57602  0.26238  1.0000
  H   H1888     1.0  0.42576  0.53262  0.39381  1.0000
  H   H1889     1.0  0.57771  0.52341  0.23985  1.0000
  H   H1890     1.0  0.40967  0.56141  0.13762  1.0000
  C   C1074     1.0  0.57577  0.52554  0.10336  1.0000
  H   H1891     1.0  0.59668  0.60370  0.16214  1.0000
  C   C1075     1.0  0.38547  0.52114  0.41578  1.0000
  H   H1892     1.0  0.55306  0.59723  0.42930  1.0000
  C   C1076     1.0  0.56876  0.52712  0.07218  1.0000
  C   C1077     1.0  0.56418  0.58424  0.27387  1.0000
  C   C1078     1.0  0.47435  0.73628  0.19261  1.0000
  H   H1893     1.0  0.37285  0.51854  0.25143  1.0000
  H   H1894     1.0  0.54437  0.64458  0.38910  1.0000
  H   H1895     1.0  0.53050  0.60133  0.43183  1.0000
  C   C1079     1.0  0.34855  0.68040  0.07296  1.0000
  C   C1080     1.0  0.37515  0.52258  0.39407  1.0000
  H   H1896     1.0  0.55933  0.58926  0.25471  1.0000
  C   C1081     1.0  0.48075  0.50583  0.98500  1.0000
  C   C1082     1.0  0.44666  0.59739  0.46070  1.0000
  C   C1083     1.0  0.42329  0.52995  0.45270  1.0000
  H   H1897     1.0  0.57022  0.52849  0.12641  1.0000
  C   C1084     1.0  0.43893  0.66494  0.00277  1.0000
  H   H1898     1.0  0.58984  0.60631  0.07323  1.0000
  H   H1899     1.0  0.48031  0.71215  0.31093  1.0000
  C   C1085     1.0  0.59751  0.59114  0.29922  1.0000
  C   C1086     1.0  0.56239  0.62113  0.30100  1.0000
  C   C1087     1.0  0.38620  0.56095  0.30962  1.0000
  H   H1900     1.0  0.43060  0.58184  0.36579  1.0000
  H   H1901     1.0  0.47363  0.57038  0.11470  1.0000
  C   C1088     1.0  0.47924  0.53780  0.25124  1.0000
  C   C1089     1.0  0.62140  0.51874  0.13359  1.0000
  H   H1902     1.0  0.33023  0.56801  0.04411  1.0000
  H   H1903     1.0  0.42001  0.59112  0.43378  1.0000
  C   C1090     1.0  0.58567  0.59839  0.23727  1.0000
  H   H1904     1.0  0.34945  0.67040  0.12606  1.0000
  H   H1905     1.0  0.58365  0.57572  0.28846  1.0000
  H   H1906     1.0  0.38545  0.70201  0.07870  1.0000
  H   H1907     1.0  0.56043  0.60894  0.38561  1.0000
  H   H1908     1.0  0.64541  0.50953  0.42796  1.0000
  H   H1909     1.0  0.53747  0.57422  0.28494  1.0000
  C   C1091     1.0  0.35379  0.65128  0.04364  1.0000
  C   C1092     1.0  0.46306  0.50966  0.15250  1.0000
  H   H1910     1.0  0.39521  0.55214  0.07829  1.0000
  H   H1911     1.0  0.56652  0.50497  0.12348  1.0000
  H   H1912     1.0  0.34900  0.64169  0.00149  1.0000
  C   C1093     1.0  0.42159  0.53555  0.41798  1.0000
  N   N58       1.0  0.58350  0.50854  0.14596  1.0000
  C   C1094     1.0  0.50685  0.49653  0.24426  1.0000
  H   H1913     1.0  0.37441  0.69000  0.03997  1.0000
  H   H1914     1.0  0.46584  0.62040  0.44396  1.0000
  H   H1915     1.0  0.44341  0.57962  0.41348  1.0000
  C   C1095     1.0  0.45038  0.51506  0.21781  1.0000
  C   C1096     1.0  0.42562  0.54525  0.12202  1.0000
  C   C1097     1.0  0.54959  0.57254  0.99607  1.0000
  C   C1098     1.0  0.57452  0.60374  0.29373  1.0000
  S   S259      1.0  0.42992  0.74308  0.12390  1.0000
  H   H1916     1.0  0.59893  0.52635  0.12920  1.0000
  H   H1917     1.0  0.34432  0.65382  0.04863  1.0000
  H   H1918     1.0  0.60402  0.59471  0.27117  1.0000
  H   H1919     1.0  0.40820  0.66954  0.01362  1.0000
  H   H1920     1.0  0.51962  0.63326  0.44556  1.0000
  C   C1099     1.0  0.40451  0.58151  0.09962  1.0000
  S   S260      1.0  0.57750  0.56602  0.04960  1.0000
  H   H1921     1.0  0.53444  0.56536  0.33209  1.0000
  N   N59       1.0  0.52575  0.61968  0.41587  1.0000
  H   H1922     1.0  0.54958  0.63444  0.35958  1.0000
  H   H1923     1.0  0.50902  0.50956  0.13313  1.0000
  C   C1100     1.0  0.36474  0.66194  0.04915  1.0000
  C   C1101     1.0  0.37450  0.67492  0.08858  1.0000
  C   C1102     1.0  0.38135  0.68581  0.05306  1.0000
  H   H1924     1.0  0.55482  0.61482  0.32529  1.0000
  C   C1103     1.0  0.37621  0.53329  0.30271  1.0000
  H   H1925     1.0  0.35002  0.67967  0.04396  1.0000
  C   C1104     1.0  0.41208  0.58605  0.01983  1.0000
  H   H1926     1.0  0.49439  0.58925  0.38214  1.0000
  H   H1927     1.0  0.62800  0.51621  0.15127  1.0000
  H   H1928     1.0  0.36578  0.67077  0.02753  1.0000
  H   H1929     1.0  0.37406  0.65914  0.04208  1.0000
  H   H1930     1.0  0.40202  0.62009  0.99559  1.0000
  H   H1931     1.0  0.37180  0.67952  0.11163  1.0000
  H   H1932     1.0  0.38238  0.67042  0.09500  1.0000
  H   H1933     1.0  0.53563  0.65570  0.33975  1.0000
  H   H1934     1.0  0.43507  0.72148  0.25842  1.0000
  C   C1105     1.0  0.60326  0.58141  0.32116  1.0000
  C   C1106     1.0  0.53678  0.51691  0.00963  1.0000
  H   H1935     1.0  0.59669  0.51011  0.45202  1.0000
  H   H1936     1.0  0.33380  0.69090  0.06673  1.0000
  H   H1937     1.0  0.59327  0.60713  0.23684  1.0000
  H   H1938     1.0  0.48498  0.62103  0.47276  1.0000
  C   C1107     1.0  0.43750  0.73112  0.23879  1.0000
  H   H1939     1.0  0.34679  0.54261  0.32234  1.0000
  H   H1940     1.0  0.38705  0.56724  0.04081  1.0000
  S   S261      1.0  0.44277  0.51819  0.25951  1.0000
  N   N60       1.0  0.36293  0.66461  0.08697  1.0000
  H   H1941     1.0  0.48460  0.51067  0.00524  1.0000
  H   H1942     1.0  0.43127  0.67023  0.00256  1.0000
  C   C1108     1.0  0.35039  0.66834  0.09838  1.0000
  C   C1109     1.0  0.52818  0.50883  0.13997  1.0000
  C   C1110     1.0  0.47149  0.56124  0.13626  1.0000
  C   C1111     1.0  0.33369  0.52415  0.34953  1.0000
  C   C1112     1.0  0.41072  0.54287  0.48119  1.0000
  H   H1943     1.0  0.37168  0.53680  0.28013  1.0000
  H   H1944     1.0  0.46098  0.55859  0.15024  1.0000
  C   C1113     1.0  0.48000  0.51421  0.26383  1.0000
  H   H1945     1.0  0.46955  0.51152  0.27849  1.0000
  Fe  Fe135     1.0  0.62489  0.50853  0.36879  1.0000
  S   S262      1.0  0.62318  0.51933  0.41408  1.0000
  H   H1946     1.0  0.44186  0.64818  0.03899  1.0000
  H   H1947     1.0  0.38216  0.51177  0.43688  1.0000
  C   C1114     1.0  0.46147  0.72419  0.25412  1.0000
  C   C1115     1.0  0.62960  0.51647  0.45330  1.0000
  N   N61       1.0  0.40679  0.57009  0.08464  1.0000
  H   H1948     1.0  0.49392  0.52958  0.22199  1.0000
  H   H1949     1.0  0.43211  0.70095  0.01646  1.0000
  H   H1950     1.0  0.46713  0.59802  0.43921  1.0000
  N   N62       1.0  0.48334  0.55126  0.22592  1.0000
  H   H1951     1.0  0.48940  0.60216  0.39941  1.0000
  H   H1952     1.0  0.55875  0.52064  0.08098  1.0000
  C   C1116     1.0  0.48031  0.55974  0.28516  1.0000
  H   H1953     1.0  0.46670  0.54615  0.20329  1.0000
  C   C1117     1.0  0.47759  0.56009  0.24650  1.0000
  H   H1954     1.0  0.47363  0.55345  0.12286  1.0000
  C   C1118     1.0  0.50452  0.57029  0.20454  1.0000
  H   H1955     1.0  0.48079  0.57032  0.23031  1.0000
  H   H1956     1.0  0.47887  0.57038  0.32777  1.0000
  H   H1957     1.0  0.47572  0.72638  0.19282  1.0000
  C   C1119     1.0  0.41417  0.60385  0.10828  1.0000
  H   H1958     1.0  0.40581  0.60228  0.13208  1.0000
  H   H1959     1.0  0.52756  0.62539  0.35701  1.0000
  C   C1120     1.0  0.60734  0.51158  0.15360  1.0000
  C   C1121     1.0  0.41680  0.59090  0.10363  1.0000
  H   H1960     1.0  0.42505  0.59283  0.07940  1.0000
  H   H1961     1.0  0.52109  0.56949  0.16327  1.0000
  C   C1122     1.0  0.58750  0.50233  0.46139  1.0000
  H   H1962     1.0  0.50036  0.57588  0.18455  1.0000
  H   H1963     1.0  0.37092  0.63638  0.16593  1.0000
  H   H1964     1.0  0.54699  0.51018  0.15171  1.0000
  C   C1123     1.0  0.41425  0.54468  0.41485  1.0000
  H   H1965     1.0  0.35310  0.64473  0.11685  1.0000
  H   H1966     1.0  0.38001  0.57725  0.28167  1.0000
  C   C1124     1.0  0.37886  0.51538  0.27028  1.0000
  C   C1125     1.0  0.37950  0.53559  0.36420  1.0000
  H   H1967     1.0  0.42128  0.54327  0.15202  1.0000
  S   S263      1.0  0.60735  0.50630  0.34456  1.0000
  H   H1968     1.0  0.42431  0.56971  0.10408  1.0000
  H   H1969     1.0  0.47725  0.57108  0.17615  1.0000
  H   H1970     1.0  0.39776  0.57803  0.12733  1.0000
  H   H1971     1.0  0.37998  0.54322  0.38009  1.0000
  H   H1972     1.0  0.51652  0.50325  0.24059  1.0000
  H   H1973     1.0  0.42498  0.57621  0.04275  1.0000
  C   C1126     1.0  0.41444  0.56334  0.10782  1.0000
  C   C1127     1.0  0.47977  0.56321  0.16399  1.0000
  H   H1974     1.0  0.39945  0.58730  0.08296  1.0000
  H   H1975     1.0  0.49011  0.56635  0.14839  1.0000
  C   C1128     1.0  0.36250  0.63992  0.17750  1.0000
  H   H1976     1.0  0.48223  0.72416  0.24794  1.0000
  H   H1977     1.0  0.57777  0.58134  0.32754  1.0000
  H   H1978     1.0  0.35456  0.65636  0.16702  1.0000
  H   H1979     1.0  0.36696  0.55410  0.30342  1.0000
  C   C1129     1.0  0.47375  0.72414  0.26954  1.0000
  C   C1130     1.0  0.52504  0.58532  0.07863  1.0000
  H   H1980     1.0  0.46331  0.71177  0.32382  1.0000
  H   H1981     1.0  0.38209  0.57467  0.07801  1.0000
  C   C1131     1.0  0.45578  0.50433  0.21929  1.0000
  H   H1982     1.0  0.54605  0.61465  0.45582  1.0000
  H   H1983     1.0  0.45346  0.72361  0.27792  1.0000
  C   C1132     1.0  0.44836  0.57512  0.47730  1.0000
  H   H1984     1.0  0.43237  0.65740  0.06197  1.0000
  H   H1985     1.0  0.58394  0.61005  0.29436  1.0000
  H   H1986     1.0  0.53381  0.59408  0.02155  1.0000
  H   H1987     1.0  0.45883  0.71493  0.24542  1.0000
  C   C1133     1.0  0.43502  0.58029  0.43439  1.0000
  H   H1988     1.0  0.51503  0.58372  0.07430  1.0000
  C   C1134     1.0  0.52590  0.62637  0.44703  1.0000
  H   H1989     1.0  0.33019  0.52702  0.37532  1.0000
  H   H1990     1.0  0.53098  0.55297  0.06822  1.0000
  H   H1991     1.0  0.36610  0.52227  0.41406  1.0000
  H   H1992     1.0  0.53262  0.54742  0.00815  1.0000
  H   H1993     1.0  0.59776  0.59939  0.31245  1.0000
  Fe  Fe136     1.0  0.34865  0.61012  0.06799  1.0000
  N   N63       1.0  0.55817  0.61034  0.02633  1.0000
  C   C1135     1.0  0.57743  0.50641  0.21729  1.0000
  H   H1994     1.0  0.53763  0.52679  0.06775  1.0000
  H   H1995     1.0  0.36460  0.51286  0.32000  1.0000
  N   N64       1.0  0.46268  0.73560  0.22274  1.0000
  H   H1996     1.0  0.59507  0.59553  0.04654  1.0000
  H   H1997     1.0  0.42709  0.53603  0.11568  1.0000
  H   H1998     1.0  0.36620  0.64687  0.99821  1.0000
  C   C1136     1.0  0.42603  0.73164  0.22118  1.0000
  C   C1137     1.0  0.39385  0.56058  0.08961  1.0000
  H   H1999     1.0  0.41227  0.56570  0.03181  1.0000
  H   H2000     1.0  0.36364  0.55947  0.06861  1.0000
  H   H2001     1.0  0.45795  0.59887  0.40444  1.0000
  H   H2002     1.0  0.57233  0.60777  0.21009  1.0000
  H   H2003     1.0  0.57390  0.61984  0.25028  1.0000
  C   C1138     1.0  0.34740  0.53241  0.32965  1.0000
  H   H2004     1.0  0.52083  0.53721  0.09282  1.0000
  H   H2005     1.0  0.52481  0.58752  0.10597  1.0000
  H   H2006     1.0  0.47363  0.61971  0.39838  1.0000
  C   C1139     1.0  0.36227  0.65216  0.11394  1.0000
  C   C1140     1.0  0.56722  0.61301  0.27547  1.0000
  H   H2007     1.0  0.56930  0.59964  0.32316  1.0000
  C   C1141     1.0  0.37056  0.55567  0.08304  1.0000
  C   C1142     1.0  0.59769  0.51577  0.13141  1.0000
  H   H2008     1.0  0.54800  0.59986  0.08219  1.0000
  H   H2009     1.0  0.37144  0.54640  0.07593  1.0000
  C   C1143     1.0  0.38603  0.57524  0.30157  1.0000
  C   C1144     1.0  0.47138  0.71205  0.30059  1.0000
  H   H2010     1.0  0.46895  0.70313  0.29048  1.0000
  H   H2011     1.0  0.39249  0.55956  0.32902  1.0000
  H   H2012     1.0  0.55837  0.62738  0.07610  1.0000
  H   H2013     1.0  0.40713  0.54269  0.10906  1.0000
  S   S264      1.0  0.52988  0.49773  0.11312  1.0000
  H   H2014     1.0  0.47637  0.73271  0.28092  1.0000
  H   H2015     1.0  0.51430  0.66506  0.44540  1.0000
  C   C1145     1.0  0.53106  0.54296  0.08124  1.0000
  H   H2016     1.0  0.39611  0.58138  0.28935  1.0000
  C   C1146     1.0  0.40880  0.54828  0.44662  1.0000
  H   H2017     1.0  0.36295  0.64080  0.20578  1.0000
  H   H2018     1.0  0.38927  0.52026  0.25724  1.0000
  H   H2019     1.0  0.55127  0.56817  0.05211  1.0000
  C   C1147     1.0  0.64070  0.51179  0.45270  1.0000
  H   H2020     1.0  0.55711  0.53801  0.99310  1.0000
  C   C1148     1.0  0.53519  0.61124  0.41381  1.0000
  H   H2021     1.0  0.52105  0.53240  0.03148  1.0000
  C   C1149     1.0  0.58962  0.60943  0.16950  1.0000
  H   H2022     1.0  0.41465  0.57604  0.39673  1.0000
  H   H2023     1.0  0.55862  0.60771  0.26805  1.0000
  H   H2024     1.0  0.38125  0.51534  0.32449  1.0000
  H   H2025     1.0  0.43536  0.59936  0.40130  1.0000
  C   C1150     1.0  0.47404  0.74193  0.15241  1.0000
  C   C1151     1.0  0.53419  0.59661  0.04822  1.0000
  H   H2026     1.0  0.54097  0.64558  0.31050  1.0000
  H   H2027     1.0  0.56643  0.61082  0.42567  1.0000
  H   H2028     1.0  0.56655  0.51210  0.17918  1.0000
  H   H2029     1.0  0.59102  0.59118  0.22966  1.0000
  C   C1152     1.0  0.42301  0.58464  0.38431  1.0000
  H   H2030     1.0  0.41959  0.59220  0.36764  1.0000
  C   C1153     1.0  0.35708  0.53089  0.35444  1.0000
  H   H2031     1.0  0.54188  0.61830  0.08237  1.0000
  H   H2032     1.0  0.58560  0.53233  0.09349  1.0000
  H   H2033     1.0  0.57152  0.59177  0.05755  1.0000
  H   H2034     1.0  0.59490  0.61886  0.17303  1.0000
  H   H2035     1.0  0.52823  0.57626  0.07833  1.0000
  H   H2036     1.0  0.52106  0.63564  0.38218  1.0000
  H   H2037     1.0  0.39642  0.70394  0.03484  1.0000
  H   H2038     1.0  0.57422  0.52490  0.04744  1.0000
  C   C1154     1.0  0.46428  0.61675  0.41949  1.0000
  H   H2039     1.0  0.57402  0.59288  0.19911  1.0000
  H   H2040     1.0  0.60362  0.57311  0.30823  1.0000
  H   H2041     1.0  0.58128  0.52388  0.17400  1.0000
  C   C1155     1.0  0.54804  0.61578  0.42560  1.0000
  C   C1156     1.0  0.54828  0.59902  0.05352  1.0000
  H   H2042     1.0  0.55032  0.58633  0.32128  1.0000
  C   C1157     1.0  0.52847  0.62989  0.38035  1.0000
  H   H2043     1.0  0.57055  0.62660  0.31015  1.0000
  H   H2044     1.0  0.55123  0.58994  0.05229  1.0000
  H   H2045     1.0  0.48276  0.49612  0.98888  1.0000
  H   H2046     1.0  0.38213  0.57791  0.32734  1.0000
  C   C1158     1.0  0.54188  0.56918  0.30556  1.0000
  H   H2047     1.0  0.55791  0.62818  0.28613  1.0000
  H   H2048     1.0  0.39073  0.55900  0.28339  1.0000
  H   H2049     1.0  0.53696  0.63765  0.04683  1.0000
  C   C1159     1.0  0.54206  0.63957  0.36758  1.0000
  H   H2050     1.0  0.54562  0.62263  0.01184  1.0000
  C   C1160     1.0  0.35682  0.64958  0.00439  1.0000
  C   C1161     1.0  0.43371  0.70544  0.98763  1.0000
  C   C1162     1.0  0.37477  0.51856  0.30742  1.0000
  H   H2051     1.0  0.48347  0.74177  0.19766  1.0000
  H   H2052     1.0  0.35735  0.65865  0.98425  1.0000
  C   C1163     1.0  0.51211  0.61132  0.42169  1.0000
  C   C1164     1.0  0.53167  0.53701  0.02019  1.0000
  S   S265      1.0  0.36488  0.61656  0.01671  1.0000
  C   C1165     1.0  0.57193  0.51321  0.24585  1.0000
  H   H2053     1.0  0.44935  0.72409  0.19878  1.0000
  H   H2054     1.0  0.37322  0.51407  0.38221  1.0000
  H   H2055     1.0  0.48836  0.73278  0.12743  1.0000
  C   C1166     1.0  0.55002  0.62603  0.06306  1.0000
  H   H2056     1.0  0.51243  0.60867  0.36510  1.0000
  C   C1167     1.0  0.49128  0.63069  0.46693  1.0000
  H   H2057     1.0  0.41690  0.72933  0.24292  1.0000
  H   H2058     1.0  0.42513  0.64696  0.03608  1.0000
  H   H2059     1.0  0.44039  0.60395  0.45386  1.0000
  H   H2060     1.0  0.56163  0.51305  0.24615  1.0000
  H   H2061     1.0  0.32966  0.58468  0.04011  1.0000
  H   H2062     1.0  0.55270  0.65680  0.32451  1.0000
  N   N65       1.0  0.53713  0.53065  0.99101  1.0000
  S   S266      1.0  0.37680  0.58605  0.99793  1.0000
  H   H2063     1.0  0.45697  0.57709  0.45395  1.0000
  H   H2064     1.0  0.53032  0.60524  0.04905  1.0000
  H   H2065     1.0  0.35569  0.52033  0.36491  1.0000
  H   H2066     1.0  0.35275  0.64174  0.06219  1.0000
  H   H2067     1.0  0.57245  0.50818  0.27360  1.0000
  C   C1168     1.0  0.57663  0.51132  0.11542  1.0000
  H   H2068     1.0  0.35543  0.68926  0.07471  1.0000
  C   C1169     1.0  0.54284  0.65003  0.33350  1.0000
  H   H2069     1.0  0.35031  0.52929  0.30397  1.0000
  H   H2070     1.0  0.42496  0.72450  0.20400  1.0000
  C   C1170     1.0  0.33482  0.68205  0.08490  1.0000
  H   H2071     1.0  0.55304  0.62608  0.41269  1.0000
  H   H2072     1.0  0.66229  0.49827  0.24592  1.0000
  H   H2073     1.0  0.39479  0.52130  0.39721  1.0000
  H   H2074     1.0  0.42910  0.73702  0.98918  1.0000
  H   H2075     1.0  0.47007  0.50467  0.99083  1.0000
  H   H2076     1.0  0.38676  0.53791  0.29157  1.0000
  H   H2077     1.0  0.45499  0.49800  0.24569  1.0000
  H   H2078     1.0  0.38719  0.52911  0.43003  1.0000
  H   H2079     1.0  0.38976  0.53678  0.34950  1.0000
  S   S267      1.0  0.47044  0.50642  0.11074  1.0000
  C   C1171     1.0  0.57085  0.61196  0.03805  1.0000
  C   C1172     1.0  0.57753  0.60068  0.03688  1.0000
  N   N66       1.0  0.37121  0.53763  0.33675  1.0000
  H   H2080     1.0  0.53960  0.57307  0.00345  1.0000
  C   C1173     1.0  0.50994  0.60284  0.39378  1.0000
  H   H2081     1.0  0.44004  0.55712  0.46240  1.0000
  H   H2082     1.0  0.51591  0.59569  0.39507  1.0000
  H   H2083     1.0  0.53769  0.60983  0.38538  1.0000
  H   H2084     1.0  0.45059  0.74084  0.18567  1.0000
  H   H2085     1.0  0.54567  0.51672  0.02020  1.0000
  C   C1174     1.0  0.56908  0.56914  0.01480  1.0000
  C   C1175     1.0  0.39083  0.69689  0.06106  1.0000
  C   C1176     1.0  0.55390  0.62273  0.02526  1.0000
  H   H2086     1.0  0.57793  0.62116  0.02149  1.0000
  H   H2087     1.0  0.46114  0.55538  0.47732  1.0000
  H   H2088     1.0  0.33549  0.57924  0.99957  1.0000
  C   C1177     1.0  0.53499  0.50657  0.98676  1.0000
  S   S268      1.0  0.33092  0.61678  0.05629  1.0000
  H   H2089     1.0  0.50899  0.60432  0.44903  1.0000
  C   C1178     1.0  0.48670  0.74262  0.12542  1.0000
  H   H2090     1.0  0.56106  0.59776  0.98961  1.0000
  H   H2091     1.0  0.59752  0.61239  0.02456  1.0000
  H   H2092     1.0  0.56182  0.63113  0.00764  1.0000
  H   H2093     1.0  0.50507  0.61745  0.42181  1.0000
  H   H2094     1.0  0.49999  0.49808  0.26757  1.0000
  H   H2095     1.0  0.60676  0.50109  0.15787  1.0000
  H   H2096     1.0  0.57131  0.49627  0.22490  1.0000
  Fe  Fe137     1.0  0.42247  0.53040  0.65537  1.0000
  S   S269      1.0  0.43526  0.53961  0.59885  1.0000
  H   H2097     1.0  0.43140  0.67980  0.90254  1.0000
  Fe  Fe138     1.0  0.40072  0.54302  0.63859  1.0000
  S   S270      1.0  0.41167  0.55297  0.58034  1.0000
  S   S271      1.0  0.38077  0.54497  0.66445  1.0000
  Fe  Fe139     1.0  0.41724  0.53436  0.57799  1.0000
  H   H2098     1.0  0.52243  0.63327  0.51382  1.0000
  Fe  Fe140     1.0  0.42870  0.55742  0.60530  1.0000
  S   S272      1.0  0.44318  0.57675  0.58362  1.0000
  S   S273      1.0  0.40472  0.52369  0.63461  1.0000
  S   S274      1.0  0.41744  0.54884  0.66368  1.0000
  Fe  Fe141     1.0  0.51083  0.63226  0.64955  1.0000
  S   S275      1.0  0.50720  0.64700  0.60470  1.0000
  S   S276      1.0  0.53182  0.63639  0.65351  1.0000
  Fe  Fe142     1.0  0.48261  0.61716  0.67199  1.0000
  S   S277      1.0  0.47693  0.63086  0.63018  1.0000
  S   S278      1.0  0.46596  0.60017  0.70393  1.0000
  C   C1179     1.0  0.48217  0.50734  0.85277  1.0000
  Fe  Fe143     1.0  0.48954  0.64644  0.64752  1.0000
  S   S279      1.0  0.48274  0.66453  0.65097  1.0000
  S   S280      1.0  0.50003  0.61531  0.63272  1.0000
  S   S281      1.0  0.49381  0.63285  0.69311  1.0000
  Fe  Fe144     1.0  0.35651  0.59846  0.74488  1.0000
  S   S282      1.0  0.34407  0.61283  0.74867  1.0000
  S   S283      1.0  0.37228  0.59844  0.69589  1.0000
  Fe  Fe145     1.0  0.34846  0.58664  0.82712  1.0000
  S   S284      1.0  0.53130  0.50153  0.75099  1.0000
  S   S285      1.0  0.35213  0.57114  0.86944  1.0000
  H   H2099     1.0  0.50514  0.49886  0.85916  1.0000
  H   H2100     1.0  0.43320  0.65780  0.64000  1.0000
  Fe  Fe146     1.0  0.35180  0.61562  0.79826  1.0000
  S   S286      1.0  0.35734  0.63335  0.82075  1.0000
  H   H2101     1.0  0.56910  0.62714  0.95287  1.0000
  S   S287      1.0  0.36514  0.60268  0.79159  1.0000
  Fe  Fe147     1.0  0.44650  0.69266  0.79645  1.0000
  S   S288      1.0  0.44032  0.70134  0.74653  1.0000
  S   S289      1.0  0.46085  0.68015  0.79787  1.0000
  Fe  Fe148     1.0  0.42548  0.70005  0.84745  1.0000
  S   S290      1.0  0.41717  0.70827  0.80141  1.0000
  S   S291      1.0  0.41619  0.69980  0.90574  1.0000
  Fe  Fe149     1.0  0.42004  0.69101  0.77966  1.0000
  S   S292      1.0  0.40834  0.67918  0.74869  1.0000
  Fe  Fe150     1.0  0.43809  0.71781  0.77327  1.0000
  S   S293      1.0  0.42629  0.68183  0.82863  1.0000
  S   S294      1.0  0.44635  0.71014  0.82013  1.0000
  Fe  Fe151     1.0  0.55303  0.57554  0.86740  1.0000
  S   S295      1.0  0.57220  0.58496  0.82691  1.0000
  S   S296      1.0  0.54704  0.57802  0.92549  1.0000
  Fe  Fe152     1.0  0.54178  0.56336  0.81115  1.0000
  S   S297      1.0  0.56006  0.57154  0.76638  1.0000
  S   S298      1.0  0.52392  0.55189  0.79977  1.0000
  Fe  Fe153     1.0  0.57009  0.56583  0.81096  1.0000
  S   S299      1.0  0.58640  0.55567  0.80811  1.0000
  Fe  Fe154     1.0  0.56034  0.58978  0.78601  1.0000
  S   S300      1.0  0.56615  0.60963  0.74689  1.0000
  S   S301      1.0  0.55163  0.55606  0.85441  1.0000
  S   S302      1.0  0.54135  0.58194  0.82775  1.0000
  H   H2102     1.0  0.34956  0.53852  0.84275  1.0000
  H   H2103     1.0  0.62257  0.60670  0.68851  1.0000
  C   C1180     1.0  0.38415  0.57601  0.77879  1.0000
  H   H2104     1.0  0.43042  0.57605  0.52643  1.0000
  H   H2105     1.0  0.44940  0.59931  0.48627  1.0000
  C   C1181     1.0  0.60133  0.54161  0.70605  1.0000
  C   C1182     1.0  0.59117  0.54781  0.70723  1.0000
  C   C1183     1.0  0.58616  0.55166  0.73894  1.0000
  C   C1184     1.0  0.59160  0.54979  0.76930  1.0000
  C   C1185     1.0  0.60177  0.54359  0.76821  1.0000
  C   C1186     1.0  0.60656  0.53942  0.73680  1.0000
  H   H2106     1.0  0.57821  0.55625  0.73968  1.0000
  H   H2107     1.0  0.60602  0.54210  0.79165  1.0000
  H   H2108     1.0  0.61446  0.53473  0.73610  1.0000
  C   C1187     1.0  0.53052  0.51677  0.75851  1.0000
  C   C1188     1.0  0.51993  0.52164  0.75292  1.0000
  C   C1189     1.0  0.51838  0.53294  0.76357  1.0000
  C   C1190     1.0  0.52740  0.53937  0.78000  1.0000
  C   C1191     1.0  0.53860  0.53513  0.78280  1.0000
  C   C1192     1.0  0.54019  0.52382  0.77188  1.0000
  H   H2109     1.0  0.51291  0.51665  0.74047  1.0000
  H   H2110     1.0  0.51008  0.53656  0.75971  1.0000
  H   H2111     1.0  0.54572  0.54018  0.79498  1.0000
  H   H2112     1.0  0.54853  0.52019  0.77567  1.0000
  C   C1193     1.0  0.55582  0.57454  0.95897  1.0000
  C   C1194     1.0  0.56871  0.57372  0.94973  1.0000
  C   C1195     1.0  0.40962  0.58581  0.54237  1.0000
  N   N67       1.0  0.43373  0.63010  0.66108  1.0000
  C   C1196     1.0  0.40728  0.72637  0.86950  1.0000
  C   C1197     1.0  0.44211  0.66021  0.96697  1.0000
  H   H2113     1.0  0.57363  0.57531  0.92114  1.0000
  C   C1198     1.0  0.42444  0.70149  0.96828  1.0000
  S   S303      1.0  0.42786  0.51835  0.70323  1.0000
  C   C1199     1.0  0.41240  0.72905  0.64258  1.0000
  H   H2114     1.0  0.46349  0.51306  0.85981  1.0000
  C   C1200     1.0  0.39591  0.58697  0.75614  1.0000
  H   H2115     1.0  0.41516  0.72567  0.61709  1.0000
  C   C1201     1.0  0.42692  0.70654  0.93026  1.0000
  C   C1202     1.0  0.43825  0.71631  0.91219  1.0000
  C   C1203     1.0  0.44743  0.72044  0.93174  1.0000
  H   H2116     1.0  0.49350  0.69160  0.70094  1.0000
  C   C1204     1.0  0.64603  0.51055  0.48375  1.0000
  H   H2117     1.0  0.44004  0.72056  0.88310  1.0000
  H   H2118     1.0  0.45631  0.72780  0.91755  1.0000
  C   C1205     1.0  0.37197  0.64556  0.80118  1.0000
  C   C1206     1.0  0.37993  0.64609  0.76718  1.0000
  C   C1207     1.0  0.39117  0.65636  0.75165  1.0000
  C   C1208     1.0  0.39475  0.66593  0.77049  1.0000
  C   C1209     1.0  0.38704  0.66515  0.80506  1.0000
  C   C1210     1.0  0.37556  0.65513  0.81998  1.0000
  H   H2119     1.0  0.37716  0.63883  0.75234  1.0000
  H   H2120     1.0  0.39703  0.65698  0.72472  1.0000
  H   H2121     1.0  0.38960  0.67258  0.81954  1.0000
  H   H2122     1.0  0.36926  0.65496  0.84580  1.0000
  H   H2123     1.0  0.40508  0.58480  0.76120  1.0000
  H   H2124     1.0  0.62759  0.56610  0.62162  1.0000
  N   N68       1.0  0.37468  0.55114  0.79183  1.0000
  H   H2125     1.0  0.60380  0.59879  0.79708  1.0000
  H   H2126     1.0  0.51971  0.55328  0.90090  1.0000
  S   S304      1.0  0.34060  0.58130  0.78023  1.0000
  C   C1211     1.0  0.52212  0.50900  0.87262  1.0000
  C   C1212     1.0  0.40100  0.68731  0.65458  1.0000
  C   C1213     1.0  0.47550  0.66761  0.69275  1.0000
  C   C1214     1.0  0.47635  0.66075  0.72687  1.0000
  C   C1215     1.0  0.47159  0.66447  0.75918  1.0000
  C   C1216     1.0  0.46579  0.67492  0.75756  1.0000
  C   C1217     1.0  0.46457  0.68143  0.72355  1.0000
  C   C1218     1.0  0.46944  0.67782  0.69132  1.0000
  H   H2127     1.0  0.48102  0.65286  0.72822  1.0000
  H   H2128     1.0  0.47259  0.65939  0.78537  1.0000
  H   H2129     1.0  0.46035  0.68961  0.72177  1.0000
  H   H2130     1.0  0.46882  0.68322  0.66501  1.0000
  C   C1219     1.0  0.54034  0.62811  0.68131  1.0000
  C   C1220     1.0  0.53486  0.61589  0.70600  1.0000
  C   C1221     1.0  0.54257  0.60992  0.72662  1.0000
  C   C1222     1.0  0.55568  0.61625  0.72265  1.0000
  C   C1223     1.0  0.56094  0.62845  0.69828  1.0000
  C   C1224     1.0  0.55336  0.63430  0.67781  1.0000
  H   H2131     1.0  0.52481  0.61101  0.70891  1.0000
  H   H2132     1.0  0.53841  0.60048  0.74542  1.0000
  H   H2133     1.0  0.57100  0.63342  0.69501  1.0000
  H   H2134     1.0  0.55769  0.64370  0.65889  1.0000
  C   C1225     1.0  0.37847  0.56013  0.67069  1.0000
  C   C1226     1.0  0.36620  0.56074  0.68929  1.0000
  C   C1227     1.0  0.36419  0.57242  0.69706  1.0000
  C   C1228     1.0  0.37439  0.58368  0.68565  1.0000
  C   C1229     1.0  0.38656  0.58320  0.66578  1.0000
  C   C1230     1.0  0.38866  0.57144  0.65875  1.0000
  H   H2135     1.0  0.35823  0.55207  0.69823  1.0000
  H   H2136     1.0  0.35471  0.57272  0.71169  1.0000
  H   H2137     1.0  0.39447  0.59191  0.65639  1.0000
  H   H2138     1.0  0.39814  0.57111  0.64416  1.0000
  C   C1231     1.0  0.44213  0.51277  0.69742  1.0000
  H   H2139     1.0  0.57211  0.51872  0.73075  1.0000
  Fe  Fe155     1.0  0.63516  0.50426  0.69280  1.0000
  H   H2140     1.0  0.50631  0.52176  0.83801  1.0000
  C   C1232     1.0  0.44271  0.65546  0.63977  1.0000
  C   C1233     1.0  0.45019  0.51464  0.66256  1.0000
  N   N69       1.0  0.56674  0.50491  0.67308  1.0000
  H   H2141     1.0  0.48046  0.51837  0.73171  1.0000
  H   H2142     1.0  0.46761  0.51148  0.63164  1.0000
  H   H2143     1.0  0.44766  0.51949  0.63842  1.0000
  C   C1234     1.0  0.44901  0.58331  0.61759  1.0000
  C   C1235     1.0  0.44187  0.57973  0.65430  1.0000
  C   C1236     1.0  0.44706  0.58483  0.68108  1.0000
  C   C1237     1.0  0.45933  0.59361  0.67099  1.0000
  C   C1238     1.0  0.46626  0.59736  0.63415  1.0000
  C   C1239     1.0  0.46110  0.59229  0.60752  1.0000
  H   H2144     1.0  0.43231  0.57319  0.66198  1.0000
  H   H2145     1.0  0.44155  0.58209  0.70942  1.0000
  H   H2146     1.0  0.47565  0.60416  0.62578  1.0000
  H   H2147     1.0  0.46661  0.59528  0.57910  1.0000
  H   H2148     1.0  0.44551  0.61119  0.62992  1.0000
  C   C1240     1.0  0.46483  0.50362  0.68977  1.0000
  C   C1241     1.0  0.46719  0.50441  0.85778  1.0000
  C   C1242     1.0  0.62368  0.51954  0.48545  1.0000
  C   C1243     1.0  0.52850  0.53071  0.96416  1.0000
  C   C1244     1.0  0.37559  0.53956  0.77575  1.0000
  H   H2149     1.0  0.58037  0.61785  0.96427  1.0000
  H   H2150     1.0  0.61531  0.62811  0.63051  1.0000
  H   H2151     1.0  0.33617  0.54814  0.78250  1.0000
  H   H2152     1.0  0.52552  0.50006  0.87905  1.0000
  H   H2153     1.0  0.38313  0.59371  0.82843  1.0000
  H   H2154     1.0  0.56978  0.55318  0.90848  1.0000
  H   H2155     1.0  0.45237  0.64096  0.62441  1.0000
  H   H2156     1.0  0.45068  0.66654  0.58275  1.0000
  H   H2157     1.0  0.45221  0.57760  0.50092  1.0000
  H   H2158     1.0  0.43928  0.50485  0.75559  1.0000
  H   H2159     1.0  0.46701  0.70728  0.91851  1.0000
  H   H2160     1.0  0.35831  0.59667  0.96187  1.0000
  H   H2161     1.0  0.40692  0.71213  0.73303  1.0000
  H   H2162     1.0  0.62691  0.62632  0.59241  1.0000
  C   C1245     1.0  0.44764  0.64640  0.86591  1.0000
  H   H2163     1.0  0.41800  0.72861  0.85900  1.0000
  H   H2164     1.0  0.44454  0.66925  0.87435  1.0000
  H   H2165     1.0  0.46257  0.67943  0.93407  1.0000
  H   H2166     1.0  0.42827  0.58751  0.97400  1.0000
  H   H2167     1.0  0.55158  0.51405  0.66085  1.0000
  H   H2168     1.0  0.42753  0.49607  0.65668  1.0000
  C   C1246     1.0  0.48160  0.50802  0.91690  1.0000
  H   H2169     1.0  0.40443  0.63450  0.74416  1.0000
  H   H2170     1.0  0.50676  0.52489  0.88124  1.0000
  H   H2171     1.0  0.48708  0.51200  0.82333  1.0000
  H   H2172     1.0  0.43343  0.55717  0.50934  1.0000
  H   H2173     1.0  0.44849  0.69710  0.89252  1.0000
  H   H2174     1.0  0.45924  0.68924  0.86898  1.0000
  H   H2175     1.0  0.44486  0.63572  0.86965  1.0000
  H   H2176     1.0  0.41254  0.58172  0.56762  1.0000
  C   C1247     1.0  0.44783  0.66470  0.89849  1.0000
  H   H2177     1.0  0.59281  0.51407  0.74051  1.0000
  H   H2178     1.0  0.38600  0.58931  0.87327  1.0000
  C   C1248     1.0  0.58337  0.50710  0.75510  1.0000
  H   H2179     1.0  0.53168  0.52591  0.94220  1.0000
  C   C1249     1.0  0.41830  0.66223  0.93798  1.0000
  C   C1250     1.0  0.39082  0.61304  0.88784  1.0000
  H   H2180     1.0  0.47421  0.52746  0.88514  1.0000
  H   H2181     1.0  0.57723  0.53105  0.66708  1.0000
  S   S305      1.0  0.61413  0.50407  0.71089  1.0000
  H   H2182     1.0  0.43879  0.64249  0.60571  1.0000
  H   H2183     1.0  0.39542  0.71573  0.70763  1.0000
  H   H2184     1.0  0.44494  0.65600  0.66662  1.0000
  N   N70       1.0  0.52226  0.67063  0.70205  1.0000
  C   C1251     1.0  0.52612  0.66625  0.66728  1.0000
  C   C1252     1.0  0.51491  0.65887  0.73280  1.0000
  C   C1253     1.0  0.51296  0.67898  0.69567  1.0000
  C   C1254     1.0  0.53375  0.67839  0.71237  1.0000
  C   C1255     1.0  0.54699  0.67494  0.70189  1.0000
  C   C1256     1.0  0.50668  0.68345  0.72951  1.0000
  C   C1257     1.0  0.52253  0.64880  0.74413  1.0000
  C   C1258     1.0  0.51356  0.63660  0.77159  1.0000
  C   C1259     1.0  0.55700  0.68180  0.71975  1.0000
  C   C1260     1.0  0.50033  0.69440  0.71804  1.0000
  H   H2185     1.0  0.51764  0.65940  0.66300  1.0000
  H   H2186     1.0  0.53340  0.66056  0.66957  1.0000
  H   H2187     1.0  0.51135  0.66177  0.75849  1.0000
  H   H2188     1.0  0.50604  0.65378  0.72552  1.0000
  H   H2189     1.0  0.50489  0.67381  0.68534  1.0000
  H   H2190     1.0  0.51797  0.68794  0.67367  1.0000
  H   H2191     1.0  0.53566  0.68892  0.69932  1.0000
  H   H2192     1.0  0.53143  0.67767  0.74255  1.0000
  H   H2193     1.0  0.55102  0.67808  0.67166  1.0000
  H   H2194     1.0  0.54612  0.66441  0.71023  1.0000
  H   H2195     1.0  0.51395  0.68699  0.74458  1.0000
  H   H2196     1.0  0.49895  0.67528  0.74879  1.0000
  H   H2197     1.0  0.52729  0.64567  0.72033  1.0000
  H   H2198     1.0  0.53000  0.65294  0.75785  1.0000
  H   H2199     1.0  0.50868  0.63902  0.79675  1.0000
  H   H2200     1.0  0.50609  0.63173  0.75898  1.0000
  H   H2201     1.0  0.51936  0.62969  0.77958  1.0000
  H   H2202     1.0  0.55857  0.69249  0.71116  1.0000
  H   H2203     1.0  0.55372  0.67855  0.75023  1.0000
  H   H2204     1.0  0.56642  0.67941  0.71105  1.0000
  H   H2205     1.0  0.49476  0.69646  0.74290  1.0000
  N   N71       1.0  0.46938  0.55155  0.68087  1.0000
  C   C1261     1.0  0.47172  0.53980  0.70438  1.0000
  C   C1262     1.0  0.45528  0.55155  0.69316  1.0000
  C   C1263     1.0  0.47159  0.55006  0.64172  1.0000
  C   C1264     1.0  0.47834  0.56419  0.68157  1.0000
  C   C1265     1.0  0.48296  0.56482  0.71750  1.0000
  C   C1266     1.0  0.48493  0.53674  0.69080  1.0000
  C   C1267     1.0  0.46822  0.56042  0.61361  1.0000
  C   C1268     1.0  0.45057  0.55275  0.73297  1.0000
  C   C1269     1.0  0.43577  0.55043  0.74349  1.0000
  C   C1270     1.0  0.49108  0.57840  0.71509  1.0000
  C   C1271     1.0  0.48821  0.52757  0.72130  1.0000
  C   C1272     1.0  0.47340  0.55978  0.57406  1.0000
  H   H2206     1.0  0.46400  0.53100  0.70617  1.0000
  H   H2207     1.0  0.47084  0.54054  0.73325  1.0000
  H   H2208     1.0  0.45308  0.55981  0.67561  1.0000
  H   H2209     1.0  0.44890  0.54262  0.68955  1.0000
  H   H2210     1.0  0.46586  0.54039  0.64074  1.0000
  H   H2211     1.0  0.48197  0.55037  0.63080  1.0000
  H   H2212     1.0  0.48740  0.56676  0.65923  1.0000
  H   H2213     1.0  0.47371  0.57234  0.67532  1.0000
  H   H2214     1.0  0.48921  0.55810  0.72238  1.0000
  H   H2215     1.0  0.47469  0.56219  0.74190  1.0000
  H   H2216     1.0  0.48444  0.53191  0.66774  1.0000
  H   H2217     1.0  0.49300  0.54570  0.68070  1.0000
  H   H2218     1.0  0.47236  0.57036  0.61610  1.0000
  H   H2219     1.0  0.45751  0.55872  0.61812  1.0000
  H   H2220     1.0  0.45312  0.54563  0.75345  1.0000
  H   H2221     1.0  0.45486  0.56272  0.73508  1.0000
  H   H2222     1.0  0.43266  0.55185  0.77156  1.0000
  H   H2223     1.0  0.43254  0.55732  0.72396  1.0000
  H   H2224     1.0  0.43095  0.54036  0.74335  1.0000
  H   H2225     1.0  0.49980  0.58130  0.69166  1.0000
  H   H2226     1.0  0.48524  0.58560  0.71144  1.0000
  H   H2227     1.0  0.49440  0.57856  0.74086  1.0000
  H   H2228     1.0  0.48938  0.53215  0.74446  1.0000
  H   H2229     1.0  0.47053  0.56715  0.55496  1.0000
  H   H2230     1.0  0.48418  0.56189  0.56722  1.0000
  H   H2231     1.0  0.46924  0.55004  0.57009  1.0000
  C   C1273     1.0  0.53156  0.67722  0.63140  1.0000
  H   H2232     1.0  0.55244  0.53318  0.91907  1.0000
  C   C1274     1.0  0.56068  0.53910  0.67151  1.0000
  H   H2233     1.0  0.45505  0.64232  0.69019  1.0000
  H   H2234     1.0  0.43867  0.72805  0.62182  1.0000
  H   H2235     1.0  0.49792  0.51449  0.94179  1.0000
  H   H2236     1.0  0.41463  0.62485  0.91306  1.0000
  C   C1275     1.0  0.44013  0.72472  0.64974  1.0000
  H   H2237     1.0  0.41634  0.65626  0.96641  1.0000
  C   C1276     1.0  0.46306  0.49962  0.82562  1.0000
  H   H2238     1.0  0.40103  0.61232  0.88214  1.0000
  C   C1277     1.0  0.40606  0.62128  0.93673  1.0000
  C   C1278     1.0  0.35546  0.58587  0.92060  1.0000
  H   H2239     1.0  0.38557  0.72474  0.75821  1.0000
  C   C1279     1.0  0.42794  0.74381  0.96489  1.0000
  H   H2240     1.0  0.43561  0.61552  0.70594  1.0000
  C   C1280     1.0  0.57531  0.57099  0.97765  1.0000
  H   H2241     1.0  0.55459  0.51437  0.70437  1.0000
  C   C1281     1.0  0.42878  0.72564  0.68000  1.0000
  H   H2242     1.0  0.58101  0.49742  0.69743  1.0000
  H   H2243     1.0  0.44586  0.62473  0.59404  1.0000
  C   C1282     1.0  0.52123  0.61734  0.48645  1.0000
  H   H2244     1.0  0.38285  0.53969  0.89575  1.0000
  H   H2245     1.0  0.48445  0.49774  0.85774  1.0000
  H   H2246     1.0  0.52442  0.53886  0.89411  1.0000
  H   H2247     1.0  0.56649  0.54915  0.65757  1.0000
  C   C1283     1.0  0.38446  0.56317  0.76722  1.0000
  H   H2248     1.0  0.38616  0.51803  0.77261  1.0000
  H   H2249     1.0  0.39893  0.52592  0.73172  1.0000
  H   H2250     1.0  0.50784  0.70337  0.70206  1.0000
  C   C1284     1.0  0.45368  0.62719  0.73655  1.0000
  H   H2251     1.0  0.49745  0.52522  0.71020  1.0000
  C   C1285     1.0  0.38864  0.59717  0.84772  1.0000
  C   C1286     1.0  0.50393  0.64770  0.48774  1.0000
  H   H2252     1.0  0.45735  0.63390  0.75300  1.0000
  H   H2253     1.0  0.44662  0.61845  0.75557  1.0000
  S   S306      1.0  0.63983  0.52295  0.64897  1.0000
  H   H2254     1.0  0.58724  0.54978  0.68338  1.0000
  Fe  Fe156     1.0  0.49488  0.63001  0.59157  1.0000
  H   H2255     1.0  0.63140  0.62702  0.63526  1.0000
  H   H2256     1.0  0.39920  0.59919  0.83509  1.0000
  C   C1287     1.0  0.48547  0.54963  0.82781  1.0000
  H   H2257     1.0  0.52702  0.51426  0.84385  1.0000
  H   H2258     1.0  0.38902  0.61725  0.83013  1.0000
  H   H2259     1.0  0.58596  0.51423  0.67828  1.0000
  N   N72       1.0  0.41529  0.72067  0.67503  1.0000
  H   H2260     1.0  0.35394  0.63501  0.89983  1.0000
  C   C1288     1.0  0.36571  0.56809  0.92190  1.0000
  H   H2261     1.0  0.52335  0.68010  0.62135  1.0000
  H   H2262     1.0  0.53782  0.68593  0.63606  1.0000
  H   H2263     1.0  0.39096  0.68157  0.65706  1.0000
  S   S307      1.0  0.60769  0.53749  0.66494  1.0000
  C   C1289     1.0  0.42196  0.63338  0.68167  1.0000
  H   H2264     1.0  0.42681  0.61131  0.57832  1.0000
  C   C1290     1.0  0.38518  0.60942  0.85578  1.0000
  C   C1291     1.0  0.44147  0.62484  0.68660  1.0000
  C   C1292     1.0  0.60177  0.58856  0.73561  1.0000
  C   C1293     1.0  0.48739  0.51396  0.94595  1.0000
  S   S308      1.0  0.44304  0.73906  0.74306  1.0000
  H   H2265     1.0  0.38676  0.62269  0.95490  1.0000
  H   H2266     1.0  0.36978  0.53915  0.75453  1.0000
  H   H2267     1.0  0.58937  0.57618  0.69282  1.0000
  H   H2268     1.0  0.43978  0.63774  0.72465  1.0000
  H   H2269     1.0  0.54280  0.68064  0.57524  1.0000
  H   H2270     1.0  0.54824  0.67039  0.60900  1.0000
  S   S309      1.0  0.64688  0.51154  0.55474  1.0000
  Fe  Fe157     1.0  0.61828  0.52151  0.66420  1.0000
  C   C1294     1.0  0.44243  0.56024  0.48689  1.0000
  C   C1295     1.0  0.33671  0.54495  0.81153  1.0000
  C   C1296     1.0  0.38932  0.53904  0.75570  1.0000
  H   H2271     1.0  0.58068  0.51548  0.62221  1.0000
  C   C1297     1.0  0.57121  0.54364  0.92103  1.0000
  H   H2272     1.0  0.53727  0.55069  0.93066  1.0000
  C   C1298     1.0  0.62329  0.62344  0.62284  1.0000
  C   C1299     1.0  0.53953  0.67278  0.60093  1.0000
  H   H2273     1.0  0.44170  0.73792  0.82070  1.0000
  H   H2274     1.0  0.46111  0.73190  0.63008  1.0000
  C   C1300     1.0  0.46148  0.51008  0.65879  1.0000
  H   H2275     1.0  0.36978  0.61685  0.92431  1.0000
  C   C1301     1.0  0.39474  0.62742  0.92974  1.0000
  H   H2276     1.0  0.37744  0.56588  0.96112  1.0000
  H   H2277     1.0  0.40503  0.74018  0.82462  1.0000
  C   C1302     1.0  0.48449  0.52833  0.87141  1.0000
  H   H2278     1.0  0.37498  0.63804  0.94394  1.0000
  H   H2279     1.0  0.42707  0.59760  0.61350  1.0000
  H   H2280     1.0  0.39759  0.63783  0.93013  1.0000
  H   H2281     1.0  0.55141  0.54876  0.96353  1.0000
  C   C1303     1.0  0.52751  0.54426  0.94451  1.0000
  H   H2282     1.0  0.48715  0.55463  0.79839  1.0000
  C   C1304     1.0  0.43937  0.61611  0.61493  1.0000
  C   C1305     1.0  0.57727  0.50627  0.69407  1.0000
  N   N73       1.0  0.38986  0.62592  0.89571  1.0000
  H   H2283     1.0  0.39535  0.73845  0.76882  1.0000
  C   C1306     1.0  0.57078  0.61730  0.95760  1.0000
  H   H2284     1.0  0.44950  0.64513  0.92139  1.0000
  H   H2285     1.0  0.45334  0.67562  0.61677  1.0000
  C   C1307     1.0  0.45683  0.50181  0.72473  1.0000
  H   H2286     1.0  0.42978  0.72017  0.70669  1.0000
  H   H2287     1.0  0.47749  0.70009  0.89060  1.0000
  S   S310      1.0  0.49169  0.62441  0.53922  1.0000
  C   C1308     1.0  0.50220  0.51752  0.86795  1.0000
  H   H2288     1.0  0.41981  0.57192  0.49845  1.0000
  H   H2289     1.0  0.39816  0.72266  0.78220  1.0000
  C   C1309     1.0  0.55810  0.53397  0.94019  1.0000
  C   C1310     1.0  0.36130  0.55329  0.79268  1.0000
  H   H2290     1.0  0.39759  0.55648  0.81870  1.0000
  H   H2291     1.0  0.37529  0.57904  0.77421  1.0000
  C   C1311     1.0  0.36054  0.58885  0.95030  1.0000
  H   H2292     1.0  0.55926  0.53793  0.70171  1.0000
  H   H2293     1.0  0.47556  0.54955  0.84250  1.0000
  H   H2294     1.0  0.44766  0.54232  0.50550  1.0000
  C   C1312     1.0  0.45205  0.55293  0.49930  1.0000
  H   H2295     1.0  0.41562  0.69403  0.98247  1.0000
  C   C1313     1.0  0.57321  0.50868  0.73303  1.0000
  H   H2296     1.0  0.41379  0.63462  0.96789  1.0000
  H   H2297     1.0  0.53360  0.66407  0.59531  1.0000
  H   H2298     1.0  0.52249  0.54896  0.96423  1.0000
  H   H2299     1.0  0.40630  0.69013  0.62514  1.0000
  H   H2300     1.0  0.50963  0.53770  0.92784  1.0000
  C   C1314     1.0  0.60735  0.58992  0.79705  1.0000
  H   H2301     1.0  0.59440  0.57911  0.74816  1.0000
  H   H2302     1.0  0.59932  0.58127  0.81216  1.0000
  H   H2303     1.0  0.40015  0.54676  0.88010  1.0000
  H   H2304     1.0  0.61525  0.59031  0.81188  1.0000
  H   H2305     1.0  0.61600  0.58006  0.75952  1.0000
  H   H2306     1.0  0.61155  0.57211  0.71040  1.0000
  H   H2307     1.0  0.40744  0.61438  0.69880  1.0000
  H   H2308     1.0  0.39514  0.59612  0.76402  1.0000
  H   H2309     1.0  0.45935  0.49689  0.74874  1.0000
  H   H2310     1.0  0.56566  0.50710  0.61612  1.0000
  C   C1315     1.0  0.39050  0.54789  0.87626  1.0000
  C   C1316     1.0  0.51981  0.54337  0.91510  1.0000
  H   H2311     1.0  0.41364  0.62929  0.84345  1.0000
  H   H2312     1.0  0.63705  0.57738  0.64147  1.0000
  C   C1317     1.0  0.61249  0.58901  0.75772  1.0000
  H   H2313     1.0  0.40637  0.54563  0.50546  1.0000
  C   C1318     1.0  0.44219  0.64189  0.63167  1.0000
  H   H2314     1.0  0.59668  0.59610  0.74152  1.0000
  H   H2315     1.0  0.62647  0.56218  0.67031  1.0000
  H   H2316     1.0  0.40270  0.71785  0.86019  1.0000
  H   H2317     1.0  0.41222  0.64491  0.78969  1.0000
  Fe  Fe158     1.0  0.63472  0.50989  0.61163  1.0000
  H   H2318     1.0  0.37299  0.55599  0.84473  1.0000
  H   H2319     1.0  0.62095  0.59744  0.74486  1.0000
  C   C1319     1.0  0.61515  0.58130  0.68832  1.0000
  H   H2320     1.0  0.40172  0.72794  0.64702  1.0000
  C   C1320     1.0  0.59453  0.58651  0.67968  1.0000
  C   C1321     1.0  0.38908  0.52586  0.74692  1.0000
  H   H2321     1.0  0.62510  0.58576  0.69070  1.0000
  H   H2322     1.0  0.42746  0.65015  0.80163  1.0000
  H   H2323     1.0  0.58040  0.59358  0.71462  1.0000
  C   C1322     1.0  0.58448  0.59465  0.68500  1.0000
  N   N74       1.0  0.60639  0.59026  0.69449  1.0000
  H   H2324     1.0  0.51044  0.61431  0.49444  1.0000
  H   H2325     1.0  0.47990  0.53088  0.81696  1.0000
  C   C1323     1.0  0.62758  0.57023  0.64609  1.0000
  H   H2326     1.0  0.39624  0.58841  0.72635  1.0000
  H   H2327     1.0  0.38923  0.55715  0.88275  1.0000
  C   C1324     1.0  0.61637  0.57670  0.65199  1.0000
  H   H2328     1.0  0.59720  0.58697  0.64986  1.0000
  H   H2329     1.0  0.58892  0.60508  0.67177  1.0000
  H   H2330     1.0  0.60729  0.56945  0.65325  1.0000
  H   H2331     1.0  0.58025  0.50914  0.78239  1.0000
  H   H2332     1.0  0.34984  0.53312  0.80083  1.0000
  H   H2333     1.0  0.40486  0.72371  0.90008  1.0000
  C   C1325     1.0  0.41675  0.64844  0.81086  1.0000
  H   H2334     1.0  0.49685  0.53649  0.81533  1.0000
  H   H2335     1.0  0.42067  0.70761  0.64195  1.0000
  H   H2336     1.0  0.41666  0.63741  0.66169  1.0000
  C   C1326     1.0  0.41924  0.74379  0.63220  1.0000
  H   H2337     1.0  0.49282  0.55519  0.83952  1.0000
  H   H2338     1.0  0.60774  0.61078  0.68759  1.0000
  H   H2339     1.0  0.50745  0.65125  0.50954  1.0000
  C   C1327     1.0  0.61368  0.60430  0.67813  1.0000
  H   H2340     1.0  0.39202  0.63690  0.84012  1.0000
  C   C1328     1.0  0.35810  0.57546  0.90636  1.0000
  H   H2341     1.0  0.57939  0.62018  0.89933  1.0000
  H   H2342     1.0  0.40703  0.67224  0.90614  1.0000
  H   H2343     1.0  0.39439  0.69589  0.69815  1.0000
  H   H2344     1.0  0.57638  0.54005  0.89862  1.0000
  H   H2345     1.0  0.41788  0.70127  0.68999  1.0000
  S   S311      1.0  0.64488  0.49882  0.73912  1.0000
  H   H2346     1.0  0.39454  0.56215  0.76429  1.0000
  H   H2347     1.0  0.38299  0.56453  0.73880  1.0000
  C   C1329     1.0  0.40618  0.66706  0.93491  1.0000
  C   C1330     1.0  0.41029  0.62407  0.97098  1.0000
  H   H2348     1.0  0.41643  0.61778  0.73268  1.0000
  C   C1331     1.0  0.41160  0.63849  0.84796  1.0000
  C   C1332     1.0  0.44730  0.63405  0.70895  1.0000
  H   H2349     1.0  0.56584  0.59590  0.67377  1.0000
  C   C1333     1.0  0.57309  0.59021  0.66819  1.0000
  S   S312      1.0  0.61366  0.50979  0.62361  1.0000
  C   C1334     1.0  0.41425  0.70719  0.66891  1.0000
  H   H2350     1.0  0.55104  0.53764  0.66466  1.0000
  H   H2351     1.0  0.45143  0.65735  0.96631  1.0000
  H   H2352     1.0  0.41450  0.65781  0.81295  1.0000
  H   H2353     1.0  0.39555  0.70531  0.65258  1.0000
  C   C1335     1.0  0.52574  0.62422  0.51488  1.0000
  H   H2354     1.0  0.36757  0.55992  0.91150  1.0000
  H   H2355     1.0  0.56822  0.57978  0.68056  1.0000
  C   C1336     1.0  0.45685  0.69284  0.89405  1.0000
  C   C1337     1.0  0.36869  0.58179  0.96447  1.0000
  H   H2356     1.0  0.42668  0.73839  0.94337  1.0000
  H   H2357     1.0  0.41715  0.64199  0.86728  1.0000
  H   H2358     1.0  0.35520  0.64487  0.93232  1.0000
  C   C1338     1.0  0.39696  0.63714  0.86316  1.0000
  C   C1339     1.0  0.45340  0.68197  0.92993  1.0000
  C   C1340     1.0  0.40548  0.71945  0.71030  1.0000
  C   C1341     1.0  0.57154  0.61306  0.92144  1.0000
  H   H2359     1.0  0.42857  0.67965  0.94942  1.0000
  H   H2360     1.0  0.39275  0.54650  0.72914  1.0000
  H   H2361     1.0  0.37186  0.62575  0.87839  1.0000
  H   H2362     1.0  0.51842  0.52483  0.97862  1.0000
  H   H2363     1.0  0.62416  0.52035  0.54135  1.0000
  H   H2364     1.0  0.57374  0.60342  0.92440  1.0000
  H   H2365     1.0  0.45867  0.66755  0.88940  1.0000
  H   H2366     1.0  0.57004  0.53161  0.62842  1.0000
  H   H2367     1.0  0.39641  0.64650  0.87016  1.0000
  H   H2368     1.0  0.45525  0.72919  0.67910  1.0000
  H   H2369     1.0  0.35212  0.62750  0.94783  1.0000
  C   C1342     1.0  0.34960  0.54152  0.81324  1.0000
  H   H2370     1.0  0.48213  0.49775  0.92119  1.0000
  H   H2371     1.0  0.40468  0.67363  0.95336  1.0000
  C   C1343     1.0  0.64003  0.51349  0.51606  1.0000
  H   H2372     1.0  0.58457  0.49706  0.75935  1.0000
  H   H2373     1.0  0.40519  0.59383  0.54754  1.0000
  C   C1344     1.0  0.40073  0.62685  0.73053  1.0000
  H   H2374     1.0  0.37699  0.64677  0.89747  1.0000
  H   H2375     1.0  0.57650  0.59177  0.63793  1.0000
  H   H2376     1.0  0.56220  0.61242  0.91298  1.0000
  C   C1345     1.0  0.41188  0.62207  0.71129  1.0000
  H   H2377     1.0  0.38221  0.52379  0.72931  1.0000
  H   H2378     1.0  0.44986  0.62223  0.67085  1.0000
  H   H2379     1.0  0.38428  0.57495  0.80815  1.0000
  H   H2380     1.0  0.61795  0.58464  0.62743  1.0000
  H   H2381     1.0  0.61050  0.60571  0.62193  1.0000
  C   C1346     1.0  0.45321  0.73276  0.65202  1.0000
  H   H2382     1.0  0.39663  0.54091  0.77192  1.0000
  H   H2383     1.0  0.37116  0.53036  0.79739  1.0000
  H   H2384     1.0  0.46745  0.50714  0.79944  1.0000
  H   H2385     1.0  0.36952  0.53923  0.84751  1.0000
  C   C1347     1.0  0.37211  0.63745  0.91781  1.0000
  H   H2386     1.0  0.40231  0.73894  0.70370  1.0000
  C   C1348     1.0  0.39550  0.72924  0.76045  1.0000
  C   C1349     1.0  0.38985  0.54804  0.83650  1.0000
  H   H2387     1.0  0.39140  0.73478  0.86406  1.0000
  H   H2388     1.0  0.62664  0.60464  0.62626  1.0000
  C   C1350     1.0  0.61836  0.60868  0.63570  1.0000
  H   H2389     1.0  0.35992  0.56134  0.80579  1.0000
  H   H2390     1.0  0.36019  0.55637  0.76423  1.0000
  H   H2391     1.0  0.40590  0.68106  0.67066  1.0000
  N   N75       1.0  0.44322  0.66986  0.93153  1.0000
  C   C1351     1.0  0.37619  0.54865  0.83093  1.0000
  H   H2392     1.0  0.44073  0.60465  0.57434  1.0000
  C   C1352     1.0  0.37563  0.62586  0.90357  1.0000
  C   C1353     1.0  0.35745  0.63607  0.92489  1.0000
  H   H2393     1.0  0.41500  0.73668  0.72734  1.0000
  N   N76       1.0  0.48759  0.51528  0.87730  1.0000
  H   H2394     1.0  0.39195  0.53895  0.83098  1.0000
  H   H2395     1.0  0.44245  0.65082  0.84639  1.0000
  H   H2396     1.0  0.47002  0.71187  0.86904  1.0000
  H   H2397     1.0  0.46208  0.62431  0.72186  1.0000
  C   C1354     1.0  0.48692  0.53581  0.83073  1.0000
  H   H2398     1.0  0.37440  0.60740  0.86321  1.0000
  H   H2399     1.0  0.38570  0.60511  0.91290  1.0000
  C   C1355     1.0  0.37123  0.57142  0.95015  1.0000
  C   C1356     1.0  0.46856  0.70366  0.89313  1.0000
  H   H2400     1.0  0.34940  0.59148  0.90905  1.0000
  C   C1357     1.0  0.44409  0.64978  0.90301  1.0000
  H   H2401     1.0  0.43361  0.64537  0.91495  1.0000
  H   H2402     1.0  0.49036  0.53480  0.88491  1.0000
  C   C1358     1.0  0.57287  0.50626  0.63312  1.0000
  H   H2403     1.0  0.40281  0.61056  0.94196  1.0000
  C   C1359     1.0  0.40045  0.69933  0.66944  1.0000
  H   H2404     1.0  0.46277  0.66423  0.60842  1.0000
  C   C1360     1.0  0.49577  0.63520  0.49541  1.0000
  C   C1361     1.0  0.43060  0.67353  0.93001  1.0000
  H   H2405     1.0  0.47100  0.50738  0.92395  1.0000
  H   H2406     1.0  0.48604  0.52387  0.94442  1.0000
  H   H2407     1.0  0.42853  0.59836  0.51743  1.0000
  H   H2408     1.0  0.39745  0.65872  0.94326  1.0000
  H   H2409     1.0  0.52148  0.61781  0.54295  1.0000
  H   H2410     1.0  0.53651  0.62664  0.50989  1.0000
  C   C1362     1.0  0.55954  0.51528  0.67543  1.0000
  H   H2411     1.0  0.42483  0.64115  0.69576  1.0000
  C   C1363     1.0  0.45300  0.66608  0.61003  1.0000
  H   H2412     1.0  0.39546  0.63075  0.71042  1.0000
  H   H2413     1.0  0.43469  0.65109  0.97002  1.0000
  H   H2414     1.0  0.57742  0.54494  0.94080  1.0000
  H   H2415     1.0  0.52475  0.60842  0.48818  1.0000
  H   H2416     1.0  0.41940  0.65624  0.91788  1.0000
  H   H2417     1.0  0.39367  0.61869  0.75181  1.0000
  C   C1364     1.0  0.56787  0.52942  0.65895  1.0000
  H   H2418     1.0  0.41833  0.59592  0.48605  1.0000
  H   H2419     1.0  0.42170  0.62255  0.62691  1.0000
  C   C1365     1.0  0.40536  0.73203  0.72357  1.0000
  H   H2420     1.0  0.54152  0.50988  0.95884  1.0000
  H   H2421     1.0  0.45828  0.65005  0.85369  1.0000
  H   H2422     1.0  0.56386  0.50188  0.74929  1.0000
  H   H2423     1.0  0.43053  0.73583  0.68239  1.0000
  H   H2424     1.0  0.45021  0.68657  0.95259  1.0000
  S   S313      1.0  0.41996  0.52598  0.52768  1.0000
  H   H2425     1.0  0.57806  0.49767  0.56750  1.0000
  H   H2426     1.0  0.58530  0.57044  0.97040  1.0000
  H   H2427     1.0  0.59280  0.50751  0.57393  1.0000
  H   H2428     1.0  0.44077  0.71449  0.65337  1.0000
  H   H2429     1.0  0.33564  0.55282  0.82575  1.0000
  C   C1366     1.0  0.41787  0.53356  0.48446  1.0000
  C   C1367     1.0  0.44548  0.50633  0.72850  1.0000
  C   C1368     1.0  0.40215  0.73791  0.85511  1.0000
  C   C1369     1.0  0.43305  0.60685  0.59411  1.0000
  C   C1370     1.0  0.42147  0.59100  0.50965  1.0000
  H   H2430     1.0  0.56011  0.52449  0.95034  1.0000
  H   H2431     1.0  0.42358  0.61041  0.66279  1.0000
  H   H2432     1.0  0.52490  0.51514  0.89138  1.0000
  C   C1371     1.0  0.62876  0.51789  0.51687  1.0000
  S   S314      1.0  0.33558  0.59972  0.83732  1.0000
  C   C1372     1.0  0.42886  0.61967  0.64223  1.0000
  C   C1373     1.0  0.44529  0.71480  0.96934  1.0000
  C   C1374     1.0  0.50740  0.50536  0.87750  1.0000
  H   H2433     1.0  0.42977  0.74546  0.61988  1.0000
  H   H2434     1.0  0.46231  0.49671  0.88339  1.0000
  S   S315      1.0  0.47894  0.49778  0.68306  1.0000
  H   H2435     1.0  0.41826  0.61946  0.97552  1.0000
  C   C1375     1.0  0.55096  0.53834  0.97287  1.0000
  H   H2436     1.0  0.61517  0.52328  0.48598  1.0000
  C   C1376     1.0  0.42768  0.57996  0.50069  1.0000
  H   H2437     1.0  0.40217  0.57820  0.53680  1.0000
  H   H2438     1.0  0.58240  0.50265  0.48923  1.0000
  H   H2439     1.0  0.45323  0.74315  0.64840  1.0000
  C   C1377     1.0  0.58555  0.49794  0.58375  1.0000
  H   H2440     1.0  0.55055  0.60753  0.97913  1.0000
  C   C1378     1.0  0.41772  0.58707  0.97919  1.0000
  H   H2441     1.0  0.41254  0.57861  0.97066  1.0000
  H   H2442     1.0  0.45438  0.55536  0.52464  1.0000
  H   H2443     1.0  0.45231  0.49741  0.83028  1.0000
  H   H2444     1.0  0.50318  0.49994  0.90644  1.0000
  H   H2445     1.0  0.41643  0.59599  0.96216  1.0000
  H   H2446     1.0  0.48066  0.74312  0.98365  1.0000
  H   H2447     1.0  0.52481  0.50428  0.98371  1.0000
  Fe  Fe159     1.0  0.50012  0.93201  0.28572  1.0000
  S   S316      1.0  0.50079  0.91306  0.31996  1.0000
  S   S317      1.0  0.48253  0.93991  0.28734  1.0000
  Fe  Fe160     1.0  0.52772  0.93823  0.24228  1.0000
  S   S318      1.0  0.53080  0.91939  0.27256  1.0000
  S   S319      1.0  0.54047  0.95379  0.19170  1.0000
  Fe  Fe161     1.0  0.51089  0.90952  0.26683  1.0000
  S   S320      1.0  0.50343  0.88852  0.26200  1.0000
  Fe  Fe162     1.0  0.52026  0.92396  0.32384  1.0000
  S   S321      1.0  0.52547  0.91856  0.37915  1.0000
  S   S322      1.0  0.50880  0.92786  0.23265  1.0000
  S   S323      1.0  0.51871  0.94337  0.29381  1.0000
  Fe  Fe163     1.0  0.42125  0.90246  0.26140  1.0000
  S   S324      1.0  0.40414  0.88607  0.29087  1.0000
  S   S325      1.0  0.44030  0.89754  0.25380  1.0000
  Fe  Fe164     1.0  0.40525  0.92155  0.24886  1.0000
  S   S326      1.0  0.38635  0.90618  0.27715  1.0000
  S   S327      1.0  0.40695  0.94275  0.22266  1.0000
  Fe  Fe165     1.0  0.39733  0.90038  0.32018  1.0000
  S   S328      1.0  0.39153  0.89276  0.38286  1.0000
  Fe  Fe166     1.0  0.39492  0.89299  0.24537  1.0000
  H   H2448     1.0  0.50813  0.83034  0.06598  1.0000
  S   S329      1.0  0.41541  0.91630  0.29346  1.0000
  S   S330      1.0  0.41281  0.90895  0.21443  1.0000
  H   H2449     1.0  0.48165  0.91384  0.28125  1.0000
  C   C1379     1.0  0.49524  0.81341  0.06061  1.0000
  Fe  Fe167     1.0  0.43794  0.82524  0.17672  1.0000
  S   S331      1.0  0.44661  0.84516  0.13959  1.0000
  S   S332      1.0  0.41955  0.82131  0.22087  1.0000
  Fe  Fe168     1.0  0.45817  0.81358  0.13897  1.0000
  S   S333      1.0  0.46852  0.83275  0.09884  1.0000
  S   S334      1.0  0.46628  0.79609  0.13363  1.0000
  Fe  Fe169     1.0  0.46593  0.84191  0.14716  1.0000
  S   S335      1.0  0.48311  0.85879  0.14546  1.0000
  Fe  Fe170     1.0  0.44858  0.83447  0.09488  1.0000
  S   S336      1.0  0.44245  0.84087  0.04247  1.0000
  S   S337      1.0  0.45706  0.82252  0.18788  1.0000
  S   S338      1.0  0.43840  0.81478  0.13149  1.0000
  H   H2450     1.0  0.47190  0.76360  0.18693  1.0000
  H   H2451     1.0  0.54811  0.82353  0.11132  1.0000
  H   H2452     1.0  0.41227  0.98150  0.10746  1.0000
  H   H2453     1.0  0.42736  0.94815  0.40451  1.0000
  H   H2454     1.0  0.42065  0.93117  0.41685  1.0000
  C   C1380     1.0  0.50789  0.98497  0.10912  1.0000
  H   H2455     1.0  0.47514  0.79926  0.25548  1.0000
  H   H2456     1.0  0.44577  0.84756  0.25642  1.0000
  H   H2457     1.0  0.45825  0.75392  0.10104  1.0000
  S   S339      1.0  0.36857  0.79002  0.18702  1.0000
  H   H2458     1.0  0.47216  0.77472  0.10516  1.0000
  H   H2459     1.0  0.41102  0.92728  0.11767  1.0000
  H   H2460     1.0  0.40967  0.94193  0.37648  1.0000
  C   C1381     1.0  0.44036  0.75763  0.12655  1.0000
  H   H2461     1.0  0.49177  0.98714  0.08407  1.0000
  C   C1382     1.0  0.45614  0.78142  0.13062  1.0000
  C   C1383     1.0  0.44265  0.77837  0.14394  1.0000
  C   C1384     1.0  0.43483  0.76654  0.14189  1.0000
  H   H2462     1.0  0.43825  0.78507  0.15623  1.0000
  H   H2463     1.0  0.42441  0.76418  0.15261  1.0000
  C   C1385     1.0  0.38256  0.79920  0.19623  1.0000
  C   C1386     1.0  0.38879  0.79292  0.22042  1.0000
  C   C1387     1.0  0.40020  0.79972  0.22748  1.0000
  C   C1388     1.0  0.40562  0.81283  0.20997  1.0000
  C   C1389     1.0  0.39935  0.81923  0.18606  1.0000
  C   C1390     1.0  0.38776  0.81245  0.17947  1.0000
  H   H2464     1.0  0.38481  0.78272  0.23362  1.0000
  H   H2465     1.0  0.40489  0.79477  0.24638  1.0000
  H   H2466     1.0  0.40334  0.82945  0.17304  1.0000
  H   H2467     1.0  0.38293  0.81746  0.16136  1.0000
  C   C1391     1.0  0.45387  0.76063  0.11330  1.0000
  H   H2468     1.0  0.50383  0.98106  0.05825  1.0000
  H   H2469     1.0  0.39240  0.83651  0.32952  1.0000
  H   H2470     1.0  0.48690  0.81782  0.05964  1.0000
  H   H2471     1.0  0.49484  0.92107  0.16856  1.0000
  H   H2472     1.0  0.36181  0.87438  0.22510  1.0000
  H   H2473     1.0  0.53302  0.83667  0.12669  1.0000
  H   H2474     1.0  0.45897  0.85967  0.26203  1.0000
  C   C1392     1.0  0.39498  0.90175  0.41569  1.0000
  H   H2475     1.0  0.49370  0.96128  0.20351  1.0000
  C   C1393     1.0  0.52882  0.82676  0.12411  1.0000
  C   C1394     1.0  0.39235  0.91388  0.41404  1.0000
  H   H2476     1.0  0.49144  0.80289  0.07396  1.0000
  S   S340      1.0  0.36614  0.81977  0.11307  1.0000
  H   H2477     1.0  0.38905  0.91835  0.39090  1.0000
  H   H2478     1.0  0.56506  0.95390  0.43447  1.0000
  C   C1395     1.0  0.58800  0.97429  0.02650  1.0000
  C   C1396     1.0  0.49749  0.88071  0.22910  1.0000
  C   C1397     1.0  0.48926  0.86803  0.24137  1.0000
  C   C1398     1.0  0.48468  0.86121  0.21640  1.0000
  C   C1399     1.0  0.48845  0.86690  0.17857  1.0000
  C   C1400     1.0  0.49694  0.87944  0.16620  1.0000
  C   C1401     1.0  0.50128  0.88637  0.19123  1.0000
  H   H2479     1.0  0.48638  0.86346  0.27053  1.0000
  H   H2480     1.0  0.47831  0.85153  0.22648  1.0000
  H   H2481     1.0  0.50011  0.88390  0.13701  1.0000
  H   H2482     1.0  0.50776  0.89600  0.18121  1.0000
  C   C1402     1.0  0.52332  0.92584  0.41695  1.0000
  C   C1403     1.0  0.52540  0.91965  0.45048  1.0000
  H   H2483     1.0  0.48463  0.92488  0.13800  1.0000
  C   C1404     1.0  0.52090  0.94421  0.44283  1.0000
  C   C1405     1.0  0.52082  0.93806  0.41350  1.0000
  H   H2484     1.0  0.40562  0.80767  0.34204  1.0000
  H   H2485     1.0  0.45946  0.76309  0.02014  1.0000
  H   H2486     1.0  0.51938  0.94301  0.38772  1.0000
  C   C1406     1.0  0.54904  0.96953  0.19241  1.0000
  C   C1407     1.0  0.55145  0.97257  0.22487  1.0000
  C   C1408     1.0  0.55918  0.98489  0.22377  1.0000
  H   H2487     1.0  0.48785  0.81262  0.25745  1.0000
  C   C1409     1.0  0.42963  0.98508  0.06278  1.0000
  C   C1410     1.0  0.55399  0.97911  0.15914  1.0000
  H   H2488     1.0  0.54767  0.96528  0.25059  1.0000
  H   H2489     1.0  0.47438  0.75010  0.24295  1.0000
  H   H2490     1.0  0.40083  0.88649  0.44828  1.0000
  H   H2491     1.0  0.55217  0.97683  0.13394  1.0000
  C   C1411     1.0  0.47117  0.92860  0.27496  1.0000
  C   C1412     1.0  0.46012  0.93171  0.26565  1.0000
  C   C1413     1.0  0.45064  0.92222  0.25849  1.0000
  C   C1414     1.0  0.45231  0.90972  0.26029  1.0000
  C   C1415     1.0  0.46365  0.90684  0.26764  1.0000
  C   C1416     1.0  0.47306  0.91627  0.27497  1.0000
  H   H2492     1.0  0.45890  0.94141  0.26387  1.0000
  H   H2493     1.0  0.44212  0.92457  0.25128  1.0000
  H   H2494     1.0  0.46506  0.89722  0.26857  1.0000
  C   C1417     1.0  0.37455  0.82485  0.27255  1.0000
  H   H2495     1.0  0.34521  0.78725  0.01876  1.0000
  H   H2496     1.0  0.45585  0.76878  0.25537  1.0000
  H   H2497     1.0  0.57125  0.95503  0.33671  1.0000
  C   C1418     1.0  0.55991  0.93094  0.38394  1.0000
  H   H2498     1.0  0.42403  0.92677  0.48078  1.0000
  H   H2499     1.0  0.58310  0.93525  0.40416  1.0000
  C   C1419     1.0  0.44409  0.78066  0.02870  1.0000
  C   C1420     1.0  0.59003  0.95588  0.39413  1.0000
  C   C1421     1.0  0.56477  0.91854  0.39355  1.0000
  C   C1422     1.0  0.55517  0.90663  0.38989  1.0000
  H   H2500     1.0  0.34195  0.82137  0.01330  1.0000
  H   H2501     1.0  0.54946  0.92850  0.39799  1.0000
  H   H2502     1.0  0.56020  0.93248  0.35398  1.0000
  H   H2503     1.0  0.61013  0.96378  0.39456  1.0000
  H   H2504     1.0  0.41306  0.95080  0.29279  1.0000
  H   H2505     1.0  0.43913  0.75710  0.00646  1.0000
  H   H2506     1.0  0.59011  0.96492  0.37466  1.0000
  H   H2507     1.0  0.54625  0.94612  0.35730  1.0000
  H   H2508     1.0  0.57423  0.91962  0.37419  1.0000
  H   H2509     1.0  0.56615  0.91656  0.42188  1.0000
  H   H2510     1.0  0.45922  0.74713  0.98446  1.0000
  H   H2511     1.0  0.53539  0.99497  0.05118  1.0000
  H   H2512     1.0  0.55348  0.90810  0.36171  1.0000
  H   H2513     1.0  0.59776  0.97924  0.02870  1.0000
  H   H2514     1.0  0.38485  0.85688  0.02190  1.0000
  H   H2515     1.0  0.37431  0.87017  0.29807  1.0000
  H   H2516     1.0  0.41934  0.94465  0.06114  1.0000
  S   S341      1.0  0.45990  0.98689  0.18758  1.0000
  H   H2517     1.0  0.42362  0.86588  0.23408  1.0000
  C   C1423     1.0  0.40205  0.84146  0.07828  1.0000
  H   H2518     1.0  0.47253  0.97289  0.34412  1.0000
  H   H2519     1.0  0.45508  0.93843  0.37097  1.0000
  C   C1424     1.0  0.39985  0.90200  0.47585  1.0000
  H   H2520     1.0  0.44281  0.86222  0.26766  1.0000
  H   H2521     1.0  0.48698  0.82957  0.17668  1.0000
  H   H2522     1.0  0.39341  0.83701  0.10169  1.0000
  C   C1425     1.0  0.40425  0.83196  0.05438  1.0000
  H   H2523     1.0  0.48002  0.80606  0.18855  1.0000
  C   C1426     1.0  0.50148  0.98982  0.20858  1.0000
  H   H2524     1.0  0.43810  0.89416  0.39306  1.0000
  C   C1427     1.0  0.39362  0.80345  0.05288  1.0000
  H   H2525     1.0  0.51573  0.84246  0.09988  1.0000
  H   H2526     1.0  0.47069  0.91447  0.42742  1.0000
  H   H2527     1.0  0.43913  0.99256  0.05295  1.0000
  H   H2528     1.0  0.46783  0.97411  0.08754  1.0000
  C   C1428     1.0  0.38961  0.78887  0.05243  1.0000
  C   C1429     1.0  0.50066  0.98510  0.14822  1.0000
  H   H2529     1.0  0.51588  0.95275  0.15943  1.0000
  S   S342      1.0  0.39021  0.87780  0.21200  1.0000
  C   C1430     1.0  0.46172  0.77246  0.11550  1.0000
  H   H2530     1.0  0.50559  0.95520  0.22172  1.0000
  N   N77       1.0  0.45885  0.88765  0.16693  1.0000
  C   C1431     1.0  0.46513  0.90160  0.16547  1.0000
  C   C1432     1.0  0.44459  0.88592  0.16703  1.0000
  C   C1433     1.0  0.45969  0.87932  0.20260  1.0000
  C   C1434     1.0  0.46579  0.88306  0.13586  1.0000
  C   C1435     1.0  0.46595  0.89012  0.09649  1.0000
  C   C1436     1.0  0.47938  0.90470  0.16933  1.0000
  C   C1437     1.0  0.45296  0.86460  0.21075  1.0000
  C   C1438     1.0  0.44051  0.89762  0.14642  1.0000
  C   C1439     1.0  0.42642  0.89358  0.14344  1.0000
  C   C1440     1.0  0.47402  0.88497  0.06795  1.0000
  C   C1441     1.0  0.48467  0.91920  0.16546  1.0000
  C   C1442     1.0  0.44997  0.85814  0.25178  1.0000
  H   H2531     1.0  0.45937  0.90477  0.18779  1.0000
  H   H2532     1.0  0.46498  0.90817  0.13957  1.0000
  H   H2533     1.0  0.44102  0.87740  0.15607  1.0000
  H   H2534     1.0  0.43861  0.88371  0.19572  1.0000
  H   H2535     1.0  0.45571  0.88313  0.22612  1.0000
  H   H2536     1.0  0.46994  0.87982  0.20349  1.0000
  H   H2537     1.0  0.47597  0.88352  0.13747  1.0000
  H   H2538     1.0  0.46130  0.87264  0.13857  1.0000
  H   H2539     1.0  0.47025  0.90069  0.09099  1.0000
  H   H2540     1.0  0.45594  0.88831  0.09230  1.0000
  H   H2541     1.0  0.48006  0.89974  0.19693  1.0000
  H   H2542     1.0  0.48583  0.90183  0.14788  1.0000
  H   H2543     1.0  0.45943  0.85968  0.19573  1.0000
  H   H2544     1.0  0.44377  0.86268  0.20193  1.0000
  H   H2545     1.0  0.44116  0.90531  0.16194  1.0000
  H   H2546     1.0  0.44674  0.90190  0.11829  1.0000
  H   H2547     1.0  0.42343  0.90221  0.13066  1.0000
  H   H2548     1.0  0.42536  0.88645  0.12621  1.0000
  H   H2549     1.0  0.41978  0.88916  0.17117  1.0000
  H   H2550     1.0  0.46991  0.87440  0.07174  1.0000
  H   H2551     1.0  0.47394  0.89003  0.03981  1.0000
  H   H2552     1.0  0.48426  0.88666  0.07045  1.0000
  H   H2553     1.0  0.47877  0.92248  0.18729  1.0000
  H   H2554     1.0  0.49962  0.82889  0.19999  1.0000
  H   H2555     1.0  0.51460  0.97856  0.11029  1.0000
  C   C1443     1.0  0.39449  0.84234  0.25263  1.0000
  H   H2556     1.0  0.52049  0.84577  0.16384  1.0000
  C   C1444     1.0  0.37762  0.78580  0.03698  1.0000
  C   C1445     1.0  0.43206  0.92421  0.36170  1.0000
  H   H2557     1.0  0.34293  0.77271  0.05366  1.0000
  H   H2558     1.0  0.37558  0.85233  0.26855  1.0000
  H   H2559     1.0  0.44669  0.77289  0.04690  1.0000
  C   C1446     1.0  0.49463  0.82436  0.18093  1.0000
  C   C1447     1.0  0.43297  0.95200  0.22209  1.0000
  H   H2560     1.0  0.47966  0.93693  0.38537  1.0000
  C   C1448     1.0  0.42054  0.96118  0.08707  1.0000
  C   C1449     1.0  0.39665  0.91385  0.47487  1.0000
  H   H2561     1.0  0.41040  0.93186  0.34438  1.0000
  H   H2562     1.0  0.43860  0.78954  0.07362  1.0000
  C   C1450     1.0  0.39312  0.91984  0.44353  1.0000
  H   H2563     1.0  0.43232  0.91251  0.41500  1.0000
  C   C1451     1.0  0.35511  0.86021  0.19535  1.0000
  H   H2564     1.0  0.36876  0.84962  0.08155  1.0000
  H   H2565     1.0  0.40980  0.80133  0.98728  1.0000
  H   H2566     1.0  0.34502  0.86034  0.20353  1.0000
  C   C1452     1.0  0.43154  0.93616  0.47096  1.0000
  H   H2567     1.0  0.42136  0.92004  0.36915  1.0000
  H   H2568     1.0  0.33978  0.76324  0.23343  1.0000
  C   C1453     1.0  0.39938  0.81435  0.34721  1.0000
  H   H2569     1.0  0.43064  0.94543  0.09033  1.0000
  H   H2570     1.0  0.57224  0.93255  0.46008  1.0000
  C   C1454     1.0  0.33697  0.76520  0.20682  1.0000
  C   C1455     1.0  0.41408  0.94171  0.34796  1.0000
  C   C1456     1.0  0.36462  0.86821  0.20757  1.0000
  H   H2571     1.0  0.37427  0.84494  0.35147  1.0000
  C   C1457     1.0  0.41703  0.81356  0.02216  1.0000
  C   C1458     1.0  0.40907  0.95088  0.32177  1.0000
  C   C1459     1.0  0.37772  0.86826  0.19687  1.0000
  H   H2572     1.0  0.47345  0.77351  0.23971  1.0000
  H   H2573     1.0  0.58658  0.95669  0.42269  1.0000
  C   C1460     1.0  0.42919  0.94570  0.33959  1.0000
  H   H2574     1.0  0.49401  0.80813  0.13456  1.0000
  H   H2575     1.0  0.56132  0.98703  0.24884  1.0000
  H   H2576     1.0  0.43174  0.95612  0.33990  1.0000
  H   H2577     1.0  0.36930  0.78821  0.05361  1.0000
  H   H2578     1.0  0.49255  0.97622  0.15832  1.0000
  H   H2579     1.0  0.48949  0.97157  0.24652  1.0000
  H   H2580     1.0  0.41367  0.97008  0.18982  1.0000
  C   C1461     1.0  0.43895  0.93766  0.43149  1.0000
  H   H2581     1.0  0.47104  0.95745  0.37444  1.0000
  C   C1462     1.0  0.34483  0.75929  0.18000  1.0000
  H   H2582     1.0  0.34238  0.76126  0.15282  1.0000
  C   C1463     1.0  0.50399  0.96111  0.19655  1.0000
  H   H2583     1.0  0.49246  0.97051  0.09924  1.0000
  C   C1464     1.0  0.42997  0.93877  0.40442  1.0000
  C   C1465     1.0  0.42179  0.95487  0.21308  1.0000
  H   H2584     1.0  0.36204  0.80994  0.23193  1.0000
  H   H2585     1.0  0.41103  0.96228  0.08162  1.0000
  C   C1466     1.0  0.45976  0.82909  0.00851  1.0000
  H   H2586     1.0  0.40853  0.84917  0.28419  1.0000
  C   C1467     1.0  0.56431  0.99440  0.19041  1.0000
  C   C1468     1.0  0.44540  0.79230  0.04602  1.0000
  H   H2587     1.0  0.43553  0.92402  0.33239  1.0000
  C   C1469     1.0  0.37486  0.84479  0.29373  1.0000
  H   H2588     1.0  0.40072  0.86114  0.26495  1.0000
  C   C1470     1.0  0.44467  0.97065  0.06598  1.0000
  H   H2589     1.0  0.44690  0.97951  0.11198  1.0000
  C   C1471     1.0  0.40483  0.85294  0.26024  1.0000
  H   H2590     1.0  0.49914  0.94372  0.17725  1.0000
  H   H2591     1.0  0.42105  0.85063  0.22079  1.0000
  H   H2592     1.0  0.37812  0.82377  0.34003  1.0000
  H   H2593     1.0  0.48705  0.91282  0.42405  1.0000
  H   H2594     1.0  0.43266  0.94217  0.23518  1.0000
  N   N78       1.0  0.43537  0.93802  0.36552  1.0000
  H   H2595     1.0  0.46122  0.96727  0.13612  1.0000
  H   H2596     1.0  0.40494  0.82234  0.35676  1.0000
  H   H2597     1.0  0.39829  0.94764  0.32771  1.0000
  H   H2598     1.0  0.43958  0.90233  0.34604  1.0000
  Fe  Fe171     1.0  0.34738  0.82398  0.13724  1.0000
  H   H2599     1.0  0.41276  0.83722  0.03118  1.0000
  H   H2600     1.0  0.48777  0.82162  0.12083  1.0000
  C   C1472     1.0  0.34014  0.77679  0.02819  1.0000
  C   C1473     1.0  0.43732  0.91429  0.38556  1.0000
  H   H2601     1.0  0.52741  0.91021  0.45340  1.0000
  H   H2602     1.0  0.37774  0.83981  0.03285  1.0000
  H   H2603     1.0  0.41239  0.93879  0.14570  1.0000
  H   H2604     1.0  0.44322  0.92931  0.43097  1.0000
  H   H2605     1.0  0.42391  0.89735  0.37875  1.0000
  C   C1474     1.0  0.43454  0.90126  0.37515  1.0000
  H   H2606     1.0  0.44798  0.91756  0.38196  1.0000
  C   C1475     1.0  0.44993  0.94349  0.35271  1.0000
  C   C1476     1.0  0.42232  0.96774  0.19636  1.0000
  H   H2607     1.0  0.55910  0.89798  0.39533  1.0000
  H   H2608     1.0  0.45314  0.95958  0.22140  1.0000
  H   H2609     1.0  0.40643  0.80143  0.13848  1.0000
  H   H2610     1.0  0.50538  0.85022  0.17091  1.0000
  H   H2611     1.0  0.39933  0.83525  0.24212  1.0000
  Fe  Fe172     1.0  0.35754  0.80016  0.15144  1.0000
  C   C1477     1.0  0.48067  0.80942  0.24167  1.0000
  H   H2612     1.0  0.51792  0.97524  0.21117  1.0000
  H   H2613     1.0  0.36469  0.91294  0.47182  1.0000
  H   H2614     1.0  0.45636  0.92220  0.46911  1.0000
  H   H2615     1.0  0.37672  0.83242  0.21359  1.0000
  H   H2616     1.0  0.39739  0.78580  0.03585  1.0000
  H   H2617     1.0  0.48902  0.90482  0.48073  1.0000
  C   C1478     1.0  0.41068  0.93734  0.11880  1.0000
  C   C1479     1.0  0.40693  0.81969  0.07674  1.0000
  C   C1480     1.0  0.50826  0.84036  0.12600  1.0000
  H   H2618     1.0  0.49988  0.84352  0.11760  1.0000
  H   H2619     1.0  0.42101  0.97011  0.01777  1.0000
  C   C1481     1.0  0.41644  0.85841  0.22721  1.0000
  C   C1482     1.0  0.51352  0.84947  0.14953  1.0000
  H   H2620     1.0  0.40043  0.85027  0.06157  1.0000
  N   N79       1.0  0.38295  0.83549  0.28436  1.0000
  C   C1483     1.0  0.36889  0.82941  0.23934  1.0000
  C   C1484     1.0  0.35829  0.81852  0.23501  1.0000
  H   H2621     1.0  0.39130  0.84724  0.22889  1.0000
  H   H2622     1.0  0.34283  0.74865  0.19098  1.0000
  C   C1485     1.0  0.37087  0.86279  0.32479  1.0000
  N   N80       1.0  0.50417  0.82607  0.14466  1.0000
  H   H2623     1.0  0.41341  0.86301  0.20274  1.0000
  H   H2624     1.0  0.38011  0.81797  0.26407  1.0000
  C   C1486     1.0  0.57749  0.98098  0.04079  1.0000
  C   C1487     1.0  0.50427  0.82007  0.08151  1.0000
  C   C1488     1.0  0.55172  0.96643  0.33204  1.0000
  C   C1489     1.0  0.51544  0.82066  0.15215  1.0000
  H   H2625     1.0  0.48574  0.98919  0.27641  1.0000
  H   H2626     1.0  0.40488  0.82481  0.29080  1.0000
  C   C1490     1.0  0.49698  0.81873  0.12167  1.0000
  C   C1491     1.0  0.44455  0.96190  0.21428  1.0000
  C   C1492     1.0  0.35852  0.85200  0.17283  1.0000
  H   H2627     1.0  0.42672  0.81769  0.02691  1.0000
  H   H2628     1.0  0.47372  0.81563  0.24198  1.0000
  C   C1493     1.0  0.53855  0.81877  0.13104  1.0000
  N   N81       1.0  0.58012  0.99536  0.02449  1.0000
  C   C1494     1.0  0.46418  0.77132  0.23097  1.0000
  C   C1495     1.0  0.56576  0.95465  0.36496  1.0000
  C   C1496     1.0  0.39569  0.81974  0.31172  1.0000
  C   C1497     1.0  0.50572  0.95362  0.16670  1.0000
  H   H2629     1.0  0.55699  0.96553  0.30507  1.0000
  H   H2630     1.0  0.49582  0.99321  0.14475  1.0000
  H   H2631     1.0  0.46223  0.79065  0.98908  1.0000
  H   H2632     1.0  0.43306  0.94529  0.31064  1.0000
  C   C1498     1.0  0.46360  0.76026  0.21140  1.0000
  C   C1499     1.0  0.55167  0.95510  0.36287  1.0000
  H   H2633     1.0  0.54155  0.96640  0.33072  1.0000
  H   H2634     1.0  0.45243  0.97911  0.04788  1.0000
  H   H2635     1.0  0.36359  0.86063  0.04929  1.0000
  H   H2636     1.0  0.43283  0.96092  0.01813  1.0000
  H   H2637     1.0  0.51721  0.82172  0.17939  1.0000
  H   H2638     1.0  0.39250  0.80936  0.02690  1.0000
  C   C1500     1.0  0.56109  0.94411  0.43044  1.0000
  H   H2639     1.0  0.39935  0.81654  0.10307  1.0000
  C   C1501     1.0  0.38115  0.86016  0.17397  1.0000
  H   H2640     1.0  0.52319  0.86959  0.14399  1.0000
  C   C1502     1.0  0.49836  0.98061  0.08641  1.0000
  H   H2641     1.0  0.43420  0.98751  0.17566  1.0000
  H   H2642     1.0  0.39070  0.81132  0.30281  1.0000
  H   H2643     1.0  0.55049  0.94325  0.43400  1.0000
  C   C1503     1.0  0.41861  0.80383  0.99797  1.0000
  H   H2644     1.0  0.53992  0.81803  0.15944  1.0000
  H   H2645     1.0  0.45359  0.94160  0.32555  1.0000
  H   H2646     1.0  0.58545  0.94341  0.35779  1.0000
  H   H2647     1.0  0.50300  0.95821  0.14186  1.0000
  H   H2648     1.0  0.60478  0.94636  0.40925  1.0000
  C   C1504     1.0  0.44515  0.97472  0.19682  1.0000
  C   C1505     1.0  0.52023  0.86318  0.12602  1.0000
  H   H2649     1.0  0.39125  0.86013  0.16541  1.0000
  C   C1506     1.0  0.41143  0.79848  0.08292  1.0000
  H   H2650     1.0  0.47085  0.97972  0.27014  1.0000
  H   H2651     1.0  0.38596  0.80475  0.07490  1.0000
  S   S343      1.0  0.33723  0.81725  0.09497  1.0000
  H   H2652     1.0  0.47521  0.95949  0.32501  1.0000
  H   H2653     1.0  0.52812  0.82758  0.09529  1.0000
  H   H2654     1.0  0.52903  0.86317  0.10562  1.0000
  H   H2655     1.0  0.51939  0.95385  0.43948  1.0000
  H   H2656     1.0  0.41072  0.84444  0.08925  1.0000
  H   H2657     1.0  0.51377  0.99490  0.09418  1.0000
  H   H2658     1.0  0.45545  0.79547  0.04947  1.0000
  S   S344      1.0  0.34617  0.84216  0.15797  1.0000
  H   H2659     1.0  0.47673  0.93458  0.45214  1.0000
  H   H2660     1.0  0.39054  0.80888  0.36914  1.0000
  C   C1507     1.0  0.48514  0.92936  0.38636  1.0000
  H   H2661     1.0  0.39555  0.82937  0.04335  1.0000
  C   C1508     1.0  0.38695  0.82917  0.31778  1.0000
  H   H2662     1.0  0.49574  0.93404  0.37959  1.0000
  S   S345      1.0  0.34854  0.79117  0.11086  1.0000
  H   H2663     1.0  0.51346  0.86717  0.11135  1.0000
  H   H2664     1.0  0.55547  0.92429  0.46467  1.0000
  H   H2665     1.0  0.33986  0.77588  0.19551  1.0000
  H   H2666     1.0  0.45957  0.95704  0.10450  1.0000
  C   C1509     1.0  0.58141  0.94382  0.38659  1.0000
  H   H2667     1.0  0.41991  0.96200  0.11586  1.0000
  Fe  Fe173     1.0  0.35546  0.81138  0.07453  1.0000
  H   H2668     1.0  0.39289  0.79230  0.12562  1.0000
  H   H2669     1.0  0.48311  0.92410  0.36504  1.0000
  H   H2670     1.0  0.46144  0.82575  0.03529  1.0000
  H   H2671     1.0  0.45366  0.96363  0.32177  1.0000
  H   H2672     1.0  0.43368  0.77716  0.02882  1.0000
  N   N82       1.0  0.43150  0.97179  0.06029  1.0000
  C   C1510     1.0  0.40603  0.78147  0.14339  1.0000
  C   C1511     1.0  0.51389  0.97468  0.18659  1.0000
  S   S346      1.0  0.33917  0.80457  0.17766  1.0000
  C   C1512     1.0  0.43394  0.97762  0.18820  1.0000
  C   C1513     1.0  0.37163  0.85204  0.16220  1.0000
  C   C1514     1.0  0.45090  0.83662  0.00435  1.0000
  H   H2673     1.0  0.52245  0.97462  0.16519  1.0000
  Fe  Fe174     1.0  0.33079  0.79729  0.13350  1.0000
  C   C1515     1.0  0.42111  0.94703  0.08705  1.0000
  H   H2674     1.0  0.40083  0.93844  0.11712  1.0000
  H   H2675     1.0  0.43895  0.96236  0.12641  1.0000
  H   H2676     1.0  0.58482  0.95984  0.07799  1.0000
  H   H2677     1.0  0.55408  0.98635  0.02585  1.0000
  H   H2678     1.0  0.44709  0.94651  0.42430  1.0000
  H   H2679     1.0  0.56833  0.97566  0.03574  1.0000
  H   H2680     1.0  0.51298  0.81001  0.15455  1.0000
  H   H2681     1.0  0.37445  0.84583  0.14485  1.0000
  H   H2682     1.0  0.54624  0.95646  0.38896  1.0000
  C   C1516     1.0  0.40348  0.79392  0.12353  1.0000
  H   H2683     1.0  0.41644  0.78321  0.14392  1.0000
  H   H2684     1.0  0.37307  0.86766  0.34679  1.0000
  H   H2685     1.0  0.39058  0.92900  0.44251  1.0000
  N   N83       1.0  0.56708  0.94317  0.39224  1.0000
  H   H2686     1.0  0.46361  0.78019  0.21187  1.0000
  H   H2687     1.0  0.57565  0.97888  0.07134  1.0000
  C   C1517     1.0  0.58490  0.96023  0.04861  1.0000
  C   C1518     1.0  0.45963  0.96692  0.10838  1.0000
  C   C1519     1.0  0.48225  0.92703  0.45512  1.0000
  H   H2688     1.0  0.44309  0.80056  0.02882  1.0000
  C   C1520     1.0  0.37779  0.85190  0.32402  1.0000
  H   H2689     1.0  0.36457  0.83766  0.24201  1.0000
  C   C1521     1.0  0.37583  0.84947  0.02442  1.0000
  C   C1522     1.0  0.48809  0.98044  0.22943  1.0000
  H   H2690     1.0  0.34337  0.77176  0.00677  1.0000
  H   H2691     1.0  0.57010  0.96392  0.37136  1.0000
  C   C1523     1.0  0.45487  0.95831  0.34836  1.0000
  H   H2692     1.0  0.41184  0.96093  0.32513  1.0000
  H   H2693     1.0  0.41150  0.78980  0.07183  1.0000
  H   H2694     1.0  0.38721  0.78268  0.08083  1.0000
  H   H2695     1.0  0.42696  0.98202  0.12281  1.0000
  H   H2696     1.0  0.51230  0.81520  0.08130  1.0000
  H   H2697     1.0  0.60820  0.95441  0.36089  1.0000
  C   C1524     1.0  0.56143  0.99152  0.15824  1.0000
  H   H2698     1.0  0.38829  0.85626  0.32007  1.0000
  N   N84       1.0  0.40705  0.80852  0.05848  1.0000
  C   C1525     1.0  0.44666  0.96999  0.10535  1.0000
  H   H2699     1.0  0.34981  0.81566  0.25907  1.0000
  H   H2700     1.0  0.36433  0.83966  0.30343  1.0000
  H   H2701     1.0  0.59244  0.95555  0.03744  1.0000
  C   C1526     1.0  0.48092  0.91981  0.42415  1.0000
  H   H2702     1.0  0.35538  0.76365  0.17608  1.0000
  H   H2703     1.0  0.57529  0.95466  0.04680  1.0000
  H   H2704     1.0  0.44708  0.96208  0.05716  1.0000
  H   H2705     1.0  0.41638  0.82284  0.08421  1.0000
  H   H2706     1.0  0.36018  0.85887  0.33035  1.0000
  H   H2707     1.0  0.35620  0.84339  0.05998  1.0000
  H   H2708     1.0  0.40010  0.77842  0.17221  1.0000
  H   H2709     1.0  0.36631  0.81903  0.29614  1.0000
  H   H2710     1.0  0.42356  0.98828  0.04403  1.0000
  H   H2711     1.0  0.44933  0.96160  0.37074  1.0000
  C   C1527     1.0  0.43096  0.97031  0.02196  1.0000
  C   C1528     1.0  0.36543  0.85086  0.05559  1.0000
  C   C1529     1.0  0.48036  0.98666  0.25567  1.0000
  S   S347      1.0  0.36588  0.81374  0.01543  1.0000
  H   H2712     1.0  0.55641  0.97582  0.33713  1.0000
  H   H2713     1.0  0.49261  0.93262  0.44850  1.0000
  C   C1530     1.0  0.46930  0.96223  0.34801  1.0000
  H   H2714     1.0  0.40340  0.77351  0.12963  1.0000
  H   H2715     1.0  0.44469  0.90021  0.46860  1.0000
  H   H2716     1.0  0.41466  0.82164  0.00437  1.0000
  H   H2717     1.0  0.37484  0.77530  0.03784  1.0000
  H   H2718     1.0  0.42175  0.80237  0.08354  1.0000
  H   H2719     1.0  0.35501  0.82204  0.20998  1.0000
  C   C1531     1.0  0.60413  0.95500  0.38937  1.0000
  C   C1532     1.0  0.48756  0.81015  0.20215  1.0000
  C   C1533     1.0  0.52321  0.93811  0.47611  1.0000
  H   H2720     1.0  0.50065  0.81452  0.03189  1.0000
  C   C1534     1.0  0.39887  0.89592  0.44659  1.0000
  H   H2721     1.0  0.49448  0.80395  0.20319  1.0000
  H   H2722     1.0  0.53513  0.80887  0.12707  1.0000
  H   H2723     1.0  0.45435  0.75888  0.20251  1.0000
  H   H2724     1.0  0.42673  0.94416  0.47294  1.0000
  H   H2725     1.0  0.54571  0.90470  0.41008  1.0000
  C   C1535     1.0  0.56223  0.93373  0.46288  1.0000
  H   H2726     1.0  0.59106  0.99159  0.08766  1.0000
  H   H2727     1.0  0.54265  0.98779  0.08600  1.0000
  H   H2728     1.0  0.48195  0.97765  0.21072  1.0000
  C   C1536     1.0  0.42281  0.98643  0.10093  1.0000
  H   H2729     1.0  0.58826  0.97404  0.99743  1.0000
  H   H2730     1.0  0.53417  0.99383  0.19172  1.0000
  N   N85       1.0  0.50899  0.98653  0.17549  1.0000
  H   H2731     1.0  0.50719  0.99028  0.22982  1.0000
  H   H2732     1.0  0.37964  0.79139  0.00796  1.0000
  H   H2733     1.0  0.47288  0.77446  0.98868  1.0000
  C   C1537     1.0  0.52533  0.92573  0.47993  1.0000
  C   C1538     1.0  0.34476  0.81779  0.98924  1.0000
  H   H2734     1.0  0.47245  0.75173  0.14841  1.0000
  H   H2735     1.0  0.45096  0.98062  0.99015  1.0000
  H   H2736     1.0  0.43978  0.99073  0.99112  1.0000
  H   H2737     1.0  0.42038  0.79488  0.01322  1.0000
  C   C1539     1.0  0.44081  0.98091  0.98972  1.0000
  H   H2738     1.0  0.47842  0.99551  0.24010  1.0000
  H   H2739     1.0  0.49507  0.74911  0.13109  1.0000
  C   C1540     1.0  0.46462  0.74774  0.23694  1.0000
  H   H2740     1.0  0.48605  0.74650  0.09686  1.0000
  H   H2741     1.0  0.36379  0.84108  0.99293  1.0000
  H   H2742     1.0  0.48736  0.75961  0.98510  1.0000
  C   C1541     1.0  0.47835  0.75157  0.99332  1.0000
  C   C1542     1.0  0.45271  0.78440  0.98871  1.0000
  H   H2743     1.0  0.47500  0.74866  0.02381  1.0000
  C   C1543     1.0  0.37121  0.85043  0.98804  1.0000
  C   C1544     1.0  0.46385  0.76706  0.99020  1.0000
  H   H2744     1.0  0.36577  0.85807  0.98558  1.0000
  H   H2745     1.0  0.45766  0.74611  0.26394  1.0000
  Fe  Fe175     1.0  0.52126  0.93878  0.57282  1.0000
  S   S348      1.0  0.50599  0.92100  0.60721  1.0000
  S   S349      1.0  0.52440  0.94677  0.51075  1.0000
  Fe  Fe176     1.0  0.52652  0.94925  0.64098  1.0000
  S   S350      1.0  0.51151  0.93220  0.68031  1.0000
  S   S351      1.0  0.53453  0.96888  0.65386  1.0000
  Fe  Fe177     1.0  0.51928  0.91971  0.64553  1.0000
  S   S352      1.0  0.51959  0.89997  0.67873  1.0000
  Fe  Fe178     1.0  0.49910  0.93415  0.64041  1.0000
  S   S353      1.0  0.47822  0.93336  0.66162  1.0000
  S   S354      1.0  0.53564  0.93669  0.60828  1.0000
  S   S355      1.0  0.51304  0.95205  0.60360  1.0000
  Fe  Fe179     1.0  0.41278  0.92777  0.62529  1.0000
  S   S356      1.0  0.42219  0.92504  0.57027  1.0000
  Fe  Fe180     1.0  0.39483  0.89974  0.64666  1.0000
  S   S357      1.0  0.40315  0.89516  0.59343  1.0000
  S   S358      1.0  0.38100  0.88516  0.69720  1.0000
  Fe  Fe181     1.0  0.42219  0.90544  0.60179  1.0000
  S   S359      1.0  0.44009  0.89812  0.59421  1.0000
  Fe  Fe182     1.0  0.40232  0.91519  0.56620  1.0000
  H   H2746     1.0  0.41653  0.84242  0.95748  1.0000
  S   S360      1.0  0.41411  0.90862  0.65691  1.0000
  S   S361      1.0  0.39257  0.91928  0.61916  1.0000
  H   H2747     1.0  0.40945  0.82515  0.75031  1.0000
  H   H2748     1.0  0.41338  0.86034  0.71132  1.0000
  S   S362      1.0  0.37497  0.79043  0.79583  1.0000
  H   H2749     1.0  0.41145  0.76235  0.92538  1.0000
  H   H2750     1.0  0.36202  0.75701  0.90255  1.0000
  Fe  Fe183     1.0  0.46344  0.82534  0.85758  1.0000
  S   S363      1.0  0.44549  0.80948  0.86862  1.0000
  S   S364      1.0  0.47277  0.82550  0.90543  1.0000
  Fe  Fe184     1.0  0.46357  0.83432  0.77742  1.0000
  S   S365      1.0  0.44558  0.81839  0.78228  1.0000
  S   S366      1.0  0.47124  0.84977  0.72289  1.0000
  Fe  Fe185     1.0  0.43782  0.82367  0.83452  1.0000
  S   S367      1.0  0.41710  0.82442  0.85594  1.0000
  Fe  Fe186     1.0  0.45441  0.80488  0.81629  1.0000
  S   S368      1.0  0.45063  0.78278  0.83273  1.0000
  S   S369      1.0  0.45503  0.84031  0.82805  1.0000
  S   S370      1.0  0.47318  0.82026  0.80678  1.0000
  H   H2751     1.0  0.41878  0.82814  0.68074  1.0000
  H   H2752     1.0  0.47917  0.90248  0.77427  1.0000
  H   H2753     1.0  0.44177  0.83489  0.68245  1.0000
  H   H2754     1.0  0.36465  0.90304  0.65881  1.0000
  H   H2755     1.0  0.45753  0.88806  0.77643  1.0000
  H   H2756     1.0  0.44782  0.92114  0.71663  1.0000
  H   H2757     1.0  0.43209  0.82366  0.72449  1.0000
  H   H2758     1.0  0.42502  0.77318  0.73476  1.0000
  H   H2759     1.0  0.41853  0.75236  0.85931  1.0000
  H   H2760     1.0  0.46241  0.90320  0.53035  1.0000
  H   H2761     1.0  0.39686  0.87444  0.53953  1.0000
  H   H2762     1.0  0.44823  0.79087  0.97152  1.0000
  H   H2763     1.0  0.42397  0.84530  0.67688  1.0000
  C   C1545     1.0  0.44878  0.77096  0.80668  1.0000
  C   C1546     1.0  0.45002  0.77422  0.76863  1.0000
  C   C1547     1.0  0.44829  0.76437  0.74939  1.0000
  C   C1548     1.0  0.41516  0.77065  0.75334  1.0000
  C   C1549     1.0  0.34074  0.81335  0.93166  1.0000
  C   C1550     1.0  0.40251  0.84646  0.92540  1.0000
  H   H2764     1.0  0.45237  0.78430  0.75404  1.0000
  H   H2765     1.0  0.44935  0.76696  0.71994  1.0000
  H   H2766     1.0  0.35470  0.80529  0.90196  1.0000
  C   C1551     1.0  0.41621  0.76812  0.79334  1.0000
  C   C1552     1.0  0.45516  0.83717  0.93893  1.0000
  C   C1553     1.0  0.46425  0.82988  0.94305  1.0000
  H   H2767     1.0  0.45335  0.84028  0.91212  1.0000
  H   H2768     1.0  0.42273  0.77696  0.79662  1.0000
  C   C1554     1.0  0.38644  0.79956  0.81392  1.0000
  C   C1555     1.0  0.38265  0.80611  0.84060  1.0000
  C   C1556     1.0  0.39209  0.81349  0.85419  1.0000
  C   C1557     1.0  0.40531  0.81429  0.84112  1.0000
  C   C1558     1.0  0.40900  0.80744  0.81522  1.0000
  C   C1559     1.0  0.39962  0.80021  0.80138  1.0000
  H   H2769     1.0  0.37247  0.80553  0.85064  1.0000
  H   H2770     1.0  0.38915  0.81870  0.87444  1.0000
  H   H2771     1.0  0.41910  0.80786  0.80531  1.0000
  H   H2772     1.0  0.40261  0.79533  0.78033  1.0000
  C   C1560     1.0  0.37222  0.86908  0.70072  1.0000
  C   C1561     1.0  0.36555  0.86116  0.73572  1.0000
  C   C1562     1.0  0.38912  0.86624  0.53779  1.0000
  H   H2773     1.0  0.41799  0.78165  0.94855  1.0000
  C   C1563     1.0  0.51965  0.93538  0.76523  1.0000
  N   N86       1.0  0.47828  0.91867  0.49402  1.0000
  H   H2774     1.0  0.36605  0.86492  0.75983  1.0000
  C   C1564     1.0  0.36020  0.91448  0.49881  1.0000
  C   C1565     1.0  0.44852  0.84057  0.96957  1.0000
  C   C1566     1.0  0.47251  0.89719  0.72741  1.0000
  C   C1567     1.0  0.50576  0.88635  0.69166  1.0000
  C   C1568     1.0  0.50381  0.87679  0.72429  1.0000
  C   C1569     1.0  0.49317  0.86569  0.73472  1.0000
  C   C1570     1.0  0.48458  0.86380  0.71195  1.0000
  C   C1571     1.0  0.48664  0.87328  0.67905  1.0000
  C   C1572     1.0  0.49702  0.88456  0.66925  1.0000
  H   H2775     1.0  0.51057  0.87798  0.74167  1.0000
  H   H2776     1.0  0.49180  0.85847  0.75996  1.0000
  H   H2777     1.0  0.48025  0.87186  0.66081  1.0000
  H   H2778     1.0  0.49849  0.89168  0.64379  1.0000
  C   C1573     1.0  0.54494  0.97552  0.68041  1.0000
  C   C1574     1.0  0.36192  0.85084  0.92134  1.0000
  H   H2779     1.0  0.55885  0.92949  0.52247  1.0000
  C   C1575     1.0  0.56027  0.98681  0.72467  1.0000
  C   C1576     1.0  0.55894  0.97375  0.72327  1.0000
  C   C1577     1.0  0.55131  0.96812  0.70140  1.0000
  Fe  Fe187     1.0  0.33597  0.80569  0.84993  1.0000
  C   C1578     1.0  0.49529  0.98175  0.61549  1.0000
  H   H2780     1.0  0.56382  0.96792  0.73932  1.0000
  H   H2781     1.0  0.55034  0.95805  0.70087  1.0000
  C   C1579     1.0  0.46797  0.92360  0.64208  1.0000
  C   C1580     1.0  0.47112  0.91281  0.63140  1.0000
  C   C1581     1.0  0.46262  0.90502  0.61624  1.0000
  C   C1582     1.0  0.45105  0.90807  0.61158  1.0000
  C   C1583     1.0  0.44807  0.91899  0.62170  1.0000
  C   C1584     1.0  0.45639  0.92661  0.63748  1.0000
  H   H2782     1.0  0.47978  0.91013  0.63626  1.0000
  H   H2783     1.0  0.46498  0.89661  0.60842  1.0000
  H   H2784     1.0  0.43937  0.92168  0.61751  1.0000
  H   H2785     1.0  0.45380  0.93483  0.64614  1.0000
  C   C1585     1.0  0.35779  0.84736  0.88760  1.0000
  H   H2786     1.0  0.38772  0.75416  0.91214  1.0000
  H   H2787     1.0  0.40405  0.84633  0.66608  1.0000
  H   H2788     1.0  0.34576  0.88739  0.60079  1.0000
  H   H2789     1.0  0.41068  0.77886  0.74687  1.0000
  N   N87       1.0  0.44966  0.88258  0.73152  1.0000
  H   H2790     1.0  0.36705  0.90375  0.59266  1.0000
  C   C1586     1.0  0.53304  0.96697  0.81780  1.0000
  H   H2791     1.0  0.40734  0.82837  0.94601  1.0000
  H   H2792     1.0  0.35779  0.83717  0.88726  1.0000
  H   H2793     1.0  0.42122  0.77381  0.85743  1.0000
  C   C1587     1.0  0.50855  0.95860  0.87742  1.0000
  C   C1588     1.0  0.53824  0.97968  0.82917  1.0000
  C   C1589     1.0  0.39866  0.84717  0.69307  1.0000
  C   C1590     1.0  0.43011  0.80978  0.96464  1.0000
  H   H2794     1.0  0.40085  0.87172  0.65149  1.0000
  H   H2795     1.0  0.37657  0.83294  0.83142  1.0000
  C   C1591     1.0  0.54977  0.97879  0.84637  1.0000
  C   C1592     1.0  0.44482  0.89431  0.71881  1.0000
  H   H2796     1.0  0.54074  0.96686  0.79407  1.0000
  H   H2797     1.0  0.53279  0.95851  0.83989  1.0000
  H   H2798     1.0  0.50749  0.96620  0.74632  1.0000
  S   S371      1.0  0.34371  0.79256  0.76336  1.0000
  C   C1593     1.0  0.36421  0.89377  0.53250  1.0000
  H   H2799     1.0  0.54663  0.97118  0.87258  1.0000
  H   H2800     1.0  0.39247  0.81450  0.72960  1.0000
  H   H2801     1.0  0.44680  0.90278  0.76648  1.0000
  H   H2802     1.0  0.51770  0.96108  0.88648  1.0000
  C   C1594     1.0  0.46045  0.77883  0.93095  1.0000
  H   H2803     1.0  0.35165  0.87210  0.52425  1.0000
  H   H2804     1.0  0.53082  0.98190  0.84957  1.0000
  C   C1595     1.0  0.36417  0.89415  0.61259  1.0000
  H   H2805     1.0  0.48620  0.89049  0.75686  1.0000
  H   H2806     1.0  0.52444  0.95583  0.74168  1.0000
  H   H2807     1.0  0.37753  0.82960  0.68263  1.0000
  S   S372      1.0  0.33826  0.78553  0.85309  1.0000
  H   H2808     1.0  0.39743  0.86327  0.71893  1.0000
  H   H2809     1.0  0.39901  0.77380  0.81383  1.0000
  H   H2810     1.0  0.43927  0.81219  0.97364  1.0000
  C   C1596     1.0  0.41061  0.83445  0.73012  1.0000
  H   H2811     1.0  0.39842  0.82352  0.68292  1.0000
  H   H2812     1.0  0.52736  0.92103  0.50512  1.0000
  H   H2813     1.0  0.58781  0.99081  0.91659  1.0000
  C   C1597     1.0  0.36853  0.76579  0.90626  1.0000
  H   H2814     1.0  0.48826  0.95836  0.89835  1.0000
  H   H2815     1.0  0.43032  0.89517  0.76602  1.0000
  H   H2816     1.0  0.43659  0.89174  0.70580  1.0000
  H   H2817     1.0  0.46253  0.88583  0.67758  1.0000
  C   C1598     1.0  0.43869  0.87158  0.75680  1.0000
  C   C1599     1.0  0.45482  0.87799  0.69805  1.0000
  C   C1600     1.0  0.44474  0.87288  0.67684  1.0000
  C   C1601     1.0  0.43610  0.87075  0.79871  1.0000
  C   C1602     1.0  0.42334  0.86077  0.81943  1.0000
  C   C1603     1.0  0.45087  0.86700  0.64675  1.0000
  H   H2818     1.0  0.46454  0.87695  0.75675  1.0000
  H   H2819     1.0  0.42942  0.87175  0.74833  1.0000
  H   H2820     1.0  0.44055  0.86202  0.75429  1.0000
  H   H2821     1.0  0.45949  0.87007  0.70622  1.0000
  H   H2822     1.0  0.44100  0.88085  0.66357  1.0000
  H   H2823     1.0  0.43640  0.86519  0.69525  1.0000
  H   H2824     1.0  0.44405  0.86759  0.80961  1.0000
  H   H2825     1.0  0.43559  0.88015  0.80515  1.0000
  H   H2826     1.0  0.41493  0.86402  0.81187  1.0000
  H   H2827     1.0  0.42330  0.85123  0.81297  1.0000
  H   H2828     1.0  0.42226  0.85951  0.84951  1.0000
  H   H2829     1.0  0.45932  0.87424  0.62703  1.0000
  H   H2830     1.0  0.45423  0.85856  0.65903  1.0000
  H   H2831     1.0  0.44360  0.86374  0.63133  1.0000
  C   C1604     1.0  0.55399  0.99424  0.70342  1.0000
  S   S373      1.0  0.44135  0.96857  0.76500  1.0000
  H   H2832     1.0  0.49505  0.94272  0.49295  1.0000
  H   H2833     1.0  0.40924  0.76186  0.74804  1.0000
  C   C1605     1.0  0.49826  0.89733  0.54194  1.0000
  H   H2834     1.0  0.37115  0.82100  0.73016  1.0000
  H   H2835     1.0  0.49836  0.91836  0.49111  1.0000
  H   H2836     1.0  0.38147  0.85018  0.89754  1.0000
  H   H2837     1.0  0.47237  0.92155  0.54879  1.0000
  H   H2838     1.0  0.47720  0.89533  0.70125  1.0000
  H   H2839     1.0  0.37977  0.77148  0.85073  1.0000
  H   H2840     1.0  0.43372  0.91863  0.75334  1.0000
  H   H2841     1.0  0.43736  0.84077  0.72288  1.0000
  H   H2842     1.0  0.49637  0.89091  0.56989  1.0000
  H   H2843     1.0  0.49978  0.89150  0.52131  1.0000
  H   H2844     1.0  0.48599  0.90907  0.55951  1.0000
  C   C1606     1.0  0.51987  0.99037  0.59917  1.0000
  C   C1607     1.0  0.46077  0.88570  0.74978  1.0000
  H   H2845     1.0  0.40266  0.89732  0.49967  1.0000
  S   S374      1.0  0.56975  0.99331  0.75351  1.0000
  H   H2846     1.0  0.46407  0.96896  0.71084  1.0000
  H   H2847     1.0  0.51575  0.94461  0.82578  1.0000
  H   H2848     1.0  0.49996  0.97144  0.90619  1.0000
  H   H2849     1.0  0.46130  0.95613  0.68745  1.0000
  H   H2850     1.0  0.42879  0.81867  0.94743  1.0000
  H   H2851     1.0  0.39858  0.84250  0.90390  1.0000
  H   H2852     1.0  0.34898  0.89965  0.64809  1.0000
  H   H2853     1.0  0.51937  0.98648  0.70137  1.0000
  C   C1608     1.0  0.47158  0.97570  0.62358  1.0000
  H   H2854     1.0  0.44841  0.75120  0.94239  1.0000
  H   H2855     1.0  0.47791  0.89502  0.54644  1.0000
  C   C1609     1.0  0.36369  0.85156  0.67373  1.0000
  C   C1610     1.0  0.35398  0.90149  0.52689  1.0000
  H   H2856     1.0  0.39356  0.86843  0.90767  1.0000
  H   H2857     1.0  0.50573  0.95015  0.79799  1.0000
  H   H2858     1.0  0.50610  0.94811  0.87826  1.0000
  C   C1611     1.0  0.33729  0.81800  0.96295  1.0000
  H   H2859     1.0  0.45913  0.94741  0.75301  1.0000
  C   C1612     1.0  0.43872  0.97886  0.95252  1.0000
  H   H2860     1.0  0.49999  0.96423  0.83251  1.0000
  H   H2861     1.0  0.38907  0.87556  0.98247  1.0000
  H   H2862     1.0  0.36293  0.84787  0.64964  1.0000
  H   H2863     1.0  0.42936  0.78239  0.90651  1.0000
  C   C1613     1.0  0.41220  0.83889  0.93595  1.0000
  H   H2864     1.0  0.47347  0.82014  0.98119  1.0000
  S   S375      1.0  0.49209  0.99004  0.82750  1.0000
  H   H2865     1.0  0.45347  0.78337  0.91845  1.0000
  H   H2866     1.0  0.35483  0.88661  0.67113  1.0000
  H   H2867     1.0  0.51989  0.92841  0.79039  1.0000
  H   H2868     1.0  0.39968  0.77184  0.92580  1.0000
  H   H2869     1.0  0.41008  0.88745  0.91023  1.0000
  H   H2870     1.0  0.36778  0.92057  0.50858  1.0000
  H   H2871     1.0  0.44007  0.98198  0.69118  1.0000
  N   N88       1.0  0.35980  0.88150  0.56292  1.0000
  H   H2872     1.0  0.34778  0.84843  0.88809  1.0000
  H   H2873     1.0  0.50254  0.98649  0.71557  1.0000
  H   H2874     1.0  0.49563  0.98904  0.59021  1.0000
  H   H2875     1.0  0.43107  0.80276  0.94747  1.0000
  H   H2876     1.0  0.47301  0.79767  0.93110  1.0000
  H   H2877     1.0  0.50956  0.93362  0.76146  1.0000
  H   H2878     1.0  0.38758  0.77841  0.88251  1.0000
  H   H2879     1.0  0.37981  0.83885  0.75127  1.0000
  C   C1614     1.0  0.35476  0.88401  0.59994  1.0000
  H   H2880     1.0  0.47136  0.95520  0.62671  1.0000
  H   H2881     1.0  0.37979  0.87203  0.93180  1.0000
  H   H2882     1.0  0.50851  0.97815  0.65122  1.0000
  N   N89       1.0  0.40240  0.76139  0.86053  1.0000
  H   H2883     1.0  0.47977  0.96597  0.58278  1.0000
  H   H2884     1.0  0.52844  0.99338  0.61050  1.0000
  H   H2885     1.0  0.39580  0.75735  0.81276  1.0000
  C   C1615     1.0  0.35686  0.84370  0.70878  1.0000
  H   H2886     1.0  0.53004  0.97616  0.75201  1.0000
  H   H2887     1.0  0.47149  0.75821  0.94587  1.0000
  C   C1616     1.0  0.47837  0.79392  0.87815  1.0000
  C   C1617     1.0  0.35196  0.80883  0.92615  1.0000
  H   H2888     1.0  0.43185  0.91354  0.71197  1.0000
  C   C1618     1.0  0.51591  0.95213  0.80127  1.0000
  H   H2889     1.0  0.47308  0.94391  0.72665  1.0000
  H   H2890     1.0  0.43836  0.93632  0.48931  1.0000
  H   H2891     1.0  0.42087  0.76001  0.79814  1.0000
  C   C1619     1.0  0.37149  0.86413  0.66976  1.0000
  C   C1620     1.0  0.37697  0.87071  0.53257  1.0000
  C   C1621     1.0  0.35770  0.89594  0.64988  1.0000
  C   C1622     1.0  0.43165  0.96684  0.66663  1.0000
  H   H2892     1.0  0.40877  0.78195  0.85799  1.0000
  C   C1623     1.0  0.45902  0.96054  0.59211  1.0000
  H   H2893     1.0  0.52375  0.98565  0.78004  1.0000
  H   H2894     1.0  0.38666  0.84779  0.83552  1.0000
  C   C1624     1.0  0.40266  0.76503  0.82017  1.0000
  H   H2895     1.0  0.48099  0.95187  0.53515  1.0000
  C   C1625     1.0  0.48676  0.90319  0.53888  1.0000
  H   H2896     1.0  0.52116  0.98216  0.58668  1.0000
  H   H2897     1.0  0.39932  0.85217  0.77212  1.0000
  H   H2898     1.0  0.41307  0.88050  0.66991  1.0000
  C   C1626     1.0  0.40919  0.87104  0.66402  1.0000
  H   H2899     1.0  0.42268  0.93459  0.70717  1.0000
  C   C1627     1.0  0.39348  0.84216  0.78544  1.0000
  H   H2900     1.0  0.47991  0.78587  0.86525  1.0000
  H   H2901     1.0  0.47106  0.79818  0.86695  1.0000
  H   H2902     1.0  0.48766  0.80156  0.87077  1.0000
  C   C1628     1.0  0.41075  0.77261  0.87015  1.0000
  H   H2903     1.0  0.45842  0.96892  0.57124  1.0000
  H   H2904     1.0  0.41761  0.79209  0.90597  1.0000
  C   C1629     1.0  0.39227  0.82344  0.70982  1.0000
  H   H2905     1.0  0.42022  0.84024  0.91146  1.0000
  H   H2906     1.0  0.39977  0.83686  0.79860  1.0000
  C   C1630     1.0  0.43393  0.83363  0.70728  1.0000
  C   C1631     1.0  0.41924  0.78263  0.91850  1.0000
  H   H2907     1.0  0.41456  0.84206  0.74351  1.0000
  H   H2908     1.0  0.54838  0.93850  0.50438  1.0000
  Fe  Fe188     1.0  0.45226  0.98757  0.77563  1.0000
  H   H2909     1.0  0.50724  0.90509  0.53781  1.0000
  C   C1632     1.0  0.47373  0.78909  0.91994  1.0000
  H   H2910     1.0  0.38362  0.82481  0.77408  1.0000
  C   C1633     1.0  0.40953  0.77150  0.91190  1.0000
  C   C1634     1.0  0.37479  0.84714  0.92543  1.0000
  N   N90       1.0  0.39756  0.83534  0.72280  1.0000
  H   H2911     1.0  0.36912  0.86812  0.59061  1.0000
  H   H2912     1.0  0.45246  0.90159  0.69657  1.0000
  H   H2913     1.0  0.46947  0.90634  0.72109  1.0000
  C   C1635     1.0  0.43822  0.91439  0.73149  1.0000
  C   C1636     1.0  0.48294  0.89944  0.74905  1.0000
  C   C1637     1.0  0.43994  0.90113  0.74873  1.0000
  C   C1638     1.0  0.43601  0.96313  0.72772  1.0000
  H   H2914     1.0  0.35392  0.84549  0.94584  1.0000
  C   C1639     1.0  0.54651  0.98866  0.68120  1.0000
  H   H2915     1.0  0.49151  0.90721  0.73169  1.0000
  C   C1640     1.0  0.42155  0.83557  0.69596  1.0000
  C   C1641     1.0  0.44526  0.75121  0.76800  1.0000
  C   C1642     1.0  0.38808  0.83502  0.75789  1.0000
  C   C1643     1.0  0.37821  0.82156  0.70438  1.0000
  S   S376      1.0  0.34674  0.82814  0.71275  1.0000
  H   H2916     1.0  0.51126  0.97713  0.83974  1.0000
  C   C1644     1.0  0.40480  0.86044  0.69975  1.0000
  C   C1645     1.0  0.38847  0.75813  0.88242  1.0000
  H   H2917     1.0  0.41701  0.86905  0.64413  1.0000
  H   H2918     1.0  0.49642  0.93122  0.53191  1.0000
  C   C1646     1.0  0.38248  0.84284  0.81604  1.0000
  H   H2919     1.0  0.38889  0.84776  0.68904  1.0000
  H   H2920     1.0  0.46192  0.97421  0.64258  1.0000
  C   C1647     1.0  0.34964  0.87136  0.55446  1.0000
  C   C1648     1.0  0.38167  0.76938  0.87850  1.0000
  H   H2921     1.0  0.37606  0.84839  0.80437  1.0000
  C   C1649     1.0  0.50976  0.96685  0.83834  1.0000
  H   H2922     1.0  0.49670  0.95252  0.54502  1.0000
  S   S377      1.0  0.35422  0.81519  0.80583  1.0000
  H   H2923     1.0  0.45022  0.95770  0.61517  1.0000
  H   H2924     1.0  0.37683  0.87006  0.64291  1.0000
  H   H2925     1.0  0.43372  0.90811  0.49169  1.0000
  H   H2926     1.0  0.35018  0.86143  0.56739  1.0000
  C   C1650     1.0  0.35800  0.84851  0.73979  1.0000
  C   C1651     1.0  0.47702  0.92735  0.52024  1.0000
  H   H2927     1.0  0.48862  0.97058  0.69061  1.0000
  H   H2928     1.0  0.48131  0.78493  0.92988  1.0000
  H   H2929     1.0  0.34644  0.89602  0.51575  1.0000
  C   C1652     1.0  0.48855  0.91150  0.49939  1.0000
  C   C1653     1.0  0.48987  0.93670  0.52089  1.0000
  H   H2930     1.0  0.45054  0.91892  0.51809  1.0000
  S   S378      1.0  0.33075  0.81337  0.90029  1.0000
  S   S379      1.0  0.42038  0.94802  0.63468  1.0000
  C   C1654     1.0  0.35969  0.80902  0.95190  1.0000
  C   C1655     1.0  0.37388  0.80900  0.69260  1.0000
  H   H2931     1.0  0.37380  0.80049  0.71420  1.0000
  C   C1656     1.0  0.49779  0.96104  0.90549  1.0000
  H   H2932     1.0  0.48265  0.94040  0.57418  1.0000
  H   H2933     1.0  0.52603  0.93363  0.74124  1.0000
  H   H2934     1.0  0.36976  0.86224  0.53001  1.0000
  H   H2935     1.0  0.54181  0.99456  0.66474  1.0000
  C   C1657     1.0  0.39560  0.87436  0.95787  1.0000
  N   N91       1.0  0.52008  0.96547  0.80777  1.0000
  H   H2936     1.0  0.36280  0.86134  0.91848  1.0000
  Fe  Fe189     1.0  0.35541  0.79494  0.80526  1.0000
  H   H2937     1.0  0.39633  0.84827  0.98062  1.0000
  H   H2938     1.0  0.37971  0.87813  0.50621  1.0000
  C   C1658     1.0  0.46818  0.96142  0.70096  1.0000
  H   H2939     1.0  0.50700  0.99457  0.64256  1.0000
  H   H2940     1.0  0.40802  0.85672  0.91344  1.0000
  H   H2941     1.0  0.48703  0.99148  0.67861  1.0000
  H   H2942     1.0  0.48504  0.95970  0.66315  1.0000
  H   H2943     1.0  0.49652  0.97294  0.60589  1.0000
  H   H2944     1.0  0.36766  0.89165  0.50549  1.0000
  C   C1659     1.0  0.42652  0.94490  0.70344  1.0000
  H   H2945     1.0  0.36387  0.80800  0.68850  1.0000
  C   C1660     1.0  0.55843  0.93731  0.49956  1.0000
  C   C1661     1.0  0.48732  0.94592  0.54536  1.0000
  Fe  Fe190     1.0  0.34157  0.81257  0.76644  1.0000
  H   H2946     1.0  0.47027  0.93340  0.51364  1.0000
  H   H2947     1.0  0.49705  0.95509  0.93333  1.0000
  H   H2948     1.0  0.35272  0.84263  0.76688  1.0000
  H   H2949     1.0  0.43083  0.94301  0.75697  1.0000
  C   C1662     1.0  0.46903  0.95179  0.73480  1.0000
  H   H2950     1.0  0.38044  0.80910  0.66630  1.0000
  H   H2951     1.0  0.37306  0.89102  0.61589  1.0000
  N   N92       1.0  0.48238  0.97882  0.64282  1.0000
  C   C1663     1.0  0.48170  0.96755  0.67390  1.0000
  Fe  Fe191     1.0  0.47603  0.99581  0.80503  1.0000
  C   C1664     1.0  0.52453  0.94934  0.76785  1.0000
  H   H2952     1.0  0.47072  0.98851  0.67512  1.0000
  C   C1665     1.0  0.46540  0.90888  0.50121  1.0000
  C   C1666     1.0  0.50749  0.98623  0.63011  1.0000
  C   C1667     1.0  0.43114  0.94972  0.73168  1.0000
  H   H2953     1.0  0.47228  0.98402  0.60061  1.0000
  C   C1668     1.0  0.42658  0.95344  0.67083  1.0000
  H   H2954     1.0  0.45916  0.95220  0.57933  1.0000
  H   H2955     1.0  0.43175  0.97356  0.64158  1.0000
  H   H2956     1.0  0.47522  0.95680  0.75055  1.0000
  C   C1669     1.0  0.40775  0.74973  0.86963  1.0000
  S   S380      1.0  0.39612  0.92120  0.51269  1.0000
  C   C1670     1.0  0.50952  0.97505  0.75685  1.0000
  H   H2957     1.0  0.53472  0.95060  0.77031  1.0000
  H   H2958     1.0  0.40849  0.89327  0.95157  1.0000
  C   C1671     1.0  0.52152  0.97593  0.77383  1.0000
  H   H2959     1.0  0.46188  0.77119  0.91626  1.0000
  C   C1672     1.0  0.45377  0.91457  0.49498  1.0000
  H   H2960     1.0  0.44484  0.75518  0.85461  1.0000
  C   C1673     1.0  0.44223  0.90404  0.49328  1.0000
  H   H2961     1.0  0.43939  0.96903  0.94973  1.0000
  C   C1674     1.0  0.47126  0.96387  0.60638  1.0000
  C   C1675     1.0  0.44575  0.75781  0.82522  1.0000
  C   C1676     1.0  0.43640  0.97166  0.69472  1.0000
  H   H2962     1.0  0.36444  0.85393  0.86199  1.0000
  H   H2963     1.0  0.33332  0.88088  0.56158  1.0000
  H   H2964     1.0  0.36981  0.76400  0.93484  1.0000
  H   H2965     1.0  0.34937  0.90360  0.55280  1.0000
  H   H2966     1.0  0.37971  0.88373  0.56790  1.0000
  H   H2967     1.0  0.46628  0.90154  0.48483  1.0000
  S   S381      1.0  0.45553  0.98507  0.83318  1.0000
  H   H2968     1.0  0.38666  0.83476  0.97104  1.0000
  H   H2969     1.0  0.55757  0.97648  0.82726  1.0000
  C   C1677     1.0  0.39149  0.84527  0.95944  1.0000
  C   C1678     1.0  0.37150  0.87615  0.56538  1.0000
  H   H2970     1.0  0.38678  0.85837  0.56327  1.0000
  H   H2971     1.0  0.39291  0.86249  0.51394  1.0000
  H   H2972     1.0  0.35190  0.87475  0.62169  1.0000
  H   H2973     1.0  0.33209  0.86747  0.59881  1.0000
  H   H2974     1.0  0.44161  0.84632  0.96626  1.0000
  H   H2975     1.0  0.43888  0.76125  0.92429  1.0000
  H   H2976     1.0  0.56519  0.94648  0.50001  1.0000
  H   H2977     1.0  0.54158  0.98801  0.80456  1.0000
  C   C1679     1.0  0.44396  0.74798  0.80606  1.0000
  H   H2978     1.0  0.40288  0.86940  0.96648  1.0000
  C   C1680     1.0  0.51168  0.98674  0.72477  1.0000
  C   C1681     1.0  0.40302  0.88797  0.93484  1.0000
  N   N93       1.0  0.38141  0.85259  0.95271  1.0000
  H   H2979     1.0  0.43942  0.89593  0.51832  1.0000
  H   H2980     1.0  0.37243  0.83634  0.93287  1.0000
  H   H2981     1.0  0.36846  0.80567  0.94730  1.0000
  C   C1682     1.0  0.38743  0.86687  0.93590  1.0000
  H   H2982     1.0  0.55384  0.98820  0.85228  1.0000
  H   H2983     1.0  0.36380  0.77392  0.90182  1.0000
  H   H2984     1.0  0.39618  0.89353  0.92584  1.0000
  H   H2985     1.0  0.44630  0.98608  0.92992  1.0000
  C   C1683     1.0  0.48087  0.99028  0.65868  1.0000
  H   H2986     1.0  0.50070  0.97487  0.77730  1.0000
  C   C1684     1.0  0.46651  0.82584  0.97788  1.0000
  H   H2987     1.0  0.37285  0.90041  0.53655  1.0000
  H   H2988     1.0  0.54074  0.99334  0.91715  1.0000
  H   H2989     1.0  0.38233  0.75023  0.87394  1.0000
  H   H2990     1.0  0.57385  0.99029  0.97722  1.0000
  C   C1685     1.0  0.44000  0.75523  0.95004  1.0000
  H   H2991     1.0  0.42907  0.98018  0.94923  1.0000
  H   H2992     1.0  0.35268  0.91980  0.49486  1.0000
  N   N94       1.0  0.45474  0.77326  0.97175  1.0000
  C   C1686     1.0  0.33513  0.87117  0.56836  1.0000
  H   H2993     1.0  0.41889  0.76173  0.59619  1.0000
  H   H2994     1.0  0.59969  0.99354  0.96530  1.0000
  H   H2995     1.0  0.53314  0.99558  0.96110  1.0000
  H   H2996     1.0  0.40314  0.75048  0.61539  1.0000
  H   H2997     1.0  0.41840  0.74811  0.65622  1.0000
  H   H2998     1.0  0.41461  0.74760  0.57853  1.0000
  C   C1687     1.0  0.41359  0.75131  0.60383  1.0000
  C   C1688     1.0  0.44168  0.76367  0.97834  1.0000
  C   C1689     1.0  0.46774  0.75567  0.97615  1.0000
  H   H2999     1.0  0.43386  0.76888  0.97783  1.0000
  H   H3000     1.0  0.51449  0.99596  0.73322  1.0000
  H   H3001     1.0  0.40601  0.74620  0.89996  1.0000
  H   H3002     1.0  0.41910  0.74724  0.97286  1.0000
  C   C1690     1.0  0.35601  0.81336  0.98372  1.0000
  H   H3003     1.0  0.71535  0.18124  0.14917  1.0000
  N   N95       1.0  0.72305  0.20092  0.08259  1.0000
  H   H3004     1.0  0.71041  0.18868  0.03157  1.0000
  H   H3005     1.0  0.66900  0.14208  0.43082  1.0000
  S   S382      1.0  0.66626  0.16598  0.18421  1.0000
  H   H3006     1.0  0.66842  0.08631  0.04285  1.0000
  H   H3007     1.0  0.67437  0.18754  0.12131  1.0000
  H   H3008     1.0  0.75580  0.22554  0.00833  1.0000
  H   H3009     1.0  0.74963  0.21070  0.07183  1.0000
  C   C1691     1.0  0.73142  0.21361  0.05745  1.0000
  H   H3010     1.0  0.76331  0.23280  0.04033  1.0000
  H   H3011     1.0  0.68398  0.08624  0.10248  1.0000
  Fe  Fe192     1.0  0.70608  0.23893  0.10387  1.0000
  S   S383      1.0  0.69895  0.23404  0.05567  1.0000
  S   S384      1.0  0.69853  0.22432  0.15967  1.0000
  C   C1692     1.0  0.66437  0.23408  0.14256  1.0000
  C   C1693     1.0  0.71289  0.19043  0.15239  1.0000
  Fe  Fe193     1.0  0.71946  0.24321  0.02372  1.0000
  H   H3012     1.0  0.73316  0.21313  0.02822  1.0000
  H   H3013     1.0  0.69357  0.19651  0.00506  1.0000
  H   H3014     1.0  0.67389  0.18107  0.23620  1.0000
  C   C1694     1.0  0.72861  0.18951  0.07811  1.0000
  C   C1695     1.0  0.70956  0.19886  0.07588  1.0000
  C   C1696     1.0  0.72187  0.20220  0.12182  1.0000
  H   H3015     1.0  0.70698  0.18395  0.21196  1.0000
  H   H3016     1.0  0.72619  0.22136  0.05866  1.0000
  C   C1697     1.0  0.66919  0.08699  0.07103  1.0000
  C   C1698     1.0  0.75390  0.22928  0.03343  1.0000
  H   H3017     1.0  0.72401  0.19208  0.19412  1.0000
  H   H3018     1.0  0.69027  0.09286  0.05364  1.0000
  H   H3019     1.0  0.74347  0.22291  0.08997  1.0000
  H   H3020     1.0  0.70294  0.18981  0.09475  1.0000
  H   H3021     1.0  0.73523  0.18815  0.09678  1.0000
  H   H3022     1.0  0.67404  0.23174  0.04735  1.0000
  H   H3023     1.0  0.71189  0.20131  0.19484  1.0000
  C   C1699     1.0  0.67328  0.18268  0.17949  1.0000
  C   C1700     1.0  0.67689  0.19113  0.14425  1.0000
  C   C1701     1.0  0.68379  0.20415  0.13836  1.0000
  C   C1702     1.0  0.68786  0.20870  0.16722  1.0000
  C   C1703     1.0  0.68385  0.20040  0.20276  1.0000
  C   C1704     1.0  0.67649  0.18749  0.20898  1.0000
  H   H3024     1.0  0.68739  0.18842  0.05321  1.0000
  H   H3025     1.0  0.68626  0.21053  0.11128  1.0000
  H   H3026     1.0  0.68682  0.20384  0.22542  1.0000
  H   H3027     1.0  0.67368  0.23210  0.14708  1.0000
  H   H3028     1.0  0.73156  0.20375  0.12843  1.0000
  C   C1705     1.0  0.74481  0.21864  0.06570  1.0000
  H   H3029     1.0  0.71834  0.21094  0.12539  1.0000
  C   C1706     1.0  0.73663  0.19009  0.03915  1.0000
  H   H3030     1.0  0.68358  0.07562  0.07125  1.0000
  H   H3031     1.0  0.74487  0.17404  0.05786  1.0000
  H   H3032     1.0  0.70256  0.18945  0.15187  1.0000
  H   H3033     1.0  0.69138  0.20593  0.03868  1.0000
  H   H3034     1.0  0.70541  0.20697  0.08202  1.0000
  C   C1707     1.0  0.71407  0.19208  0.19060  1.0000
  C   C1708     1.0  0.68255  0.08527  0.07496  1.0000
  H   H3035     1.0  0.66890  0.09690  0.07373  1.0000
  H   H3036     1.0  0.66780  0.10474  0.46861  1.0000
  H   H3037     1.0  0.74550  0.17781  0.00930  1.0000
  H   H3038     1.0  0.74613  0.19738  0.03248  1.0000
  H   H3039     1.0  0.66722  0.09069  0.42558  1.0000
  H   H3040     1.0  0.72066  0.18038  0.08708  1.0000
  C   C1709     1.0  0.69427  0.19711  0.03339  1.0000
  H   H3041     1.0  0.71466  0.20619  0.01525  1.0000
  C   C1710     1.0  0.70822  0.19776  0.03687  1.0000
  H   H3042     1.0  0.74952  0.23759  0.02759  1.0000
  H   H3043     1.0  0.73163  0.19282  0.01726  1.0000
  C   C1711     1.0  0.66506  0.23438  0.04651  1.0000
  H   H3044     1.0  0.66633  0.24040  0.11453  1.0000
  H   H3045     1.0  0.73026  0.16945  0.04180  1.0000
  C   C1712     1.0  0.73946  0.17702  0.03706  1.0000
  H   H3046     1.0  0.70188  0.22594  0.98647  1.0000
  H   H3047     1.0  0.66480  0.10483  0.52945  1.0000
  H   H3048     1.0  0.68930  0.21818  0.94363  1.0000
  C   C1713     1.0  0.67312  0.16669  0.78528  1.0000
  C   C1714     1.0  0.68667  0.18764  0.64778  1.0000
  C   C1715     1.0  0.69693  0.19584  0.65682  1.0000
  C   C1716     1.0  0.67197  0.23622  0.84970  1.0000
  H   H3049     1.0  0.66386  0.15894  0.79682  1.0000
  H   H3050     1.0  0.71814  0.19117  0.78232  1.0000
  C   C1717     1.0  0.70927  0.19485  0.78478  1.0000
  H   H3051     1.0  0.68865  0.18059  0.63247  1.0000
  H   H3052     1.0  0.67511  0.15927  0.91980  1.0000
  Fe  Fe194     1.0  0.70723  0.22845  0.72778  1.0000
  S   S385      1.0  0.68973  0.22655  0.77242  1.0000
  S   S386      1.0  0.70778  0.21456  0.68959  1.0000
  C   C1718     1.0  0.67152  0.19768  0.67917  1.0000
  H   H3053     1.0  0.66941  0.12120  0.60316  1.0000
  C   C1719     1.0  0.68176  0.20586  0.68825  1.0000
  Fe  Fe195     1.0  0.70353  0.22950  0.80893  1.0000
  S   S387      1.0  0.69677  0.21765  0.86779  1.0000
  H   H3054     1.0  0.70774  0.19834  0.81041  1.0000
  H   H3055     1.0  0.66706  0.20680  0.53109  1.0000
  S   S388      1.0  0.72086  0.22966  0.76592  1.0000
  H   H3056     1.0  0.66886  0.21036  0.57442  1.0000
  H   H3057     1.0  0.67977  0.21289  0.70367  1.0000
  H   H3058     1.0  0.68605  0.19553  0.76152  1.0000
  C   C1720     1.0  0.72673  0.23124  0.91151  1.0000
  C   C1721     1.0  0.71954  0.22747  0.88657  1.0000
  C   C1722     1.0  0.70601  0.22284  0.89801  1.0000
  C   C1723     1.0  0.69972  0.22206  0.93437  1.0000
  H   H3059     1.0  0.66421  0.19374  0.57119  1.0000
  C   C1724     1.0  0.69454  0.20491  0.67745  1.0000
  H   H3060     1.0  0.72449  0.22795  0.85869  1.0000
  C   C1725     1.0  0.67385  0.18840  0.65933  1.0000
  H   H3061     1.0  0.70678  0.19506  0.64811  1.0000
  H   H3062     1.0  0.68062  0.16229  0.79472  1.0000
  H   H3063     1.0  0.73723  0.23454  0.90275  1.0000
  H   H3064     1.0  0.67700  0.23889  0.71407  1.0000
  H   H3065     1.0  0.71090  0.20306  0.76071  1.0000
  C   C1726     1.0  0.68494  0.18887  0.78876  1.0000
  H   H3066     1.0  0.69974  0.18092  0.75949  1.0000
  C   C1727     1.0  0.72040  0.23089  0.94747  1.0000
  C   C1728     1.0  0.67566  0.16834  0.86342  1.0000
  H   H3067     1.0  0.67514  0.12795  0.55421  1.0000
  C   C1729     1.0  0.69758  0.18408  0.78547  1.0000
  H   H3068     1.0  0.68501  0.19528  0.80833  1.0000
  H   H3069     1.0  0.69690  0.17580  0.80829  1.0000
  S   S389      1.0  0.72962  0.23575  0.97811  1.0000
  H   H3070     1.0  0.66576  0.18776  0.75345  1.0000
  H   H3071     1.0  0.66623  0.17154  0.91559  1.0000
  C   C1730     1.0  0.70685  0.22638  0.95875  1.0000
  C   C1731     1.0  0.66867  0.16344  0.90418  1.0000
  H   H3072     1.0  0.67768  0.23453  0.92743  1.0000
  H   H3073     1.0  0.68987  0.15718  0.73653  1.0000
  H   H3074     1.0  0.67360  0.24311  0.86731  1.0000
  H   H3075     1.0  0.66703  0.20292  0.79844  1.0000
  C   C1732     1.0  0.66725  0.23970  0.72430  1.0000
  H   H3076     1.0  0.66586  0.18306  0.85201  1.0000
  H   H3077     1.0  0.67305  0.14844  0.74282  1.0000
  H   H3078     1.0  0.68470  0.17574  0.86162  1.0000
  H   H3079     1.0  0.67348  0.22678  0.86272  1.0000
  H   H3080     1.0  0.68344  0.17806  0.72886  1.0000
  C   C1733     1.0  0.67012  0.11889  0.57584  1.0000
  H   H3081     1.0  0.67816  0.15998  0.85384  1.0000
  H   H3082     1.0  0.66584  0.23990  0.95673  1.0000
  C   C1734     1.0  0.67591  0.16891  0.74276  1.0000
  C   C1735     1.0  0.66708  0.17453  0.84094  1.0000
  N   N96       1.0  0.67217  0.17856  0.79964  1.0000
  H   H3083     1.0  0.67599  0.11169  0.57429  1.0000
  C   C1736     1.0  0.68045  0.15780  0.72982  1.0000
  H   H3084     1.0  0.68183  0.15957  0.69947  1.0000
  H   H3085     1.0  0.68009  0.23716  0.97133  1.0000
  H   H3086     1.0  0.66690  0.16953  0.73339  1.0000
  H   H3087     1.0  0.67923  0.24033  0.82312  1.0000
  C   C1737     1.0  0.67639  0.24073  0.94710  1.0000
  C   C1738     1.0  0.66310  0.20366  0.56137  1.0000
  H   H3088     1.0  0.66492  0.27576  0.06160  1.0000
  Fe  Fe196     1.0  0.69644  0.25424  0.04507  1.0000
  S   S390      1.0  0.93024  0.47523  0.33358  1.0000
  H   H3089     1.0  0.79193  0.39778  0.02266  1.0000
  S   S391      1.0  0.72726  0.24673  0.07260  1.0000
  C   C1739     1.0  0.68723  0.45392  0.01490  1.0000
  H   H3090     1.0  0.90432  0.38729  0.46973  1.0000
  H   H3091     1.0  0.87516  0.44760  0.20494  1.0000
  Fe  Fe197     1.0  0.90497  0.39793  0.28263  1.0000
  S   S392      1.0  0.90914  0.39197  0.22824  1.0000
  S   S393      1.0  0.90352  0.38678  0.34135  1.0000
  Fe  Fe198     1.0  0.90034  0.42295  0.24804  1.0000
  S   S394      1.0  0.90390  0.41946  0.19178  1.0000
  S   S395      1.0  0.89428  0.44061  0.25906  1.0000
  Fe  Fe199     1.0  0.89171  0.39905  0.21686  1.0000
  S   S396      1.0  0.87885  0.39395  0.17710  1.0000
  Fe  Fe200     1.0  0.92104  0.41273  0.20512  1.0000
  S   S397      1.0  0.93882  0.42109  0.15675  1.0000
  S   S398      1.0  0.88671  0.40337  0.27271  1.0000
  S   S399      1.0  0.91838  0.41790  0.25973  1.0000
  Fe  Fe201     1.0  0.81703  0.35516  0.11494  1.0000
  S   S400      1.0  0.81781  0.37306  0.07312  1.0000
  S   S401      1.0  0.82928  0.35376  0.15794  1.0000
  Fe  Fe202     1.0  0.79329  0.33896  0.09407  1.0000
  S   S402      1.0  0.79229  0.35598  0.05152  1.0000
  S   S403      1.0  0.78039  0.31805  0.11109  1.0000
  Fe  Fe203     1.0  0.81403  0.35992  0.03534  1.0000
  H   H3092     1.0  0.93370  0.45901  0.47908  1.0000
  Fe  Fe204     1.0  0.79615  0.36783  0.09246  1.0000
  S   S404      1.0  0.78684  0.38425  0.09894  1.0000
  S   S405      1.0  0.81507  0.34223  0.07533  1.0000
  S   S406      1.0  0.79526  0.35061  0.13675  1.0000
  Fe  Fe205     1.0  0.68448  0.43138  0.15775  1.0000
  S   S407      1.0  0.68377  0.44996  0.12120  1.0000
  H   H3093     1.0  0.98265  0.47515  0.19845  1.0000
  Fe  Fe206     1.0  0.71312  0.44217  0.15835  1.0000
  S   S408      1.0  0.71419  0.46137  0.12250  1.0000
  S   S409      1.0  0.73112  0.43693  0.17306  1.0000
  Fe  Fe207     1.0  0.69441  0.45964  0.15755  1.0000
  S   S410      1.0  0.68978  0.47780  0.17098  1.0000
  Fe  Fe208     1.0  0.70346  0.44995  0.08961  1.0000
  S   S411      1.0  0.71647  0.26304  0.00918  1.0000
  S   S412      1.0  0.69399  0.44114  0.19655  1.0000
  S   S413      1.0  0.70347  0.43063  0.12328  1.0000
  Fe  Fe209     1.0  0.83038  0.46618  0.19676  1.0000
  S   S414      1.0  0.81072  0.45224  0.22572  1.0000
  S   S415      1.0  0.84876  0.46955  0.22027  1.0000
  Fe  Fe210     1.0  0.82366  0.46697  0.12062  1.0000
  S   S416      1.0  0.80406  0.45299  0.14412  1.0000
  S   S417      1.0  0.83117  0.47593  0.05931  1.0000
  Fe  Fe211     1.0  0.80210  0.46447  0.18677  1.0000
  S   S418      1.0  0.78312  0.47081  0.19767  1.0000
  Fe  Fe212     1.0  0.81403  0.44189  0.18044  1.0000
  S   S419      1.0  0.81248  0.42033  0.19217  1.0000
  S   S420      1.0  0.82148  0.47932  0.16120  1.0000
  S   S421      1.0  0.83388  0.45498  0.15351  1.0000
  C   C1740     1.0  0.99266  0.42235  0.06699  1.0000
  H   H3094     1.0  0.96202  0.42182  0.06046  1.0000
  H   H3095     1.0  0.94875  0.45356  0.28917  1.0000
  H   H3096     1.0  0.77848  0.29502  0.34246  1.0000
  H   H3097     1.0  0.79481  0.35592  0.25449  1.0000
  N   N97       1.0  0.71802  0.47831  0.24614  1.0000
  H   H3098     1.0  0.69137  0.46997  0.28854  1.0000
  C   C1741     1.0  0.66559  0.46769  0.27325  1.0000
  C   C1742     1.0  0.74560  0.44685  0.17822  1.0000
  C   C1743     1.0  0.74753  0.46021  0.17494  1.0000
  C   C1744     1.0  0.75906  0.46750  0.18085  1.0000
  C   C1745     1.0  0.76887  0.46155  0.18928  1.0000
  C   C1746     1.0  0.76703  0.44829  0.19155  1.0000
  C   C1747     1.0  0.75545  0.44099  0.18630  1.0000
  H   H3099     1.0  0.74008  0.46486  0.16832  1.0000
  H   H3100     1.0  0.76041  0.47777  0.17898  1.0000
  H   H3101     1.0  0.77443  0.44355  0.19822  1.0000
  H   H3102     1.0  0.75408  0.43067  0.18887  1.0000
  C   C1748     1.0  0.79352  0.39410  0.12594  1.0000
  C   C1749     1.0  0.80112  0.38979  0.14902  1.0000
  C   C1750     1.0  0.80641  0.39776  0.17023  1.0000
  C   C1751     1.0  0.80478  0.41037  0.16698  1.0000
  C   C1752     1.0  0.79723  0.41473  0.14375  1.0000
  C   C1753     1.0  0.79133  0.40647  0.12404  1.0000
  H   H3103     1.0  0.80272  0.38021  0.15114  1.0000
  H   H3104     1.0  0.81193  0.39419  0.18890  1.0000
  H   H3105     1.0  0.79570  0.42433  0.14164  1.0000
  H   H3106     1.0  0.78519  0.40971  0.10691  1.0000
  H   H3107     1.0  0.80176  0.49162  0.13033  1.0000
  H   H3108     1.0  0.75122  0.31365  0.02589  1.0000
  C   C1754     1.0  0.67615  0.29213  0.07621  1.0000
  C   C1755     1.0  0.70026  0.45447  0.00041  1.0000
  C   C1756     1.0  0.96262  0.43860  0.13102  1.0000
  C   C1757     1.0  0.76803  0.30973  0.09266  1.0000
  C   C1758     1.0  0.76402  0.31585  0.06263  1.0000
  H   H3109     1.0  0.86866  0.45037  0.40100  1.0000
  H   H3110     1.0  0.76845  0.32602  0.04984  1.0000
  C   C1759     1.0  0.91098  0.44884  0.41716  1.0000
  H   H3111     1.0  0.72769  0.44991  0.25614  1.0000
  C   C1760     1.0  0.69124  0.48296  0.32408  1.0000
  H   H3112     1.0  0.67916  0.38640  0.99150  1.0000
  C   C1761     1.0  0.90246  0.43644  0.41112  1.0000
  C   C1762     1.0  0.75756  0.30451  0.20509  1.0000
  H   H3113     1.0  0.71561  0.43641  0.28810  1.0000
  C   C1763     1.0  0.96518  0.47350  0.17570  1.0000
  C   C1764     1.0  0.67829  0.47769  0.21068  1.0000
  C   C1765     1.0  0.67384  0.46695  0.24085  1.0000
  H   H3114     1.0  0.66466  0.27338  0.10914  1.0000
  H   H3115     1.0  0.75239  0.30718  0.22941  1.0000
  C   C1766     1.0  0.90486  0.47311  0.47103  1.0000
  C   C1767     1.0  0.72487  0.48909  0.17575  1.0000
  C   C1768     1.0  0.86503  0.38252  0.17279  1.0000
  C   C1769     1.0  0.86114  0.38446  0.13936  1.0000
  C   C1770     1.0  0.85014  0.37593  0.13453  1.0000
  C   C1771     1.0  0.84292  0.36520  0.16301  1.0000
  C   C1772     1.0  0.84687  0.36318  0.19636  1.0000
  C   C1773     1.0  0.85779  0.37180  0.20132  1.0000
  H   H3116     1.0  0.86668  0.39265  0.11698  1.0000
  H   H3117     1.0  0.84735  0.37756  0.10861  1.0000
  H   H3118     1.0  0.84146  0.35487  0.21852  1.0000
  H   H3119     1.0  0.86068  0.37006  0.22708  1.0000
  C   C1774     1.0  0.90794  0.39434  0.37627  1.0000
  C   C1775     1.0  0.90387  0.38728  0.41333  1.0000
  Fe  Fe213     1.0  0.92370  0.49345  0.33353  1.0000
  H   H3120     1.0  0.79986  0.32048  0.15628  1.0000
  H   H3121     1.0  0.71925  0.43720  0.98554  1.0000
  H   H3122     1.0  0.67583  0.38938  0.09194  1.0000
  H   H3123     1.0  0.76974  0.29563  0.23424  1.0000
  H   H3124     1.0  0.76870  0.36820  0.03706  1.0000
  C   C1776     1.0  0.80155  0.49101  0.10171  1.0000
  H   H3125     1.0  0.95891  0.44197  0.10756  1.0000
  H   H3126     1.0  0.66913  0.34431  0.00447  1.0000
  H   H3127     1.0  0.82319  0.41407  0.08106  1.0000
  C   C1777     1.0  0.81702  0.40769  0.02266  1.0000
  C   C1778     1.0  0.85788  0.47954  0.24378  1.0000
  C   C1779     1.0  0.86936  0.47676  0.25172  1.0000
  C   C1780     1.0  0.87705  0.48449  0.26953  1.0000
  H   H3128     1.0  0.70653  0.28888  0.98978  1.0000
  H   H3129     1.0  0.69263  0.47603  0.34759  1.0000
  C   C1781     1.0  0.74969  0.47198  0.27409  1.0000
  H   H3130     1.0  0.83288  0.43555  0.99150  1.0000
  H   H3131     1.0  0.96716  0.40771  0.07815  1.0000
  H   H3132     1.0  0.97804  0.49012  0.18697  1.0000
  C   C1782     1.0  0.92008  0.46540  0.31377  1.0000
  C   C1783     1.0  0.91099  0.47016  0.29738  1.0000
  C   C1784     1.0  0.90334  0.46254  0.27991  1.0000
  C   C1785     1.0  0.90436  0.44996  0.28000  1.0000
  C   C1786     1.0  0.91302  0.44496  0.29786  1.0000
  C   C1787     1.0  0.92099  0.45275  0.31431  1.0000
  H   H3133     1.0  0.90978  0.47968  0.29817  1.0000
  H   H3134     1.0  0.89647  0.46629  0.26662  1.0000
  H   H3135     1.0  0.91333  0.43503  0.30001  1.0000
  H   H3136     1.0  0.92769  0.44885  0.32794  1.0000
  H   H3137     1.0  0.75058  0.43416  0.06799  1.0000
  H   H3138     1.0  0.93403  0.46106  0.22957  1.0000
  H   H3139     1.0  0.79393  0.46694  0.00664  1.0000
  H   H3140     1.0  0.73510  0.42481  0.09756  1.0000
  H   H3141     1.0  0.98169  0.45192  0.10889  1.0000
  C   C1788     1.0  0.95926  0.42434  0.19094  1.0000
  C   C1789     1.0  0.76469  0.48018  0.07005  1.0000
  H   H3142     1.0  0.74718  0.49379  0.05016  1.0000
  H   H3143     1.0  0.93914  0.44467  0.26391  1.0000
  H   H3144     1.0  0.81652  0.30700  0.20089  1.0000
  H   H3145     1.0  0.99297  0.44816  0.04002  1.0000
  C   C1790     1.0  0.82847  0.42170  0.05538  1.0000
  H   H3146     1.0  0.94556  0.47860  0.42844  1.0000
  H   H3147     1.0  0.79388  0.29351  0.31824  1.0000
  H   H3148     1.0  0.73507  0.48031  0.29920  1.0000
  C   C1791     1.0  0.67405  0.48895  0.21265  1.0000
  H   H3149     1.0  0.80839  0.32897  0.23192  1.0000
  H   H3150     1.0  0.92571  0.44299  0.15845  1.0000
  H   H3151     1.0  0.94042  0.48738  0.21926  1.0000
  C   C1792     1.0  0.95096  0.48973  0.21846  1.0000
  H   H3152     1.0  0.95375  0.41129  0.01404  1.0000
  H   H3153     1.0  0.87160  0.43806  0.45113  1.0000
  H   H3154     1.0  0.73309  0.48037  0.06164  1.0000
  H   H3155     1.0  0.83524  0.39994  0.05562  1.0000
  H   H3156     1.0  0.76962  0.46004  0.11149  1.0000
  H   H3157     1.0  0.81355  0.39931  0.04725  1.0000
  N   N98       1.0  0.77509  0.47351  0.05792  1.0000
  H   H3158     1.0  0.77498  0.30696  0.28503  1.0000
  H   H3159     1.0  0.70741  0.48882  0.21344  1.0000
  C   C1793     1.0  0.68846  0.28747  0.07759  1.0000
  H   H3160     1.0  0.78550  0.34086  0.22000  1.0000
  H   H3161     1.0  0.84646  0.42250  0.07433  1.0000
  H   H3162     1.0  0.75060  0.46433  0.25893  1.0000
  C   C1794     1.0  0.66542  0.48951  0.24457  1.0000
  H   H3163     1.0  0.80652  0.35643  0.21353  1.0000
  H   H3164     1.0  0.90349  0.42799  0.43102  1.0000
  H   H3165     1.0  0.90711  0.43541  0.38362  1.0000
  H   H3166     1.0  0.90751  0.35290  0.48138  1.0000
  H   H3167     1.0  0.89511  0.41991  0.36633  1.0000
  H   H3168     1.0  0.73743  0.44185  0.07858  1.0000
  H   H3169     1.0  0.93138  0.45777  0.41151  1.0000
  H   H3170     1.0  0.67529  0.41848  0.00919  1.0000
  H   H3171     1.0  0.72927  0.46388  0.29642  1.0000
  H   H3172     1.0  0.88059  0.40169  0.35397  1.0000
  H   H3173     1.0  0.97771  0.43797  0.06541  1.0000
  C   C1795     1.0  0.80949  0.44878  0.02128  1.0000
  C   C1796     1.0  0.95572  0.40549  0.03874  1.0000
  H   H3174     1.0  0.80259  0.43946  0.03301  1.0000
  C   C1797     1.0  0.94191  0.46377  0.20384  1.0000
  C   C1798     1.0  0.74245  0.48402  0.06870  1.0000
  H   H3175     1.0  0.75671  0.48125  0.25790  1.0000
  H   H3176     1.0  0.67768  0.29820  0.04800  1.0000
  H   H3177     1.0  0.81748  0.40327  0.99873  1.0000
  H   H3178     1.0  0.96289  0.46017  0.45809  1.0000
  C   C1799     1.0  0.67851  0.45390  0.99193  1.0000
  H   H3179     1.0  0.78083  0.48606  0.11525  1.0000
  H   H3180     1.0  0.83290  0.39325  0.99528  1.0000
  H   H3181     1.0  0.98457  0.46633  0.01421  1.0000
  H   H3182     1.0  0.83110  0.43162  0.11511  1.0000
  S   S422      1.0  0.66537  0.41579  0.17921  1.0000
  C   C1800     1.0  0.97820  0.44646  0.00909  1.0000
  H   H3183     1.0  0.79608  0.47735  0.05197  1.0000
  C   C1801     1.0  0.98475  0.44037  0.03840  1.0000
  H   H3184     1.0  0.82099  0.31940  0.11856  1.0000
  C   C1802     1.0  0.95304  0.43564  0.28344  1.0000
  H   H3185     1.0  0.78979  0.29629  0.24342  1.0000
  H   H3186     1.0  0.95278  0.42917  0.26422  1.0000
  C   C1803     1.0  0.85422  0.49018  0.25419  1.0000
  H   H3187     1.0  0.84777  0.43586  0.03680  1.0000
  H   H3188     1.0  0.79014  0.49137  0.04485  1.0000
  C   C1804     1.0  0.73576  0.47345  0.28118  1.0000
  C   C1805     1.0  0.82363  0.46768  0.03050  1.0000
  H   H3189     1.0  0.91577  0.48120  0.18676  1.0000
  C   C1806     1.0  0.94751  0.47829  0.45621  1.0000
  C   C1807     1.0  0.97871  0.48104  0.17839  1.0000
  H   H3190     1.0  0.79613  0.30377  0.17874  1.0000
  H   H3191     1.0  0.78018  0.32377  0.18556  1.0000
  H   H3192     1.0  0.96825  0.45907  0.23877  1.0000
  H   H3193     1.0  0.75174  0.29510  0.20285  1.0000
  C   C1808     1.0  0.95464  0.47721  0.23551  1.0000
  H   H3194     1.0  0.68394  0.45377  0.04353  1.0000
  H   H3195     1.0  0.69703  0.29594  0.07069  1.0000
  C   C1809     1.0  0.84531  0.41959  0.18359  1.0000
  C   C1810     1.0  0.84967  0.43270  0.22784  1.0000
  C   C1811     1.0  0.83732  0.42566  0.25883  1.0000
  C   C1812     1.0  0.83246  0.43519  0.27915  1.0000
  H   H3196     1.0  0.84158  0.42766  0.17036  1.0000
  H   H3197     1.0  0.83652  0.41266  0.20270  1.0000
  H   H3198     1.0  0.85690  0.43689  0.24224  1.0000
  H   H3199     1.0  0.84752  0.44111  0.21043  1.0000
  H   H3200     1.0  0.83952  0.40149  0.25620  1.0000
  H   H3201     1.0  0.82928  0.42095  0.24792  1.0000
  H   H3202     1.0  0.83957  0.41834  0.27954  1.0000
  H   H3203     1.0  0.82351  0.43001  0.30096  1.0000
  H   H3204     1.0  0.83997  0.43982  0.29209  1.0000
  H   H3205     1.0  0.83012  0.44289  0.25982  1.0000
  H   H3206     1.0  0.84338  0.40051  0.11940  1.0000
  H   H3207     1.0  0.83492  0.39536  0.16724  1.0000
  H   H3208     1.0  0.96689  0.46578  0.16136  1.0000
  C   C1813     1.0  0.91952  0.47863  0.45574  1.0000
  H   H3209     1.0  0.88357  0.41524  0.43432  1.0000
  H   H3210     1.0  0.69817  0.44744  0.27494  1.0000
  C   C1814     1.0  0.73992  0.43291  0.07284  1.0000
  C   C1815     1.0  0.81544  0.45523  0.04446  1.0000
  H   H3211     1.0  0.85737  0.40752  0.16094  1.0000
  H   H3212     1.0  0.94742  0.45501  0.15771  1.0000
  H   H3213     1.0  0.72267  0.42182  0.99329  1.0000
  C   C1816     1.0  0.75422  0.30879  0.04908  1.0000
  H   H3214     1.0  0.77778  0.43994  0.12962  1.0000
  H   H3215     1.0  0.95824  0.48194  0.45103  1.0000
  C   C1817     1.0  0.77666  0.43844  0.10234  1.0000
  C   C1818     1.0  0.79211  0.33786  0.23704  1.0000
  C   C1819     1.0  0.98861  0.48483  0.14131  1.0000
  H   H3216     1.0  0.81086  0.34010  0.99156  1.0000
  H   H3217     1.0  0.88583  0.48227  0.27521  1.0000
  H   H3218     1.0  0.96297  0.43815  0.28813  1.0000
  H   H3219     1.0  0.66667  0.40320  0.04109  1.0000
  H   H3220     1.0  0.78307  0.43225  0.09397  1.0000
  H   H3221     1.0  0.80772  0.34795  0.25800  1.0000
  H   H3222     1.0  0.85996  0.39570  0.01148  1.0000
  C   C1820     1.0  0.71760  0.48909  0.21500  1.0000
  H   H3223     1.0  0.74608  0.46530  0.08388  1.0000
  H   H3224     1.0  0.85193  0.38446  0.98871  1.0000
  H   H3225     1.0  0.68772  0.28162  0.10557  1.0000
  H   H3226     1.0  0.68087  0.40791  0.12048  1.0000
  C   C1821     1.0  0.80624  0.41508  0.02336  1.0000
  H   H3227     1.0  0.83205  0.40903  0.13724  1.0000
  H   H3228     1.0  0.77395  0.31939  0.23372  1.0000
  H   H3229     1.0  0.69451  0.48684  0.26563  1.0000
  H   H3230     1.0  0.75832  0.31197  0.17980  1.0000
  C   C1822     1.0  0.69671  0.47997  0.28761  1.0000
  H   H3231     1.0  0.80976  0.48712  0.09065  1.0000
  H   H3232     1.0  0.78053  0.29988  0.03098  1.0000
  N   N99       1.0  0.85517  0.42461  0.20395  1.0000
  C   C1823     1.0  0.78859  0.48213  0.10178  1.0000
  H   H3233     1.0  0.78791  0.47238  0.11871  1.0000
  C   C1824     1.0  0.85035  0.39012  0.00974  1.0000
  C   C1825     1.0  0.76210  0.29647  0.10880  1.0000
  C   C1826     1.0  0.78781  0.48129  0.06218  1.0000
  H   H3234     1.0  0.70151  0.46635  0.23409  1.0000
  C   C1827     1.0  0.79468  0.40839  0.01060  1.0000
  C   C1828     1.0  0.75234  0.28940  0.09516  1.0000
  H   H3235     1.0  0.82060  0.32411  0.18004  1.0000
  H   H3236     1.0  0.79062  0.45630  0.07441  1.0000
  H   H3237     1.0  0.96161  0.48014  0.15629  1.0000
  H   H3238     1.0  0.76297  0.47963  0.10005  1.0000
  H   H3239     1.0  0.86388  0.44121  0.15741  1.0000
  H   H3240     1.0  0.85509  0.39565  0.29368  1.0000
  H   H3241     1.0  0.88099  0.43308  0.20920  1.0000
  H   H3242     1.0  0.94650  0.40182  0.06052  1.0000
  H   H3243     1.0  0.97071  0.46327  0.99451  1.0000
  H   H3244     1.0  0.77297  0.48191  0.00342  1.0000
  C   C1829     1.0  0.91562  0.40709  0.36797  1.0000
  H   H3245     1.0  0.88759  0.45530  0.13965  1.0000
  C   C1830     1.0  0.83948  0.40394  0.14373  1.0000
  N   N100      1.0  0.95511  0.46763  0.21177  1.0000
  C   C1831     1.0  0.79311  0.30609  0.24828  1.0000
  C   C1832     1.0  0.84909  0.40054  0.24239  1.0000
  H   H3246     1.0  0.76884  0.46467  0.01569  1.0000
  C   C1833     1.0  0.77588  0.47341  0.01782  1.0000
  H   H3247     1.0  0.91898  0.41262  0.33968  1.0000
  C   C1834     1.0  0.86688  0.43355  0.17537  1.0000
  C   C1835     1.0  0.85046  0.41309  0.15295  1.0000
  H   H3248     1.0  0.86280  0.41709  0.24983  1.0000
  H   H3249     1.0  0.76800  0.49072  0.05599  1.0000
  H   H3250     1.0  0.96040  0.44941  0.21329  1.0000
  C   C1836     1.0  0.83601  0.42662  0.98808  1.0000
  H   H3251     1.0  0.97596  0.42621  0.21452  1.0000
  C   C1837     1.0  0.85933  0.41386  0.22658  1.0000
  Fe  Fe214     1.0  0.72295  0.26636  0.06005  1.0000
  N   N101      1.0  0.79319  0.31644  0.21556  1.0000
  H   H3252     1.0  0.78609  0.33242  0.26466  1.0000
  C   C1838     1.0  0.92509  0.44808  0.41368  1.0000
  H   H3253     1.0  0.75231  0.46907  0.30069  1.0000
  C   C1839     1.0  0.98045  0.43960  0.16142  1.0000
  H   H3254     1.0  0.83206  0.31255  0.14087  1.0000
  C   C1840     1.0  0.87807  0.44039  0.19029  1.0000
  H   H3255     1.0  0.84755  0.39566  0.22001  1.0000
  H   H3256     1.0  0.85574  0.42069  0.12751  1.0000
  C   C1841     1.0  0.75104  0.47470  0.06368  1.0000
  H   H3257     1.0  0.88619  0.44957  0.44798  1.0000
  C   C1842     1.0  0.73218  0.47877  0.24471  1.0000
  C   C1843     1.0  0.91924  0.41261  0.39624  1.0000
  H   H3258     1.0  0.91097  0.45755  0.39665  1.0000
  H   H3259     1.0  0.84605  0.38203  0.28074  1.0000
  C   C1844     1.0  0.91629  0.49019  0.19678  1.0000
  C   C1845     1.0  0.80086  0.35027  0.24101  1.0000
  H   H3260     1.0  0.71268  0.47454  0.30611  1.0000
  H   H3261     1.0  0.73527  0.48937  0.17400  1.0000
  C   C1846     1.0  0.88129  0.42254  0.41335  1.0000
  C   C1847     1.0  0.85356  0.39141  0.27013  1.0000
  H   H3262     1.0  0.81685  0.30220  0.13959  1.0000
  C   C1848     1.0  0.71153  0.48107  0.28151  1.0000
  H   H3263     1.0  0.92562  0.45958  0.15710  1.0000
  H   H3264     1.0  0.89378  0.44094  0.14421  1.0000
  H   H3265     1.0  0.87139  0.42806  0.15701  1.0000
  C   C1849     1.0  0.97222  0.42979  0.19128  1.0000
  H   H3266     1.0  0.86794  0.41178  0.21006  1.0000
  C   C1850     1.0  0.91503  0.40563  0.43334  1.0000
  H   H3267     1.0  0.69009  0.28154  0.05736  1.0000
  H   H3268     1.0  0.80315  0.30672  0.25183  1.0000
  C   C1851     1.0  0.89002  0.44772  0.15919  1.0000
  C   C1852     1.0  0.74833  0.29551  0.06514  1.0000
  C   C1853     1.0  0.95878  0.45602  0.23165  1.0000
  C   C1854     1.0  0.84119  0.42932  0.06249  1.0000
  H   H3269     1.0  0.98260  0.41017  0.02013  1.0000
  H   H3270     1.0  0.93994  0.47221  0.18620  1.0000
  H   H3271     1.0  0.86272  0.38944  0.25666  1.0000
  H   H3272     1.0  0.89231  0.45593  0.38224  1.0000
  H   H3273     1.0  0.76924  0.38526  0.02962  1.0000
  H   H3274     1.0  0.87680  0.45130  0.31873  1.0000
  H   H3275     1.0  0.88115  0.42448  0.35462  1.0000
  C   C1855     1.0  0.88452  0.41860  0.37628  1.0000
  C   C1856     1.0  0.95449  0.42858  0.16047  1.0000
  C   C1857     1.0  0.74117  0.44114  0.00474  1.0000
  H   H3276     1.0  0.89781  0.45247  0.17101  1.0000
  H   H3277     1.0  0.85599  0.47315  0.01164  1.0000
  H   H3278     1.0  0.91416  0.48751  0.22727  1.0000
  C   C1858     1.0  0.94904  0.44786  0.26801  1.0000
  C   C1859     1.0  0.87343  0.45543  0.34216  1.0000
  H   H3279     1.0  0.87987  0.46524  0.33838  1.0000
  C   C1860     1.0  0.87784  0.40437  0.38047  1.0000
  C   C1861     1.0  0.78065  0.45142  0.07383  1.0000
  S   S423      1.0  0.73626  0.28709  0.04596  1.0000
  H   H3280     1.0  0.81356  0.45054  0.07324  1.0000
  H   H3281     1.0  0.84888  0.41267  0.02888  1.0000
  H   H3282     1.0  0.88098  0.39798  0.40160  1.0000
  H   H3283     1.0  0.99458  0.41279  0.06524  1.0000
  C   C1862     1.0  0.88732  0.44599  0.38142  1.0000
  C   C1863     1.0  0.87331  0.44649  0.37851  1.0000
  H   H3284     1.0  0.76643  0.43327  0.10487  1.0000
  C   C1864     1.0  0.67424  0.40784  0.01512  1.0000
  N   N102      1.0  0.94083  0.48699  0.47489  1.0000
  H   H3285     1.0  0.75920  0.42659  0.99922  1.0000
  N   N103      1.0  0.83019  0.41577  0.02258  1.0000
  H   H3286     1.0  0.70839  0.45522  0.29900  1.0000
  H   H3287     1.0  0.67513  0.29828  0.09610  1.0000
  N   N104      1.0  0.98946  0.42868  0.03222  1.0000
  C   C1865     1.0  0.70826  0.45325  0.27178  1.0000
  H   H3288     1.0  0.86345  0.45643  0.34193  1.0000
  H   H3289     1.0  0.92543  0.42235  0.38920  1.0000
  C   C1866     1.0  0.77963  0.31639  0.21097  1.0000
  N   N105      1.0  0.88830  0.43606  0.41367  1.0000
  H   H3290     1.0  0.89257  0.44455  0.35520  1.0000
  H   H3291     1.0  0.86713  0.43680  0.38012  1.0000
  S   S424      1.0  0.71154  0.45470  0.02815  1.0000
  H   H3292     1.0  0.76510  0.29160  0.13197  1.0000
  H   H3293     1.0  0.90744  0.45018  0.44498  1.0000
  C   C1867     1.0  0.71730  0.44451  0.26360  1.0000
  C   C1868     1.0  0.71103  0.46561  0.24014  1.0000
  C   C1869     1.0  0.87344  0.49517  0.27973  1.0000
  H   H3294     1.0  0.83464  0.44567  0.07714  1.0000
  H   H3295     1.0  0.73829  0.48897  0.23471  1.0000
  H   H3296     1.0  0.92880  0.44497  0.38863  1.0000
  H   H3297     1.0  0.71632  0.46367  0.21464  1.0000
  H   H3298     1.0  0.74796  0.27922  0.10785  1.0000
  H   H3299     1.0  0.94611  0.43025  0.31009  1.0000
  H   H3300     1.0  0.86710  0.40267  0.38826  1.0000
  C   C1870     1.0  0.88220  0.43919  0.44869  1.0000
  H   H3301     1.0  0.87056  0.42102  0.42177  1.0000
  H   H3302     1.0  0.82224  0.42859  0.05233  1.0000
  C   C1871     1.0  0.80027  0.32970  0.21822  1.0000
  C   C1872     1.0  0.77108  0.30328  0.20894  1.0000
  H   H3303     1.0  0.80262  0.41590  0.05174  1.0000
  C   C1873     1.0  0.81521  0.31443  0.17854  1.0000
  H   H3304     1.0  0.72444  0.42794  0.04668  1.0000
  H   H3305     1.0  0.89807  0.37737  0.42005  1.0000
  C   C1874     1.0  0.96597  0.41384  0.05275  1.0000
  C   C1875     1.0  0.83838  0.43756  0.08968  1.0000
  H   H3306     1.0  0.77541  0.29998  0.18485  1.0000
  H   H3307     1.0  0.73646  0.44908  0.00925  1.0000
  H   H3308     1.0  0.89681  0.48995  0.19216  1.0000
  C   C1876     1.0  0.76485  0.37602  0.02322  1.0000
  H   H3309     1.0  0.75151  0.47310  0.03569  1.0000
  H   H3310     1.0  0.67709  0.45825  0.23967  1.0000
  H   H3311     1.0  0.95647  0.49406  0.18952  1.0000
  C   C1877     1.0  0.80054  0.31364  0.18132  1.0000
  C   C1878     1.0  0.90731  0.39291  0.44168  1.0000
  C   C1879     1.0  0.92666  0.45055  0.17429  1.0000
  H   H3312     1.0  0.73770  0.42072  0.03493  1.0000
  H   H3313     1.0  0.84777  0.45814  0.00315  1.0000
  C   C1880     1.0  0.78404  0.29437  0.31552  1.0000
  H   H3314     1.0  0.94720  0.47275  0.26190  1.0000
  C   C1881     1.0  0.82162  0.31197  0.14214  1.0000
  H   H3315     1.0  0.78066  0.44925  0.04657  1.0000
  H   H3316     1.0  0.96397  0.47983  0.24380  1.0000
  H   H3317     1.0  0.77888  0.28552  0.30864  1.0000
  H   H3318     1.0  0.78622  0.41230  0.01940  1.0000
  H   H3319     1.0  0.80507  0.33599  0.19025  1.0000
  C   C1882     1.0  0.78503  0.30647  0.28595  1.0000
  H   H3320     1.0  0.84748  0.44176  0.09723  1.0000
  H   H3321     1.0  0.86331  0.45969  0.01483  1.0000
  H   H3322     1.0  0.78989  0.31495  0.29491  1.0000
  H   H3323     1.0  0.91872  0.44725  0.19980  1.0000
  H   H3324     1.0  0.71641  0.49098  0.28315  1.0000
  C   C1883     1.0  0.97551  0.44420  0.13165  1.0000
  S   S425      1.0  0.91983  0.41335  0.46769  1.0000
  H   H3325     1.0  0.94027  0.44342  0.20137  1.0000
  H   H3326     1.0  0.96875  0.45737  0.04332  1.0000
  S   S426      1.0  0.67941  0.25990  0.02629  1.0000
  H   H3327     1.0  0.76163  0.45455  0.07927  1.0000
  C   C1884     1.0  0.78937  0.47416  0.99352  1.0000
  H   H3328     1.0  0.95310  0.41655  0.21362  1.0000
  C   C1885     1.0  0.73521  0.42977  0.03954  1.0000
  H   H3329     1.0  0.79599  0.48394  0.98883  1.0000
  H   H3330     1.0  0.92331  0.47157  0.44250  1.0000
  C   C1886     1.0  0.93989  0.45268  0.18381  1.0000
  C   C1887     1.0  0.95258  0.45649  0.45746  1.0000
  C   C1888     1.0  0.77119  0.45990  0.08192  1.0000
  H   H3331     1.0  0.71523  0.44027  0.24045  1.0000
  H   H3332     1.0  0.68367  0.40599  0.01884  1.0000
  C   C1889     1.0  0.97540  0.45913  0.01581  1.0000
  H   H3333     1.0  0.96878  0.43982  0.00998  1.0000
  S   S427      1.0  0.70232  0.25887  0.09529  1.0000
  H   H3334     1.0  0.72028  0.48034  0.16751  1.0000
  H   H3335     1.0  0.84545  0.49248  0.24849  1.0000
  H   H3336     1.0  0.66850  0.45375  0.00287  1.0000
  C   C1890     1.0  0.67131  0.40125  0.12933  1.0000
  H   H3337     1.0  0.87233  0.46855  0.24403  1.0000
  H   H3338     1.0  0.75417  0.37353  0.03468  1.0000
  H   H3339     1.0  0.95898  0.39704  0.03180  1.0000
  C   C1891     1.0  0.83916  0.40700  0.02824  1.0000
  H   H3340     1.0  0.98413  0.42011  0.09084  1.0000
  H   H3341     1.0  0.68064  0.48210  0.32761  1.0000
  H   H3342     1.0  0.90017  0.47160  0.44820  1.0000
  H   H3343     1.0  0.74041  0.48481  0.09772  1.0000
  H   H3344     1.0  0.84549  0.38316  0.03666  1.0000
  H   H3345     1.0  0.94941  0.44600  0.47136  1.0000
  H   H3346     1.0  0.75150  0.44511  0.00433  1.0000
  C   C1892     1.0  0.97915  0.41892  0.02336  1.0000
  H   H3347     1.0  0.73592  0.47360  0.22421  1.0000
  C   C1893     1.0  0.82592  0.47361  0.99298  1.0000
  C   C1894     1.0  0.66843  0.39073  0.11321  1.0000
  C   C1895     1.0  0.66395  0.28055  0.08496  1.0000
  C   C1896     1.0  0.85742  0.46489  0.99952  1.0000
  H   H3348     1.0  0.76533  0.29612  0.99078  1.0000
  C   C1897     1.0  0.66502  0.24743  0.03606  1.0000
  C   C1898     1.0  0.84197  0.39925  0.99892  1.0000
  H   H3349     1.0  0.95191  0.45756  0.42840  1.0000
  H   H3350     1.0  0.81010  0.42496  0.00553  1.0000
  H   H3351     1.0  0.78430  0.28839  0.00514  1.0000
  S   S428      1.0  0.90444  0.49331  0.36764  1.0000
  H   H3352     1.0  0.97731  0.42289  0.99621  1.0000
  H   H3353     1.0  0.92592  0.44119  0.43816  1.0000
  H   H3354     1.0  0.92103  0.48759  0.43414  1.0000
  H   H3355     1.0  0.99016  0.47602  0.13227  1.0000
  H   H3356     1.0  0.66489  0.43141  0.09045  1.0000
  H   H3357     1.0  0.69603  0.49302  0.32440  1.0000
  C   C1899     1.0  0.66940  0.38784  0.98971  1.0000
  H   H3358     1.0  0.98532  0.49096  0.11999  1.0000
  H   H3359     1.0  0.79423  0.30494  0.99174  1.0000
  C   C1900     1.0  0.78417  0.29870  0.00291  1.0000
  C   C1901     1.0  0.94399  0.46381  0.47723  1.0000
  H   H3360     1.0  0.66299  0.38316  0.01774  1.0000
  H   H3361     1.0  0.66262  0.45958  0.29706  1.0000
  C   C1902     1.0  0.86319  0.49038  0.76205  1.0000
  H   H3362     1.0  0.73851  0.26805  0.65811  1.0000
  H   H3363     1.0  0.68967  0.38093  0.92244  1.0000
  S   S429      1.0  0.93566  0.48162  0.66613  1.0000
  H   H3364     1.0  0.75398  0.25774  0.62758  1.0000
  H   H3365     1.0  0.90274  0.34051  0.52380  1.0000
  Fe  Fe215     1.0  0.91674  0.41270  0.52940  1.0000
  S   S430      1.0  0.92008  0.39982  0.57925  1.0000
  S   S431      1.0  0.66425  0.44051  0.84481  1.0000
  Fe  Fe216     1.0  0.91093  0.43234  0.57245  1.0000
  S   S432      1.0  0.91339  0.42121  0.62517  1.0000
  S   S433      1.0  0.90610  0.45153  0.56804  1.0000
  Fe  Fe217     1.0  0.93118  0.41816  0.59080  1.0000
  Fe  Fe218     1.0  0.90206  0.40377  0.61119  1.0000
  S   S434      1.0  0.88803  0.38933  0.66198  1.0000
  S   S435      1.0  0.92936  0.43058  0.53861  1.0000
  S   S436      1.0  0.89806  0.41538  0.56089  1.0000
  H   H3366     1.0  0.72514  0.29677  0.72195  1.0000
  H   H3367     1.0  0.77675  0.28207  0.87155  1.0000
  H   H3368     1.0  0.80478  0.37690  0.93594  1.0000
  H   H3369     1.0  0.88703  0.38792  0.56651  1.0000
  Fe  Fe219     1.0  0.81319  0.35053  0.73602  1.0000
  S   S437      1.0  0.79283  0.35211  0.73391  1.0000
  S   S438      1.0  0.82894  0.35897  0.68218  1.0000
  Fe  Fe220     1.0  0.80508  0.33921  0.81844  1.0000
  S   S439      1.0  0.78454  0.34032  0.82237  1.0000
  S   S440      1.0  0.80872  0.33015  0.87258  1.0000
  Fe  Fe221     1.0  0.78552  0.33214  0.77243  1.0000
  S   S441      1.0  0.76579  0.31802  0.77800  1.0000
  Fe  Fe222     1.0  0.79321  0.35988  0.78408  1.0000
  S   S442      1.0  0.78428  0.37645  0.79177  1.0000
  S   S443      1.0  0.80586  0.32978  0.77060  1.0000
  S   S444      1.0  0.81387  0.35957  0.78403  1.0000
  Fe  Fe223     1.0  0.68138  0.44734  0.79669  1.0000
  S   S445      1.0  0.68582  0.42782  0.80167  1.0000
  S   S446      1.0  0.67826  0.45742  0.74245  1.0000
  Fe  Fe224     1.0  0.67846  0.44593  0.87799  1.0000
  S   S447      1.0  0.68221  0.42635  0.88955  1.0000
  S   S448      1.0  0.67172  0.45377  0.92643  1.0000
  Fe  Fe225     1.0  0.69862  0.43441  0.83861  1.0000
  S   S449      1.0  0.71714  0.42780  0.84285  1.0000
  Fe  Fe226     1.0  0.66933  0.42146  0.85201  1.0000
  H   H3370     1.0  0.93280  0.37842  0.68120  1.0000
  S   S450      1.0  0.69559  0.45460  0.82922  1.0000
  H   H3371     1.0  0.75681  0.39740  0.86455  1.0000
  Fe  Fe227     1.0  0.81458  0.44168  0.82738  1.0000
  S   S451      1.0  0.82729  0.45404  0.85427  1.0000
  S   S452      1.0  0.82256  0.42505  0.81479  1.0000
  Fe  Fe228     1.0  0.79375  0.45679  0.83371  1.0000
  S   S453      1.0  0.80520  0.47032  0.86074  1.0000
  S   S454      1.0  0.77474  0.46177  0.82653  1.0000
  Fe  Fe229     1.0  0.82299  0.47068  0.81811  1.0000
  C   C1903     1.0  0.75393  0.31257  0.89297  1.0000
  Fe  Fe230     1.0  0.80858  0.45253  0.89395  1.0000
  S   S455      1.0  0.80462  0.44563  0.95578  1.0000
  S   S456      1.0  0.81135  0.45846  0.78839  1.0000
  S   S457      1.0  0.79612  0.43890  0.86971  1.0000
  H   H3372     1.0  0.66722  0.37897  0.78475  1.0000
  H   H3373     1.0  0.82216  0.47151  0.94035  1.0000
  C   C1904     1.0  0.73303  0.43739  0.83902  1.0000
  C   C1905     1.0  0.73610  0.45094  0.82956  1.0000
  C   C1906     1.0  0.74892  0.45818  0.82582  1.0000
  C   C1907     1.0  0.75878  0.45201  0.83195  1.0000
  C   C1908     1.0  0.75566  0.43845  0.84223  1.0000
  C   C1909     1.0  0.74286  0.43120  0.84556  1.0000
  H   H3374     1.0  0.72867  0.45584  0.82446  1.0000
  H   H3375     1.0  0.75123  0.46865  0.81776  1.0000
  H   H3376     1.0  0.76313  0.43356  0.84692  1.0000
  H   H3377     1.0  0.74059  0.42072  0.85278  1.0000
  C   C1910     1.0  0.88965  0.36434  0.60169  1.0000
  C   C1911     1.0  0.78408  0.29134  0.86783  1.0000
  H   H3378     1.0  0.67151  0.42564  0.71698  1.0000
  C   C1912     1.0  0.68270  0.45400  0.95479  1.0000
  C   C1913     1.0  0.69567  0.45439  0.94040  1.0000
  H   H3379     1.0  0.76399  0.45431  0.91508  1.0000
  C   C1914     1.0  0.94173  0.41830  0.74364  1.0000
  H   H3380     1.0  0.76172  0.38243  0.91521  1.0000
  H   H3381     1.0  0.69900  0.45458  0.91166  1.0000
  H   H3382     1.0  0.88369  0.49122  0.74338  1.0000
  C   C1915     1.0  0.79469  0.38995  0.79883  1.0000
  C   C1916     1.0  0.80574  0.38868  0.81141  1.0000
  C   C1917     1.0  0.81406  0.39952  0.81667  1.0000
  C   C1918     1.0  0.81140  0.41168  0.80965  1.0000
  C   C1919     1.0  0.80014  0.41294  0.79806  1.0000
  C   C1920     1.0  0.79181  0.40207  0.79251  1.0000
  H   H3383     1.0  0.80781  0.37932  0.81753  1.0000
  H   H3384     1.0  0.82259  0.39848  0.82635  1.0000
  H   H3385     1.0  0.79798  0.42231  0.79269  1.0000
  H   H3386     1.0  0.78319  0.40306  0.78300  1.0000
  H   H3387     1.0  0.66871  0.38285  0.90308  1.0000
  C   C1921     1.0  0.81332  0.34393  0.96203  1.0000
  C   C1922     1.0  0.75990  0.28779  0.93044  1.0000
  C   C1923     1.0  0.76021  0.30278  0.76807  1.0000
  C   C1924     1.0  0.76867  0.29621  0.75201  1.0000
  H   H3388     1.0  0.75057  0.30584  0.59478  1.0000
  H   H3389     1.0  0.92352  0.41302  0.78485  1.0000
  H   H3390     1.0  0.77906  0.30038  0.74545  1.0000
  H   H3391     1.0  0.87105  0.39408  0.53197  1.0000
  H   H3392     1.0  0.76704  0.44001  0.96058  1.0000
  C   C1925     1.0  0.81294  0.34066  0.90072  1.0000
  C   C1926     1.0  0.81941  0.35373  0.88550  1.0000
  H   H3393     1.0  0.73940  0.32310  0.88429  1.0000
  H   H3394     1.0  0.82186  0.35754  0.85603  1.0000
  C   C1927     1.0  0.78039  0.30182  0.93808  1.0000
  H   H3395     1.0  0.67954  0.25793  0.90471  1.0000
  H   H3396     1.0  0.70684  0.46523  0.74126  1.0000
  S   S458      1.0  0.82414  0.36743  0.97501  1.0000
  H   H3397     1.0  0.92141  0.43299  0.76591  1.0000
  C   C1928     1.0  0.87367  0.49300  0.89043  1.0000
  N   N106      1.0  0.91876  0.41122  0.73305  1.0000
  H   H3398     1.0  0.97376  0.46525  0.85759  1.0000
  H   H3399     1.0  0.74552  0.27423  0.84626  1.0000
  H   H3400     1.0  0.70820  0.27597  0.73653  1.0000
  H   H3401     1.0  0.71456  0.45570  0.95124  1.0000
  H   H3402     1.0  0.67772  0.40804  0.95793  1.0000
  C   C1929     1.0  0.80151  0.38337  0.91527  1.0000
  H   H3403     1.0  0.82842  0.37178  0.89645  1.0000
  H   H3404     1.0  0.90127  0.36681  0.66034  1.0000
  C   C1930     1.0  0.82313  0.36178  0.90843  1.0000
  H   H3405     1.0  0.74145  0.31261  0.67437  1.0000
  H   H3406     1.0  0.74320  0.32270  0.55699  1.0000
  H   H3407     1.0  0.66963  0.47134  0.68380  1.0000
  H   H3408     1.0  0.88572  0.49504  0.83547  1.0000
  C   C1931     1.0  0.72081  0.26968  0.89347  1.0000
  C   C1932     1.0  0.75770  0.26699  0.63493  1.0000
  C   C1933     1.0  0.87136  0.38162  0.66773  1.0000
  C   C1934     1.0  0.86470  0.38433  0.64035  1.0000
  C   C1935     1.0  0.85165  0.37746  0.64542  1.0000
  C   C1936     1.0  0.84500  0.36809  0.67826  1.0000
  C   C1937     1.0  0.85157  0.36566  0.70602  1.0000
  C   C1938     1.0  0.86470  0.37233  0.70063  1.0000
  H   H3409     1.0  0.86964  0.39157  0.61509  1.0000
  H   H3410     1.0  0.84665  0.37938  0.62375  1.0000
  H   H3411     1.0  0.84662  0.35841  0.73131  1.0000
  H   H3412     1.0  0.86974  0.37016  0.72205  1.0000
  C   C1939     1.0  0.90074  0.38993  0.76524  1.0000
  H   H3413     1.0  0.95099  0.40409  0.76870  1.0000
  C   C1940     1.0  0.70648  0.48537  0.72154  1.0000
  C   C1941     1.0  0.82035  0.46693  0.96929  1.0000
  H   H3414     1.0  0.69971  0.25077  0.89500  1.0000
  N   N107      1.0  0.73971  0.43792  0.96869  1.0000
  H   H3415     1.0  0.98965  0.48586  0.88702  1.0000
  H   H3416     1.0  0.84266  0.49510  0.92274  1.0000
  H   H3417     1.0  0.85979  0.48025  0.76243  1.0000
  H   H3418     1.0  0.85462  0.48982  0.84890  1.0000
  C   C1942     1.0  0.92802  0.47406  0.63630  1.0000
  C   C1943     1.0  0.93142  0.46309  0.62782  1.0000
  C   C1944     1.0  0.92500  0.45637  0.60585  1.0000
  C   C1945     1.0  0.91504  0.46057  0.59250  1.0000
  C   C1946     1.0  0.91203  0.47190  0.59950  1.0000
  C   C1947     1.0  0.91857  0.47865  0.62124  1.0000
  H   H3419     1.0  0.93900  0.45979  0.63851  1.0000
  H   H3420     1.0  0.92776  0.44794  0.59937  1.0000
  H   H3421     1.0  0.90452  0.47534  0.58862  1.0000
  H   H3422     1.0  0.91617  0.48729  0.62660  1.0000
  C   C1948     1.0  0.88330  0.35059  0.55932  1.0000
  C   C1949     1.0  0.68356  0.25486  0.92863  1.0000
  H   H3423     1.0  0.87515  0.47010  0.88428  1.0000
  H   H3424     1.0  0.90683  0.38637  0.78320  1.0000
  H   H3425     1.0  0.98483  0.43479  0.67058  1.0000
  C   C1950     1.0  0.74314  0.45040  0.93922  1.0000
  H   H3426     1.0  0.92893  0.45188  0.71188  1.0000
  C   C1951     1.0  0.74774  0.42886  0.95749  1.0000
  H   H3427     1.0  0.78034  0.35473  0.97091  1.0000
  H   H3428     1.0  0.67721  0.48863  0.79697  1.0000
  C   C1952     1.0  0.72130  0.42901  0.93809  1.0000
  C   C1953     1.0  0.75723  0.45892  0.93040  1.0000
  C   C1954     1.0  0.75858  0.47229  0.90595  1.0000
  H   H3429     1.0  0.78832  0.31080  0.92479  1.0000
  H   H3430     1.0  0.77012  0.30179  0.85815  1.0000
  C   C1955     1.0  0.70728  0.42075  0.94760  1.0000
  C   C1956     1.0  0.95064  0.41428  0.76778  1.0000
  C   C1957     1.0  0.76089  0.42995  0.96892  1.0000
  H   H3431     1.0  0.74184  0.44844  0.91242  1.0000
  H   H3432     1.0  0.78539  0.29390  0.93866  1.0000
  H   H3433     1.0  0.70874  0.48664  0.77629  1.0000
  C   C1958     1.0  0.98794  0.48999  0.85979  1.0000
  C   C1959     1.0  0.78145  0.36777  0.91765  1.0000
  H   H3434     1.0  0.74976  0.43008  0.92706  1.0000
  H   H3435     1.0  0.79710  0.41043  0.98016  1.0000
  H   H3436     1.0  0.71976  0.25306  0.86785  1.0000
  H   H3437     1.0  0.89213  0.36448  0.50607  1.0000
  H   H3438     1.0  0.70126  0.27068  0.95915  1.0000
  H   H3439     1.0  0.72768  0.42393  0.92335  1.0000
  H   H3440     1.0  0.72161  0.43827  0.91915  1.0000
  Fe  Fe231     1.0  0.72369  0.25135  0.75053  1.0000
  H   H3441     1.0  0.76359  0.38517  0.96964  1.0000
  H   H3442     1.0  0.76897  0.47781  0.89733  1.0000
  H   H3443     1.0  0.75517  0.47136  0.88072  1.0000
  H   H3444     1.0  0.75285  0.47782  0.92104  1.0000
  H   H3445     1.0  0.92154  0.48815  0.49918  1.0000
  H   H3446     1.0  0.70628  0.41110  0.96572  1.0000
  S   S459      1.0  0.71151  0.25026  0.70861  1.0000
  H   H3447     1.0  0.71668  0.47304  0.69558  1.0000
  H   H3448     1.0  0.79620  0.28701  0.82192  1.0000
  H   H3449     1.0  0.92375  0.47234  0.50885  1.0000
  H   H3450     1.0  0.70448  0.41927  0.92194  1.0000
  H   H3451     1.0  0.74672  0.30313  0.89800  1.0000
  C   C1960     1.0  0.76407  0.31157  0.91653  1.0000
  H   H3452     1.0  0.92955  0.43041  0.70019  1.0000
  C   C1961     1.0  0.92743  0.41012  0.75944  1.0000
  H   H3453     1.0  0.75516  0.28498  0.67425  1.0000
  H   H3454     1.0  0.70054  0.42574  0.96143  1.0000
  H   H3455     1.0  0.76658  0.27272  0.61355  1.0000
  H   H3456     1.0  0.94565  0.41739  0.71549  1.0000
  H   H3457     1.0  0.88489  0.38858  0.81200  1.0000
  C   C1962     1.0  0.76153  0.31557  0.64767  1.0000
  H   H3458     1.0  0.98838  0.48746  0.57664  1.0000
  C   C1963     1.0  0.91960  0.42531  0.71692  1.0000
  H   H3459     1.0  0.78436  0.31153  0.86532  1.0000
  H   H3460     1.0  0.73495  0.31858  0.62463  1.0000
  H   H3461     1.0  0.68122  0.26070  0.94857  1.0000
  H   H3462     1.0  0.78351  0.47865  0.94179  1.0000
  H   H3463     1.0  0.77818  0.42278  0.95945  1.0000
  C   C1964     1.0  0.78455  0.35601  0.94115  1.0000
  H   H3464     1.0  0.88389  0.37414  0.79500  1.0000
  C   C1965     1.0  0.95720  0.48759  0.73825  1.0000
  H   H3465     1.0  0.88138  0.48934  0.90134  1.0000
  H   H3466     1.0  0.96065  0.42064  0.75603  1.0000
  H   H3467     1.0  0.76917  0.31020  0.64492  1.0000
  H   H3468     1.0  0.80496  0.38104  0.88848  1.0000
  H   H3469     1.0  0.71946  0.30280  0.68268  1.0000
  H   H3470     1.0  0.83811  0.43291  0.89330  1.0000
  H   H3471     1.0  0.93861  0.39663  0.70981  1.0000
  H   H3472     1.0  0.74922  0.30195  0.69711  1.0000
  H   H3473     1.0  0.72300  0.26435  0.91870  1.0000
  H   H3474     1.0  0.73154  0.27975  0.69831  1.0000
  H   H3475     1.0  0.89346  0.48648  0.64541  1.0000
  C   C1966     1.0  0.82395  0.39847  0.90449  1.0000
  H   H3476     1.0  0.77362  0.40638  0.85019  1.0000
  S   S460      1.0  0.70719  0.25115  0.79629  1.0000
  C   C1967     1.0  0.71526  0.28869  0.93344  1.0000
  C   C1968     1.0  0.83269  0.42408  0.95187  1.0000
  C   C1969     1.0  0.84455  0.33620  0.63658  1.0000
  H   H3477     1.0  0.88001  0.38793  0.76932  1.0000
  S   S461      1.0  0.83710  0.49040  0.78957  1.0000
  C   C1970     1.0  0.71118  0.29004  0.84633  1.0000
  C   C1971     1.0  0.84062  0.43505  0.91879  1.0000
  H   H3478     1.0  0.88613  0.37050  0.61941  1.0000
  C   C1972     1.0  0.80933  0.39737  0.91272  1.0000
  C   C1973     1.0  0.76777  0.37733  0.98163  1.0000
  H   H3479     1.0  0.80756  0.40453  0.89053  1.0000
  H   H3480     1.0  0.92298  0.38616  0.73319  1.0000
  H   H3481     1.0  0.97209  0.48827  0.57462  1.0000
  H   H3482     1.0  0.86628  0.46125  0.94871  1.0000
  H   H3483     1.0  0.84654  0.46963  0.94161  1.0000
  C   C1974     1.0  0.92851  0.38682  0.67587  1.0000
  C   C1975     1.0  0.91838  0.44770  0.72473  1.0000
  H   H3484     1.0  0.72325  0.28477  0.94170  1.0000
  H   H3485     1.0  0.83462  0.41494  0.94693  1.0000
  H   H3486     1.0  0.67007  0.39791  0.91472  1.0000
  H   H3487     1.0  0.72174  0.29071  0.84096  1.0000
  N   N108      1.0  0.77033  0.30042  0.91563  1.0000
  N   N109      1.0  0.86184  0.48201  0.89575  1.0000
  H   H3488     1.0  0.88758  0.40096  0.50504  1.0000
  C   C1976     1.0  0.89934  0.34768  0.50560  1.0000
  H   H3489     1.0  0.71939  0.29590  0.90673  1.0000
  C   C1977     1.0  0.92260  0.40545  0.70074  1.0000
  H   H3490     1.0  0.82938  0.40883  0.89498  1.0000
  H   H3491     1.0  0.85120  0.43604  0.91590  1.0000
  C   C1978     1.0  0.90473  0.40491  0.75305  1.0000
  H   H3492     1.0  0.83828  0.44432  0.92190  1.0000
  H   H3493     1.0  0.76691  0.32155  0.69528  1.0000
  H   H3494     1.0  0.89405  0.38158  0.53016  1.0000
  H   H3495     1.0  0.76397  0.40586  0.89488  1.0000
  H   H3496     1.0  0.76024  0.26462  0.66190  1.0000
  N   N110      1.0  0.84654  0.41012  0.71384  1.0000
  C   C1979     1.0  0.84257  0.42256  0.71553  1.0000
  C   C1980     1.0  0.83756  0.40233  0.69568  1.0000
  C   C1981     1.0  0.84562  0.40286  0.75249  1.0000
  C   C1982     1.0  0.86033  0.41270  0.69186  1.0000
  C   C1983     1.0  0.86367  0.42167  0.65264  1.0000
  C   C1984     1.0  0.85168  0.43266  0.72916  1.0000
  C   C1985     1.0  0.84807  0.38916  0.75686  1.0000
  C   C1986     1.0  0.82320  0.39673  0.71808  1.0000
  C   C1987     1.0  0.81486  0.38979  0.69615  1.0000
  C   C1988     1.0  0.87810  0.42426  0.63439  1.0000
  C   C1989     1.0  0.84735  0.44527  0.72611  1.0000
  C   C1990     1.0  0.84533  0.38221  0.79746  1.0000
  H   H3497     1.0  0.83280  0.42046  0.73452  1.0000
  H   H3498     1.0  0.84136  0.42735  0.68830  1.0000
  H   H3499     1.0  0.83732  0.40838  0.66884  1.0000
  H   H3500     1.0  0.84130  0.39412  0.68855  1.0000
  H   H3501     1.0  0.83599  0.40198  0.77018  1.0000
  H   H3502     1.0  0.85270  0.40845  0.76490  1.0000
  H   H3503     1.0  0.86736  0.41676  0.70710  1.0000
  H   H3504     1.0  0.86262  0.40344  0.68833  1.0000
  H   H3505     1.0  0.86160  0.43121  0.65307  1.0000
  H   H3506     1.0  0.85801  0.41705  0.63510  1.0000
  H   H3507     1.0  0.85143  0.42888  0.75854  1.0000
  H   H3508     1.0  0.86187  0.43517  0.71287  1.0000
  H   H3509     1.0  0.85837  0.38988  0.74405  1.0000
  H   H3510     1.0  0.84175  0.38295  0.74403  1.0000
  H   H3511     1.0  0.82254  0.38953  0.74370  1.0000
  H   H3512     1.0  0.81877  0.40446  0.72560  1.0000
  H   H3513     1.0  0.81463  0.39665  0.67076  1.0000
  H   H3514     1.0  0.81867  0.38170  0.68863  1.0000
  H   H3515     1.0  0.80473  0.38569  0.71319  1.0000
  H   H3516     1.0  0.88422  0.42942  0.65003  1.0000
  H   H3517     1.0  0.88072  0.41500  0.63282  1.0000
  H   H3518     1.0  0.88027  0.43046  0.60608  1.0000
  H   H3519     1.0  0.83716  0.44339  0.74217  1.0000
  H   H3520     1.0  0.85369  0.45216  0.73726  1.0000
  H   H3521     1.0  0.84805  0.44986  0.69690  1.0000
  H   H3522     1.0  0.84725  0.37247  0.79979  1.0000
  H   H3523     1.0  0.85167  0.38780  0.81174  1.0000
  H   H3524     1.0  0.83497  0.38087  0.81134  1.0000
  H   H3525     1.0  0.70280  0.26977  0.84832  1.0000
  C   C1991     1.0  0.85142  0.48650  0.87930  1.0000
  S   S462      1.0  0.97613  0.45403  0.70807  1.0000
  C   C1992     1.0  0.74671  0.29723  0.77603  1.0000
  H   H3526     1.0  0.77545  0.33252  0.65164  1.0000
  H   H3527     1.0  0.70165  0.25148  0.93988  1.0000
  C   C1993     1.0  0.97797  0.48324  0.59043  1.0000
  C   C1994     1.0  0.97448  0.46908  0.58835  1.0000
  C   C1995     1.0  0.70291  0.27627  0.86761  1.0000
  H   H3528     1.0  0.75539  0.28520  0.90805  1.0000
  H   H3529     1.0  0.69134  0.39677  0.93108  1.0000
  H   H3530     1.0  0.93445  0.39363  0.64962  1.0000
  C   C1996     1.0  0.76963  0.38798  0.89094  1.0000
  H   H3531     1.0  0.76106  0.32055  0.61987  1.0000
  H   H3532     1.0  0.89930  0.34838  0.60864  1.0000
  C   C1997     1.0  0.78308  0.39141  0.90035  1.0000
  H   H3533     1.0  0.73133  0.28129  0.77359  1.0000
  C   C1998     1.0  0.70406  0.27748  0.93141  1.0000
  C   C1999     1.0  0.97490  0.48446  0.63086  1.0000
  C   C2000     1.0  0.90539  0.36114  0.64196  1.0000
  H   H3534     1.0  0.91846  0.38329  0.67298  1.0000
  C   C2001     1.0  0.75328  0.26345  0.95737  1.0000
  C   C2002     1.0  0.81001  0.33577  0.93898  1.0000
  H   H3535     1.0  0.75875  0.33199  0.67074  1.0000
  Fe  Fe232     1.0  0.69473  0.24828  0.75614  1.0000
  H   H3536     1.0  0.95310  0.45280  0.68086  1.0000
  H   H3537     1.0  0.71022  0.28718  0.79189  1.0000
  C   C2003     1.0  0.91577  0.43343  0.74454  1.0000
  C   C2004     1.0  0.70112  0.48717  0.76051  1.0000
  H   H3538     1.0  0.87003  0.34137  0.62750  1.0000
  N   N111      1.0  0.78683  0.38078  0.92485  1.0000
  H   H3539     1.0  0.97692  0.46847  0.55924  1.0000
  H   H3540     1.0  0.85553  0.34196  0.58047  1.0000
  C   C2005     1.0  0.96845  0.48754  0.70726  1.0000
  H   H3541     1.0  0.97999  0.46341  0.60388  1.0000
  C   C2006     1.0  0.74813  0.30636  0.66936  1.0000
  H   H3542     1.0  0.97914  0.47748  0.64711  1.0000
  C   C2007     1.0  0.85613  0.47671  0.93667  1.0000
  C   C2008     1.0  0.79202  0.29508  0.82796  1.0000
  H   H3543     1.0  0.96639  0.47772  0.70213  1.0000
  H   H3544     1.0  0.94778  0.48446  0.73097  1.0000
  C   C2009     1.0  0.76583  0.40018  0.87413  1.0000
  H   H3545     1.0  0.69830  0.48270  0.70841  1.0000
  C   C2010     1.0  0.74171  0.28529  0.76805  1.0000
  C   C2011     1.0  0.88651  0.38490  0.78672  1.0000
  H   H3546     1.0  0.95719  0.48072  0.76392  1.0000
  H   H3547     1.0  0.78512  0.36808  0.88798  1.0000
  H   H3548     1.0  0.74216  0.41854  0.96920  1.0000
  H   H3549     1.0  0.74192  0.25881  0.87951  1.0000
  H   H3550     1.0  0.69118  0.40552  0.86483  1.0000
  H   H3551     1.0  0.90351  0.36244  0.53457  1.0000
  C   C2012     1.0  0.72511  0.26337  0.86160  1.0000
  H   H3552     1.0  0.71334  0.49425  0.70304  1.0000
  H   H3553     1.0  0.95662  0.49100  0.50180  1.0000
  H   H3554     1.0  0.79828  0.47340  0.93845  1.0000
  H   H3555     1.0  0.90220  0.40846  0.77829  1.0000
  H   H3556     1.0  0.96713  0.48927  0.87931  1.0000
  H   H3557     1.0  0.75336  0.33231  0.89539  1.0000
  H   H3558     1.0  0.79010  0.39475  0.87298  1.0000
  N   N112      1.0  0.70676  0.27028  0.90161  1.0000
  H   H3559     1.0  0.85429  0.48458  0.95012  1.0000
  C   C2013     1.0  0.94579  0.48830  0.50870  1.0000
  C   C2014     1.0  0.96873  0.47021  0.87657  1.0000
  H   H3560     1.0  0.70297  0.30045  0.95459  1.0000
  H   H3561     1.0  0.88291  0.44506  0.51751  1.0000
  H   H3562     1.0  0.90524  0.42994  0.75821  1.0000
  C   C2015     1.0  0.75018  0.27872  0.75206  1.0000
  C   C2016     1.0  0.68701  0.39023  0.91522  1.0000
  C   C2017     1.0  0.69341  0.39612  0.87435  1.0000
  C   C2018     1.0  0.78258  0.38084  0.96482  1.0000
  H   H3563     1.0  0.74117  0.31981  0.93102  1.0000
  C   C2019     1.0  0.75206  0.28744  0.64814  1.0000
  S   S463      1.0  0.67851  0.25832  0.75578  1.0000
  C   C2020     1.0  0.66752  0.46759  0.74250  1.0000
  H   H3564     1.0  0.93010  0.41276  0.67788  1.0000
  H   H3565     1.0  0.85843  0.46163  0.89571  1.0000
  C   C2021     1.0  0.87733  0.43516  0.51821  1.0000
  H   H3566     1.0  0.89826  0.37092  0.58093  1.0000
  C   C2022     1.0  0.71346  0.47449  0.72358  1.0000
  H   H3567     1.0  0.73640  0.45645  0.94670  1.0000
  S   S464      1.0  0.74444  0.26404  0.73937  1.0000
  H   H3568     1.0  0.69311  0.47822  0.77391  1.0000
  C   C2023     1.0  0.95210  0.43861  0.64806  1.0000
  H   H3569     1.0  0.88553  0.34198  0.57534  1.0000
  H   H3570     1.0  0.90915  0.35383  0.65845  1.0000
  H   H3571     1.0  0.68137  0.48318  0.89273  1.0000
  H   H3572     1.0  0.87811  0.42041  0.48847  1.0000
  H   H3573     1.0  0.89816  0.40771  0.73539  1.0000
  H   H3574     1.0  0.68997  0.38945  0.85753  1.0000
  H   H3575     1.0  0.90278  0.46371  0.49145  1.0000
  H   H3576     1.0  0.70414  0.39785  0.86964  1.0000
  H   H3577     1.0  0.72756  0.27948  0.88613  1.0000
  C   C2024     1.0  0.69846  0.25648  0.91609  1.0000
  C   C2025     1.0  0.70448  0.45492  0.96298  1.0000
  H   H3578     1.0  0.87755  0.42849  0.54392  1.0000
  H   H3579     1.0  0.82695  0.39365  0.88241  1.0000
  H   H3580     1.0  0.76275  0.36801  0.97703  1.0000
  H   H3581     1.0  0.82787  0.49261  0.87958  1.0000
  N   N113      1.0  0.74253  0.29576  0.65208  1.0000
  H   H3582     1.0  0.78582  0.29713  0.80860  1.0000
  H   H3583     1.0  0.72186  0.30530  0.62352  1.0000
  H   H3584     1.0  0.97449  0.42147  0.63251  1.0000
  C   C2026     1.0  0.97574  0.43594  0.66441  1.0000
  H   H3585     1.0  0.87033  0.46128  0.79758  1.0000
  C   C2027     1.0  0.96971  0.44474  0.67863  1.0000
  C   C2028     1.0  0.72975  0.28730  0.67702  1.0000
  H   H3586     1.0  0.73657  0.29305  0.60254  1.0000
  H   H3587     1.0  0.77031  0.27930  0.73145  1.0000
  C   C2029     1.0  0.73312  0.31685  0.57085  1.0000
  C   C2030     1.0  0.70739  0.28472  0.71751  1.0000
  C   C2031     1.0  0.74723  0.27449  0.63740  1.0000
  H   H3588     1.0  0.76030  0.46055  0.95551  1.0000
  H   H3589     1.0  0.72340  0.26844  0.83561  1.0000
  H   H3590     1.0  0.69393  0.48227  0.83275  1.0000
  H   H3591     1.0  0.75881  0.31582  0.86319  1.0000
  H   H3592     1.0  0.85029  0.35467  0.59807  1.0000
  H   H3593     1.0  0.94231  0.42873  0.74210  1.0000
  S   S465      1.0  0.95049  0.41947  0.60858  1.0000
  C   C2032     1.0  0.66525  0.47352  0.70905  1.0000
  H   H3594     1.0  0.94722  0.41533  0.79615  1.0000
  C   C2033     1.0  0.76587  0.32603  0.66761  1.0000
  C   C2034     1.0  0.95784  0.44599  0.67026  1.0000
  H   H3595     1.0  0.70116  0.28963  0.73351  1.0000
  H   H3596     1.0  0.69544  0.28142  0.92958  1.0000
  C   C2035     1.0  0.97333  0.48492  0.86139  1.0000
  H   H3597     1.0  0.72650  0.32339  0.56941  1.0000
  H   H3598     1.0  0.70251  0.28166  0.69633  1.0000
  H   H3599     1.0  0.97170  0.48690  0.83323  1.0000
  H   H3600     1.0  0.74009  0.30235  0.78790  1.0000
  H   H3601     1.0  0.94285  0.47881  0.52936  1.0000
  H   H3602     1.0  0.73019  0.30931  0.55596  1.0000
  H   H3603     1.0  0.88080  0.46158  0.82906  1.0000
  C   C2036     1.0  0.76367  0.28426  0.74408  1.0000
  H   H3604     1.0  0.80668  0.40022  0.93887  1.0000
  H   H3605     1.0  0.91412  0.40287  0.68861  1.0000
  C   C2037     1.0  0.95792  0.42961  0.63463  1.0000
  C   C2038     1.0  0.88286  0.48556  0.65365  1.0000
  C   C2039     1.0  0.72082  0.29395  0.69957  1.0000
  H   H3606     1.0  0.76112  0.29286  0.62691  1.0000
  H   H3607     1.0  0.77067  0.42450  0.92118  1.0000
  C   C2040     1.0  0.87058  0.46066  0.82685  1.0000
  H   H3608     1.0  0.75899  0.31106  0.94525  1.0000
  H   H3609     1.0  0.85542  0.47037  0.83547  1.0000
  C   C2041     1.0  0.66578  0.36762  0.96930  1.0000
  H   H3610     1.0  0.72397  0.28185  0.66104  1.0000
  C   C2042     1.0  0.89489  0.35432  0.62548  1.0000
  H   H3611     1.0  0.88707  0.34782  0.64886  1.0000
  H   H3612     1.0  0.87392  0.47648  0.95689  1.0000
  H   H3613     1.0  0.91533  0.45334  0.74465  1.0000
  H   H3614     1.0  0.97749  0.48912  0.71721  1.0000
  C   C2043     1.0  0.86546  0.47155  0.83949  1.0000
  H   H3615     1.0  0.87159  0.48082  0.82141  1.0000
  H   H3616     1.0  0.86441  0.45104  0.84357  1.0000
  H   H3617     1.0  0.69755  0.29389  0.81275  1.0000
  H   H3618     1.0  0.80016  0.30380  0.82349  1.0000
  H   H3619     1.0  0.94309  0.43976  0.64146  1.0000
  H   H3620     1.0  0.92744  0.39987  0.76984  1.0000
  H   H3621     1.0  0.94540  0.46267  0.50559  1.0000
  H   H3622     1.0  0.91334  0.42606  0.69698  1.0000
  H   H3623     1.0  0.77008  0.38198  0.87040  1.0000
  H   H3624     1.0  0.67601  0.36753  0.96922  1.0000
  C   C2044     1.0  0.74652  0.32256  0.90162  1.0000
  H   H3625     1.0  0.80508  0.32567  0.95087  1.0000
  H   H3626     1.0  0.67076  0.47830  0.86414  1.0000
  H   H3627     1.0  0.87771  0.38716  0.49526  1.0000
  C   C2045     1.0  0.85449  0.34627  0.60456  1.0000
  H   H3628     1.0  0.72215  0.47697  0.73483  1.0000
  H   H3629     1.0  0.82229  0.42345  0.95264  1.0000
  H   H3630     1.0  0.84765  0.32705  0.64228  1.0000
  H   H3631     1.0  0.79514  0.35719  0.93665  1.0000
  C   C2046     1.0  0.86543  0.47104  0.88035  1.0000
  H   H3632     1.0  0.75073  0.26162  0.93170  1.0000
  H   H3633     1.0  0.84760  0.40594  0.97228  1.0000
  H   H3634     1.0  0.84273  0.47818  0.88466  1.0000
  C   C2047     1.0  0.66524  0.24880  0.74459  1.0000
  H   H3635     1.0  0.86704  0.43517  0.51886  1.0000
  H   H3636     1.0  0.97066  0.46733  0.90416  1.0000
  H   H3637     1.0  0.77073  0.36541  0.92227  1.0000
  H   H3638     1.0  0.95812  0.46692  0.87903  1.0000
  H   H3639     1.0  0.77287  0.27439  0.93201  1.0000
  C   C2048     1.0  0.77900  0.34350  0.93082  1.0000
  H   H3640     1.0  0.90164  0.38571  0.74088  1.0000
  H   H3641     1.0  0.96389  0.46470  0.59980  1.0000
  H   H3642     1.0  0.69272  0.27711  0.87469  1.0000
  C   C2049     1.0  0.73962  0.26400  0.85455  1.0000
  H   H3643     1.0  0.99299  0.48538  0.83982  1.0000
  H   H3644     1.0  0.78645  0.39058  0.96889  1.0000
  H   H3645     1.0  0.87810  0.48150  0.63353  1.0000
  C   C2050     1.0  0.67204  0.38826  0.92296  1.0000
  H   H3646     1.0  0.71397  0.30389  0.79438  1.0000
  C   C2051     1.0  0.86768  0.35046  0.61497  1.0000
  C   C2052     1.0  0.68989  0.49077  0.83415  1.0000
  C   C2053     1.0  0.78836  0.47182  0.95586  1.0000
  C   C2054     1.0  0.86444  0.46978  0.95876  1.0000
  C   C2055     1.0  0.87990  0.39177  0.51771  1.0000
  H   H3647     1.0  0.66993  0.39741  0.81479  1.0000
  C   C2056     1.0  0.96983  0.42837  0.64281  1.0000
  C   C2057     1.0  0.92840  0.39352  0.70763  1.0000
  H   H3648     1.0  0.74479  0.27626  0.61026  1.0000
  H   H3649     1.0  0.82668  0.39390  0.92954  1.0000
  S   S466      1.0  0.99219  0.47375  0.76508  1.0000
  H   H3650     1.0  0.87891  0.47867  0.68112  1.0000
  C   C2058     1.0  0.70799  0.29396  0.80909  1.0000
  H   H3651     1.0  0.78381  0.40012  0.91196  1.0000
  H   H3652     1.0  0.91288  0.44880  0.70300  1.0000
  C   C2059     1.0  0.74091  0.30108  0.61414  1.0000
  H   H3653     1.0  0.86684  0.37245  0.58202  1.0000
  H   H3654     1.0  0.87525  0.34648  0.54742  1.0000
  C   C2060     1.0  0.81999  0.35694  0.94677  1.0000
  H   H3655     1.0  0.84336  0.33991  0.66185  1.0000
  H   H3656     1.0  0.70899  0.29719  0.86216  1.0000
  H   H3657     1.0  0.74233  0.25928  0.83186  1.0000
  C   C2061     1.0  0.73218  0.31063  0.61111  1.0000
  H   H3658     1.0  0.83495  0.33404  0.62963  1.0000
  H   H3659     1.0  0.86974  0.36647  0.54208  1.0000
  H   H3660     1.0  0.96413  0.48054  0.64094  1.0000
  C   C2062     1.0  0.77712  0.30190  0.87601  1.0000
  H   H3661     1.0  0.79089  0.28985  0.88557  1.0000
  N   N114      1.0  0.87901  0.35892  0.58418  1.0000
  C   C2063     1.0  0.76870  0.42153  0.95164  1.0000
  H   H3662     1.0  0.86578  0.35549  0.63759  1.0000
  H   H3663     1.0  0.78296  0.46167  0.95870  1.0000
  C   C2064     1.0  0.88480  0.38286  0.54494  1.0000
  C   C2065     1.0  0.87448  0.36978  0.56330  1.0000
  H   H3664     1.0  0.77170  0.32094  0.90712  1.0000
  H   H3665     1.0  0.76333  0.41114  0.96138  1.0000
  C   C2066     1.0  0.76410  0.27584  0.94912  1.0000
  C   C2067     1.0  0.92630  0.48140  0.48668  1.0000
  H   H3666     1.0  0.91365  0.36776  0.61990  1.0000
  H   H3667     1.0  0.93042  0.49378  0.54392  1.0000
  H   H3668     1.0  0.71885  0.30336  0.96427  1.0000
  H   H3669     1.0  0.76825  0.34146  0.93579  1.0000
  C   C2068     1.0  0.89499  0.35741  0.52604  1.0000
  H   H3670     1.0  0.94805  0.49124  0.57755  1.0000
  H   H3671     1.0  0.78150  0.33532  0.94788  1.0000
  H   H3672     1.0  0.89364  0.43104  0.48538  1.0000
  H   H3673     1.0  0.78693  0.37432  0.98221  1.0000
  H   H3674     1.0  0.68236  0.49395  0.73096  1.0000
  H   H3675     1.0  0.78331  0.34418  0.90143  1.0000
  N   N115      1.0  0.66442  0.38135  0.96173  1.0000
  C   C2069     1.0  0.71057  0.29576  0.96227  1.0000
  C   C2070     1.0  0.72550  0.43145  0.97333  1.0000
  H   H3676     1.0  0.67375  0.49467  0.87053  1.0000
  H   H3677     1.0  0.98443  0.44856  0.98101  1.0000
  H   H3678     1.0  0.99413  0.46679  0.92787  1.0000
  C   C2071     1.0  0.67820  0.48651  0.86729  1.0000
  Fe  Fe233     1.0  0.99525  0.46117  0.72522  1.0000
  H   H3679     1.0  0.75177  0.28885  0.95156  1.0000
  H   H3680     1.0  0.99331  0.49238  0.66638  1.0000
  C   C2072     1.0  0.88336  0.43066  0.48492  1.0000
  H   H3681     1.0  0.89124  0.34251  0.49560  1.0000
  H   H3682     1.0  0.75657  0.25508  0.97043  1.0000
  H   H3683     1.0  0.77480  0.31258  0.97894  1.0000
  C   C2073     1.0  0.77527  0.30251  0.97840  1.0000
  H   H3684     1.0  0.76627  0.27693  0.97577  1.0000
  H   H3685     1.0  0.74450  0.26412  0.97662  1.0000
  H   H3686     1.0  0.83196  0.48340  0.98249  1.0000
  H   H3687     1.0  0.84680  0.42944  0.98323  1.0000
  H   H3688     1.0  0.66354  0.36298  0.94686  1.0000
  H   H3689     1.0  0.66345  0.46595  0.80088  1.0000
  C   C2074     1.0  0.81216  0.45443  0.98350  1.0000
  C   C2075     1.0  0.68586  0.49595  0.79822  1.0000
  C   C2076     1.0  0.67031  0.40257  0.98339  1.0000
  H   H3690     1.0  0.90058  0.47998  0.48443  1.0000
  H   H3691     1.0  0.94136  0.53972  0.10103  1.0000
  Fe  Fe234     1.0  0.93165  0.52234  0.30249  1.0000
  S   S467      1.0  0.90976  0.50885  0.44465  1.0000
  S   S468      1.0  0.94753  0.53650  0.25520  1.0000
  H   H3692     1.0  0.96977  0.52718  0.40464  1.0000
  H   H3693     1.0  0.88899  0.52226  0.23109  1.0000
  C   C2077     1.0  0.92329  0.52869  0.14015  1.0000
  C   C2078     1.0  0.90835  0.53492  0.21957  1.0000
  C   C2079     1.0  0.86684  0.51189  0.15197  1.0000
  H   H3694     1.0  0.98640  0.50223  0.24709  1.0000
  H   H3695     1.0  0.89872  0.54945  0.23557  1.0000
  H   H3696     1.0  0.87411  0.52452  0.18408  1.0000
  C   C2080     1.0  0.90359  0.54223  0.24767  1.0000
  C   C2081     1.0  0.99442  0.52197  0.17766  1.0000
  H   H3697     1.0  0.72921  0.51001  0.15346  1.0000
  H   H3698     1.0  0.71405  0.50089  0.14746  1.0000
  H   H3699     1.0  0.92623  0.51952  0.13980  1.0000
  N   N116      1.0  0.89977  0.51868  0.18204  1.0000
  C   C2082     1.0  0.97225  0.50780  0.30762  1.0000
  S   S469      1.0  0.93516  0.50964  0.35163  1.0000
  S   S470      1.0  0.91263  0.52470  0.33403  1.0000
  C   C2083     1.0  0.92556  0.52856  0.46553  1.0000
  H   H3700     1.0  0.98641  0.53877  0.16807  1.0000
  C   C2084     1.0  0.90835  0.52626  0.14474  1.0000
  H   H3701     1.0  0.98490  0.51555  0.19409  1.0000
  H   H3702     1.0  0.89301  0.53542  0.19199  1.0000
  H   H3703     1.0  0.72928  0.50057  0.11945  1.0000
  H   H3704     1.0  0.91200  0.54742  0.25646  1.0000
  H   H3705     1.0  0.91539  0.54224  0.19608  1.0000
  H   H3706     1.0  0.92850  0.53372  0.43683  1.0000
  C   C2085     1.0  0.99253  0.50878  0.25976  1.0000
  C   C2086     1.0  0.96395  0.54372  0.25467  1.0000
  C   C2087     1.0  0.96829  0.54383  0.28693  1.0000
  C   C2088     1.0  0.98117  0.55055  0.28501  1.0000
  C   C2089     1.0  0.98992  0.55701  0.25088  1.0000
  C   C2090     1.0  0.98571  0.55644  0.21864  1.0000
  C   C2091     1.0  0.97277  0.54998  0.22059  1.0000
  H   H3707     1.0  0.96161  0.53915  0.31337  1.0000
  H   H3708     1.0  0.92861  0.54805  0.10359  1.0000
  H   H3709     1.0  0.96538  0.51352  0.31645  1.0000
  H   H3710     1.0  0.96950  0.55006  0.19549  1.0000
  H   H3711     1.0  0.90615  0.53584  0.13686  1.0000
  C   C2092     1.0  0.90559  0.50873  0.20161  1.0000
  S   S471      1.0  0.88322  0.50580  0.30020  1.0000
  C   C2093     1.0  0.91671  0.51634  0.47632  1.0000
  C   C2094     1.0  0.93073  0.53846  0.10396  1.0000
  C   C2095     1.0  0.88692  0.51151  0.17690  1.0000
  H   H3712     1.0  0.86085  0.50399  0.17601  1.0000
  H   H3713     1.0  0.99227  0.56144  0.19220  1.0000
  C   C2096     1.0  0.94373  0.49996  0.44786  1.0000
  H   H3714     1.0  0.96696  0.49974  0.29794  1.0000
  H   H3715     1.0  0.91542  0.51320  0.20439  1.0000
  C   C2097     1.0  0.98382  0.51667  0.27738  1.0000
  H   H3716     1.0  0.98614  0.52968  0.13334  1.0000
  S   S472      1.0  0.92137  0.50586  0.28236  1.0000
  C   C2098     1.0  0.87828  0.52003  0.16237  1.0000
  H   H3717     1.0  0.92807  0.53499  0.08018  1.0000
  H   H3718     1.0  0.91339  0.52822  0.23315  1.0000
  H   H3719     1.0  0.90612  0.52129  0.12288  1.0000
  H   H3720     1.0  0.86055  0.51811  0.14285  1.0000
  H   H3721     1.0  0.94986  0.50851  0.22846  1.0000
  H   H3722     1.0  0.98429  0.55098  0.31014  1.0000
  H   H3723     1.0  0.80283  0.50095  0.08493  1.0000
  H   H3724     1.0  0.95800  0.51907  0.38362  1.0000
  C   C2099     1.0  0.99192  0.53334  0.15201  1.0000
  H   H3725     1.0  0.97996  0.52229  0.25637  1.0000
  C   C2100     1.0  0.89687  0.52770  0.20631  1.0000
  C   C2101     1.0  0.95969  0.52107  0.41000  1.0000
  C   C2102     1.0  0.95792  0.50843  0.43845  1.0000
  Fe  Fe235     1.0  0.90265  0.50691  0.31758  1.0000
  Fe  Fe236     1.0  0.91562  0.51081  0.38233  1.0000
  H   H3726     1.0  0.89668  0.53536  0.27246  1.0000
  H   H3727     1.0  0.93712  0.50581  0.45753  1.0000
  H   H3728     1.0  0.99461  0.50224  0.28290  1.0000
  H   H3729     1.0  0.98916  0.52332  0.29103  1.0000
  H   H3730     1.0  0.92658  0.53239  0.16274  1.0000
  H   H3731     1.0  0.96056  0.51109  0.46319  1.0000
  H   H3732     1.0  0.88395  0.52781  0.13775  1.0000
  H   H3733     1.0  0.87035  0.50754  0.12915  1.0000
  H   H3734     1.0  0.95283  0.52662  0.42025  1.0000
  H   H3735     1.0  0.89980  0.50461  0.23054  1.0000
  H   H3736     1.0  0.88097  0.50478  0.20333  1.0000
  C   C2103     1.0  0.90646  0.49711  0.18398  1.0000
  H   H3737     1.0  0.85900  0.50614  0.27961  1.0000
  H   H3738     1.0  0.88850  0.50524  0.15749  1.0000
  H   H3739     1.0  0.97562  0.50360  0.33189  1.0000
  C   C2104     1.0  0.95343  0.50009  0.23992  1.0000
  H   H3740     1.0  0.67748  0.49731  0.18942  1.0000
  H   H3741     1.0  0.96489  0.50325  0.42690  1.0000
  H   H3742     1.0  0.96399  0.50359  0.23751  1.0000
  H   H3743     1.0  0.72161  0.49873  0.22008  1.0000
  H   H3744     1.0  0.90933  0.50028  0.15349  1.0000
  C   C2105     1.0  0.72431  0.50088  0.14741  1.0000
  C   C2106     1.0  0.86195  0.49792  0.27196  1.0000
  H   H3745     1.0  0.94821  0.49622  0.26935  1.0000
  H   H3746     1.0  0.94160  0.49861  0.42129  1.0000
  H   H3747     1.0  0.92629  0.49661  0.18578  1.0000
  Fe  Fe237     1.0  0.93072  0.52594  0.62206  1.0000
  Fe  Fe238     1.0  0.93231  0.50106  0.67024  1.0000
  Fe  Fe239     1.0  0.94602  0.52690  0.68412  1.0000
  S   S473      1.0  0.96637  0.53663  0.69024  1.0000
  S   S474      1.0  0.94748  0.51841  0.63452  1.0000
  S   S475      1.0  0.93024  0.53599  0.66868  1.0000
  C   C2107     1.0  0.98135  0.53186  0.57535  1.0000
  H   H3748     1.0  0.87522  0.52664  0.76153  1.0000
  C   C2108     1.0  0.91799  0.51538  0.54024  1.0000
  C   C2109     1.0  0.70698  0.51026  0.76403  1.0000
  H   H3749     1.0  0.96702  0.54907  0.80868  1.0000
  H   H3750     1.0  0.67418  0.51080  0.75402  1.0000
  S   S476      1.0  0.89777  0.51812  0.74190  1.0000
  S   S477      1.0  0.91552  0.50804  0.65528  1.0000
  H   H3751     1.0  0.90127  0.54850  0.61393  1.0000
  C   C2110     1.0  0.89639  0.54675  0.67225  1.0000
  C   C2111     1.0  0.98099  0.51378  0.80225  1.0000
  H   H3752     1.0  0.90132  0.53121  0.57119  1.0000
  C   C2112     1.0  0.98635  0.51068  0.87550  1.0000
  C   C2113     1.0  0.89193  0.52807  0.64112  1.0000
  H   H3753     1.0  0.97611  0.50953  0.87376  1.0000
  H   H3754     1.0  0.71174  0.50717  0.78643  1.0000
  H   H3755     1.0  0.88494  0.50207  0.67666  1.0000
  N   N117      1.0  0.88429  0.52227  0.61640  1.0000
  H   H3756     1.0  0.97624  0.52413  0.63362  1.0000
  H   H3757     1.0  0.97548  0.59624  0.80999  1.0000
  H   H3758     1.0  0.67400  0.52548  0.69734  1.0000
  H   H3759     1.0  0.98403  0.54192  0.57880  1.0000
  C   C2114     1.0  0.97371  0.54275  0.72377  1.0000
  C   C2115     1.0  0.98740  0.54680  0.71638  1.0000
  C   C2116     1.0  0.94083  0.49791  0.52951  1.0000
  C   C2117     1.0  0.99373  0.55142  0.74222  1.0000
  H   H3760     1.0  0.89784  0.51082  0.86396  1.0000
  C   C2118     1.0  0.96645  0.54355  0.75741  1.0000
  H   H3761     1.0  0.97924  0.52649  0.92074  1.0000
  C   C2119     1.0  0.98275  0.53161  0.89116  1.0000
  H   H3762     1.0  0.67312  0.50958  0.68953  1.0000
  H   H3763     1.0  0.95594  0.54049  0.76363  1.0000
  H   H3764     1.0  0.99481  0.50913  0.65469  1.0000
  C   C2120     1.0  0.68993  0.50257  0.73137  1.0000
  H   H3765     1.0  0.98376  0.59812  0.73175  1.0000
  N   N118      1.0  0.69622  0.49914  0.76277  1.0000
  H   H3766     1.0  0.87472  0.52284  0.55220  1.0000
  C   C2121     1.0  0.97278  0.54841  0.78297  1.0000
  H   H3767     1.0  0.84507  0.50830  0.66893  1.0000
  H   H3768     1.0  0.86705  0.53021  0.67528  1.0000
  H   H3769     1.0  0.95811  0.49741  0.74334  1.0000
  H   H3770     1.0  0.88784  0.53059  0.48722  1.0000
  N   N119      1.0  0.97912  0.49782  0.63770  1.0000
  H   H3771     1.0  0.88852  0.51604  0.54331  1.0000
  C   C2122     1.0  0.89323  0.54277  0.63803  1.0000
  H   H3772     1.0  0.98827  0.52110  0.74286  1.0000
  C   C2123     1.0  0.93021  0.53433  0.49222  1.0000
  N   N120      1.0  0.99358  0.50450  0.84886  1.0000
  C   C2124     1.0  0.91295  0.50982  0.51383  1.0000
  C   C2125     1.0  0.71815  0.51604  0.72891  1.0000
  H   H3773     1.0  0.97803  0.62325  0.70140  1.0000
  H   H3774     1.0  0.68236  0.50462  0.80214  1.0000
  C   C2126     1.0  0.97793  0.50813  0.60661  1.0000
  C   C2127     1.0  0.98237  0.52238  0.60931  1.0000
  H   H3775     1.0  0.98805  0.53121  0.55024  1.0000
  C   C2128     1.0  0.97991  0.51389  0.76291  1.0000
  C   C2129     1.0  0.98646  0.55235  0.77564  1.0000
  C   C2130     1.0  0.84894  0.51781  0.67470  1.0000
  S   S478      1.0  0.93172  0.53581  0.56274  1.0000
  H   H3776     1.0  0.87124  0.49992  0.90704  1.0000
  C   C2131     1.0  0.85414  0.49728  0.77323  1.0000
  H   H3777     1.0  0.97210  0.58489  0.87480  1.0000
  H   H3778     1.0  0.97124  0.52983  0.57172  1.0000
  C   C2132     1.0  0.87013  0.52245  0.62590  1.0000
  H   H3779     1.0  0.98764  0.54189  0.88905  1.0000
  C   C2133     1.0  0.88112  0.50976  0.75083  1.0000
  H   H3780     1.0  0.73161  0.52601  0.75651  1.0000
  H   H3781     1.0  0.89516  0.51846  0.82080  1.0000
  H   H3782     1.0  0.90544  0.54425  0.67711  1.0000
  H   H3783     1.0  0.88422  0.54554  0.63397  1.0000
  H   H3784     1.0  0.95862  0.50578  0.54508  1.0000
  Fe  Fe240     1.0  0.91608  0.51715  0.70294  1.0000
  H   H3785     1.0  0.73546  0.53204  0.70724  1.0000
  H   H3786     1.0  0.90613  0.50036  0.52251  1.0000
  H   H3787     1.0  0.88944  0.54026  0.57424  1.0000
  C   C2134     1.0  0.98403  0.59408  0.81951  1.0000
  C   C2135     1.0  0.89061  0.53020  0.57744  1.0000
  H   H3788     1.0  0.96002  0.49786  0.66742  1.0000
  H   H3789     1.0  0.89780  0.55738  0.66847  1.0000
  H   H3790     1.0  0.88788  0.52283  0.67039  1.0000
  H   H3791     1.0  0.69727  0.49844  0.83967  1.0000
  C   C2136     1.0  0.99047  0.60646  0.73707  1.0000
  H   H3792     1.0  0.90194  0.53725  0.50251  1.0000
  C   C2137     1.0  0.99237  0.52534  0.87111  1.0000
  H   H3793     1.0  0.88831  0.54174  0.69686  1.0000
  H   H3794     1.0  0.71449  0.51882  0.70411  1.0000
  C   C2138     1.0  0.92641  0.52781  0.52973  1.0000
  S   S479      1.0  0.93185  0.50867  0.72114  1.0000
  H   H3795     1.0  0.84477  0.51716  0.70418  1.0000
  H   H3796     1.0  0.98739  0.58287  0.78003  1.0000
  H   H3797     1.0  0.68826  0.52204  0.67236  1.0000
  C   C2139     1.0  0.87198  0.51656  0.76119  1.0000
  H   H3798     1.0  0.97435  0.53149  0.87831  1.0000
  C   C2140     1.0  0.89113  0.53481  0.50920  1.0000
  H   H3799     1.0  0.91528  0.51011  0.56875  1.0000
  H   H3800     1.0  0.97971  0.50419  0.75754  1.0000
  H   H3801     1.0  0.72401  0.50898  0.72495  1.0000
  H   H3802     1.0  0.86869  0.53167  0.61073  1.0000
  C   C2141     1.0  0.88024  0.49871  0.65572  1.0000
  C   C2142     1.0  0.85866  0.51045  0.77169  1.0000
  H   H3803     1.0  0.68975  0.52253  0.73590  1.0000
  H   H3804     1.0  0.97375  0.57385  0.84544  1.0000
  H   H3805     1.0  0.86418  0.51475  0.61612  1.0000
  C   C2143     1.0  0.72737  0.52824  0.73241  1.0000
  H   H3806     1.0  0.96765  0.50627  0.60424  1.0000
  H   H3807     1.0  0.85181  0.51597  0.77953  1.0000
  C   C2144     1.0  0.88548  0.52499  0.54638  1.0000
  H   H3808     1.0  0.90202  0.52693  0.63469  1.0000
  H   H3809     1.0  0.98122  0.52365  0.80645  1.0000
  H   H3810     1.0  0.70294  0.51826  0.77153  1.0000
  C   C2145     1.0  0.68326  0.51387  0.73176  1.0000
  H   H3811     1.0  0.97081  0.51644  0.75870  1.0000
  H   H3812     1.0  0.72216  0.53590  0.73544  1.0000
  C   C2146     1.0  0.89029  0.51319  0.84975  1.0000
  C   C2147     1.0  0.88033  0.50084  0.85041  1.0000
  C   C2148     1.0  0.86377  0.52101  0.66722  1.0000
  H   H3813     1.0  0.88544  0.51972  0.86311  1.0000
  H   H3814     1.0  0.99557  0.53071  0.84174  1.0000
  H   H3815     1.0  0.83239  0.50871  0.88667  1.0000
  C   C2149     1.0  0.98523  0.62008  0.68263  1.0000
  H   H3816     1.0  0.89595  0.50877  0.60805  1.0000
  C   C2150     1.0  0.97895  0.58253  0.85304  1.0000
  H   H3817     1.0  0.99316  0.54613  0.69066  1.0000
  H   H3818     1.0  0.86630  0.51338  0.68604  1.0000
  C   C2151     1.0  0.67947  0.51796  0.69548  1.0000
  H   H3819     1.0  0.98943  0.62796  0.65711  1.0000
  H   H3820     1.0  0.98575  0.50560  0.90434  1.0000
  H   H3821     1.0  0.98018  0.61132  0.67512  1.0000
  H   H3822     1.0  0.98356  0.50771  0.57965  1.0000
  C   C2152     1.0  0.99341  0.59087  0.78846  1.0000
  H   H3823     1.0  0.84579  0.52548  0.65751  1.0000
  H   H3824     1.0  0.97194  0.50724  0.82072  1.0000
  C   C2153     1.0  0.88556  0.50860  0.61797  1.0000
  H   H3825     1.0  0.88786  0.54382  0.50942  1.0000
  H   H3826     1.0  0.69696  0.50492  0.70434  1.0000
  H   H3827     1.0  0.85495  0.50660  0.88566  1.0000
  H   H3828     1.0  0.98408  0.61047  0.75581  1.0000
  H   H3829     1.0  0.97295  0.50767  0.67994  1.0000
  H   H3830     1.0  0.87329  0.50384  0.83518  1.0000
  H   H3831     1.0  0.94178  0.50742  0.51094  1.0000
  C   C2154     1.0  0.84679  0.49775  0.89270  1.0000
  H   H3832     1.0  0.98884  0.60250  0.82871  1.0000
  H   H3833     1.0  0.98713  0.58016  0.86441  1.0000
  C   C2155     1.0  0.83612  0.50126  0.87481  1.0000
  H   H3834     1.0  0.88027  0.50423  0.59929  1.0000
  H   H3835     1.0  0.94382  0.50652  0.57458  1.0000
  H   H3836     1.0  0.99264  0.52485  0.61120  1.0000
  S   S480      1.0  0.99387  0.55871  0.80865  1.0000
  C   C2156     1.0  0.99351  0.50995  0.80941  1.0000
  H   H3837     1.0  0.86954  0.49700  0.66466  1.0000
  H   H3838     1.0  0.84003  0.50534  0.84478  1.0000
  C   C2157     1.0  0.87671  0.49662  0.75091  1.0000
  C   C2158     1.0  0.99265  0.50028  0.64402  1.0000
  C   C2159     1.0  0.96990  0.49831  0.67229  1.0000
  C   C2160     1.0  0.94835  0.50047  0.55843  1.0000
  H   H3839     1.0  0.99577  0.50308  0.79241  1.0000
  H   H3840     1.0  0.93672  0.54397  0.48377  1.0000
