data_image0
_chemical_formula_structural       SFeS2Fe2SFeS3CH2CHCH4C6H5CH3C2HCH5CH4CH7NC3H2C3H5C2H7C2H2C5H6CHCH2NHCH5CH5C4HC2SC2HCH6CH4C2HCNH4CFeS2FeS2Fe2S3FeS2FeS2FeHFeS3H3CHC3H2C6H4C2H3C2H7C3H4C2H5NC11H20C2H6C2SHC2H5CH4CH2NHCH2CH3CHCH5C5HCH3CH4CH2NHCFeS2FeS2FeSFeS3C2H2C2HC3H5C2HC6H4C3H7C2HCHCH2CHC2H6C2NCHCH13CHCHC4H3SH7C2H4CH4CH3CNH3CH3CH3CHC3H8CH4C3HCH3NH2CHCH4CH3C3H5CH3CHFeS2FeSCFeSFeS3FeS2FeS2FeSFeCS2H3C7H3C3HC7H7NC2HCH3CH2C2HCH10CHC3H6CHC3H2CH2CHC2HNC7H2C2H16C2HC2H7CH3CH6CH4NC2HCH2CH6CH2SH2CH3CH4SH3CH5CHC2H4FeS2FeS2FeSFeS3FeS2FeS2FeSFeS3CH3C3H2C6H3C7H4C2H2C2H4C6H4CNH3CH4CH7CHC2H10CH3C2H6CHNC7H8CH8C2H4C5H2CHCH2CH5CHCNH7C2H2CH2CHCH2CH2CH4CH5CHCHCHCNCHCH3SFeS2FeS2FeSFeCS3FeS2FeS2FeSFeS2C6H4C2HC6H2CH5CH4C6H6C9H11CNC9HCH27CHCH6NH2SH2CH2CHCH3C2H4CHCHCH4CH3CHC2H4CH3C2H2C2H4CH2C2H9NFeS2FeSFeSFeS3FeS2HSFeSFeS3C3H2C6H4C2HCH4C3H5NCHC2HCH4CH9CH3FeCH2CHNCH2CHCHC3H5CH2C3H5CHC2H7C2H2CH2CH2C2H4C2HCNH3CHCHCH2C2H2CH3CH2CH4C2HC3HCHCH4C2H5CH2C2NCHC2H3NH9CHC2H2SH3C2H2SFeS2Fe2CFeS3H2C3H3C7H5SHCH4CH3C2NH2CH2CHCH3CHCH3C2H6C2H3CHCHCH7SHCH11CH3C2H3C3H2CHC2HC3H6CHCFeSFeS2FeSFeS3FeS2FeS2FeHFeS3H2C5H2C6H5CHC4H4C2H4CH2NC3HCH2CH2C2HCH4CNC6HC4H24CHCH4NHC4HC4H23CH2CH5CHC2HCH7SHNCH6CH2C3H3FeS2FeS2FeSFeS3H4CH2C2H5C9H3C3HCHCH5C2H5CH3C2H6C2H2CHCHCHC2H5NC8HCH14C2HSHNCH2CNCH
_chemical_formula_sum              "S128 Fe64 C576 H1024 N32"
_cell_length_a       46.1382
_cell_length_b       46.0853
_cell_length_c       39.5136
_cell_angle_alpha    92.7556
_cell_angle_beta     87.4736
_cell_angle_gamma    123.009

_space_group_name_H-M_alt    "P 1"
_space_group_IT_number       1

loop_
  _space_group_symop_operation_xyz
  'x, y, z'

loop_
  _atom_site_type_symbol
  _atom_site_label
  _atom_site_symmetry_multiplicity
  _atom_site_fract_x
  _atom_site_fract_y
  _atom_site_fract_z
  _atom_site_occupancy
  S   S1        1.0  0.34003  0.20063  0.29992  1.0000
  Fe  Fe1       1.0  0.32903  0.16131  0.09297  1.0000
  S   S2        1.0  0.34844  0.21536  0.07796  1.0000
  S   S3        1.0  0.32793  0.14287  0.14640  1.0000
  Fe  Fe2       1.0  0.32015  0.13465  0.01859  1.0000
  Fe  Fe3       1.0  0.38147  0.20825  0.03912  1.0000
  S   S4        1.0  0.43601  0.25729  0.03636  1.0000
  Fe  Fe4       1.0  0.30707  0.19230  0.03838  1.0000
  S   S5        1.0  0.27417  0.21558  0.03120  1.0000
  S   S6        1.0  0.36374  0.15484  0.05547  1.0000
  S   S7        1.0  0.28427  0.13803  0.05690  1.0000
  C   C1        1.0  0.15657  0.36808  0.02923  1.0000
  H   H1        1.0  0.41057  0.17713  0.12413  1.0000
  H   H2        1.0  0.12802  0.41625  0.04284  1.0000
  C   C2        1.0  0.45534  0.17499  0.10889  1.0000
  H   H3        1.0  0.15113  0.38024  0.05139  1.0000
  C   C3        1.0  0.18288  0.14736  0.04301  1.0000
  H   H4        1.0  0.22881  0.24045  0.03108  1.0000
  H   H5        1.0  0.34115  0.22837  0.23580  1.0000
  H   H6        1.0  0.37511  0.26161  0.01020  1.0000
  H   H7        1.0  0.44698  0.13287  0.07478  1.0000
  C   C4        1.0  0.33689  0.18407  0.25741  1.0000
  C   C5        1.0  0.33288  0.15211  0.24982  1.0000
  C   C6        1.0  0.32996  0.13996  0.21580  1.0000
  C   C7        1.0  0.33122  0.15956  0.18881  1.0000
  C   C8        1.0  0.33553  0.19166  0.19635  1.0000
  C   C9        1.0  0.33826  0.20373  0.23038  1.0000
  H   H8        1.0  0.33171  0.13658  0.27017  1.0000
  H   H9        1.0  0.32665  0.11510  0.21037  1.0000
  H   H10       1.0  0.33635  0.20697  0.17600  1.0000
  H   H11       1.0  0.23994  0.05655  0.03225  1.0000
  H   H12       1.0  0.41429  0.29137  0.11685  1.0000
  C   C10       1.0  0.43384  0.23736  0.15528  1.0000
  H   H13       1.0  0.48163  0.19256  0.09796  1.0000
  H   H14       1.0  0.31410  0.28150  0.13386  1.0000
  H   H15       1.0  0.17099  0.04206  0.00719  1.0000
  C   C11       1.0  0.38700  0.29885  0.29378  1.0000
  C   C12       1.0  0.06531  0.23581  0.30243  1.0000
  H   H16       1.0  0.06638  0.34606  0.01612  1.0000
  C   C13       1.0  0.41565  0.27758  0.13840  1.0000
  H   H17       1.0  0.37051  0.28063  0.27327  1.0000
  H   H18       1.0  0.45680  0.44670  0.02117  1.0000
  H   H19       1.0  0.15214  0.31901  0.01775  1.0000
  H   H20       1.0  0.40627  0.21686  0.16057  1.0000
  H   H21       1.0  0.10131  0.41494  0.01136  1.0000
  C   C14       1.0  0.32645  0.27576  0.11209  1.0000
  H   H22       1.0  0.19723  0.02322  0.04639  1.0000
  H   H23       1.0  0.39591  0.13951  0.23457  1.0000
  H   H24       1.0  0.40324  0.15630  0.17503  1.0000
  H   H25       1.0  0.21109  0.02178  0.00333  1.0000
  C   C15       1.0  0.36585  0.30756  0.31802  1.0000
  H   H26       1.0  0.38895  0.25905  0.14800  1.0000
  H   H27       1.0  0.19116  0.17219  0.03120  1.0000
  H   H28       1.0  0.36400  0.32923  0.10406  1.0000
  H   H29       1.0  0.30594  0.25220  0.09842  1.0000
  H   H30       1.0  0.16153  0.33403  0.06124  1.0000
  H   H31       1.0  0.40417  0.18829  0.20401  1.0000
  H   H32       1.0  0.34525  0.27055  0.12208  1.0000
  N   N1        1.0  0.45503  0.22168  0.14805  1.0000
  C   C16       1.0  0.48016  0.23356  0.02783  1.0000
  C   C17       1.0  0.05706  0.37210  0.05727  1.0000
  C   C18       1.0  0.45477  0.20498  0.18016  1.0000
  H   H33       1.0  0.29201  0.04034  0.02481  1.0000
  H   H34       1.0  0.43986  0.20887  0.09566  1.0000
  C   C19       1.0  0.08175  0.36604  0.03579  1.0000
  C   C20       1.0  0.42209  0.15902  0.22447  1.0000
  C   C21       1.0  0.43284  0.25835  0.12634  1.0000
  H   H35       1.0  0.15520  0.46720  0.00356  1.0000
  H   H36       1.0  0.16570  0.09506  0.02861  1.0000
  H   H37       1.0  0.38398  0.29819  0.06777  1.0000
  H   H38       1.0  0.41930  0.32095  0.01617  1.0000
  H   H39       1.0  0.45896  0.27769  0.11618  1.0000
  C   C22       1.0  0.14654  0.33199  0.03903  1.0000
  C   C23       1.0  0.47652  0.26105  0.03741  1.0000
  H   H40       1.0  0.03183  0.25429  0.30436  1.0000
  H   H41       1.0  0.00466  0.17684  0.30572  1.0000
  H   H42       1.0  0.23032  0.14066  0.01005  1.0000
  H   H43       1.0  0.47018  0.19314  0.17688  1.0000
  H   H44       1.0  0.43530  0.14556  0.21643  1.0000
  H   H45       1.0  0.08775  0.26131  0.31100  1.0000
  H   H46       1.0  0.03627  0.34733  0.06841  1.0000
  C   C24       1.0  0.99112  0.23665  0.01140  1.0000
  C   C25       1.0  0.21259  0.03928  0.02452  1.0000
  H   H47       1.0  0.38718  0.36792  0.06458  1.0000
  H   H48       1.0  0.33905  0.34074  0.02962  1.0000
  C   C26       1.0  0.13730  0.36674  0.99735  1.0000
  C   C27       1.0  0.41873  0.17666  0.19447  1.0000
  C   C28       1.0  0.17537  0.11960  0.01574  1.0000
  C   C29       1.0  0.43442  0.14720  0.08174  1.0000
  C   C30       1.0  0.03173  0.23236  0.31485  1.0000
  H   H49       1.0  0.42131  0.36066  0.05862  1.0000
  H   H50       1.0  0.40774  0.12845  0.09129  1.0000
  H   H51       1.0  0.32158  0.29734  0.01647  1.0000
  H   H52       1.0  0.44328  0.25444  0.17851  1.0000
  H   H53       1.0  0.15918  0.13913  0.05866  1.0000
  H   H54       1.0  0.43083  0.29688  0.15880  1.0000
  C   C31       1.0  0.26667  0.99112  0.99691  1.0000
  H   H55       1.0  0.32502  0.31130  0.08018  1.0000
  C   C32       1.0  0.28103  0.02712  0.00091  1.0000
  H   H56       1.0  0.31754  0.25966  0.31242  1.0000
  H   H57       1.0  0.43257  0.43134  0.06042  1.0000
  N   N2        1.0  0.37583  0.32540  0.02973  1.0000
  H   H58       1.0  0.09178  0.35485  0.05242  1.0000
  C   C33       1.0  0.40064  0.36085  0.04516  1.0000
  H   H59       1.0  0.35605  0.32027  0.30320  1.0000
  H   H60       1.0  0.43314  0.15914  0.05857  1.0000
  H   H61       1.0  0.19980  0.07673  0.03629  1.0000
  H   H62       1.0  0.41732  0.24041  0.10536  1.0000
  H   H63       1.0  0.34328  0.27326  0.04794  1.0000
  C   C34       1.0  0.43871  0.19569  0.11903  1.0000
  H   H64       1.0  0.03986  0.24523  0.02606  1.0000
  H   H65       1.0  0.07102  0.39117  0.07825  1.0000
  H   H66       1.0  0.40853  0.32283  0.28213  1.0000
  H   H67       1.0  0.45675  0.16165  0.13071  1.0000
  H   H68       1.0  0.11854  0.31570  0.04574  1.0000
  C   C35       1.0  0.23881  0.24240  0.00544  1.0000
  C   C36       1.0  0.34466  0.30654  0.08863  1.0000
  C   C37       1.0  0.36258  0.29973  0.05790  1.0000
  C   C38       1.0  0.02623  0.24789  0.00610  1.0000
  H   H69       1.0  0.00013  0.19986  0.27422  1.0000
  C   C39       1.0  0.44497  0.42507  0.03910  1.0000
  C   C40       1.0  0.34543  0.32381  0.01452  1.0000
  S   S8        1.0  0.34110  0.18816  0.99882  1.0000
  C   C41       1.0  0.99985  0.19768  0.30214  1.0000
  C   C42       1.0  0.41827  0.39144  0.02069  1.0000
  H   H70       1.0  0.43672  0.17826  0.24512  1.0000
  C   C43       1.0  0.39546  0.31633  0.00452  1.0000
  H   H71       1.0  0.46585  0.42288  0.04902  1.0000
  H   H72       1.0  0.45771  0.20886  0.02022  1.0000
  H   H73       1.0  0.46767  0.22522  0.20063  1.0000
  H   H74       1.0  0.20355  0.15150  0.05989  1.0000
  H   H75       1.0  0.39874  0.39560  0.01068  1.0000
  H   H76       1.0  0.04481  0.38164  0.04139  1.0000
  C   C44       1.0  0.19835  0.06056  0.01390  1.0000
  H   H77       1.0  0.06636  0.23411  0.27430  1.0000
  H   H78       1.0  0.18493  0.38376  0.02398  1.0000
  H   H79       1.0  0.39810  0.28675  0.30760  1.0000
  H   H80       1.0  0.06752  0.21519  0.31301  1.0000
  C   C45       1.0  0.26193  0.23182  0.99788  1.0000
  C   C46       1.0  0.11216  0.40042  0.02076  1.0000
  H   H81       1.0  0.18191  0.43278  0.02010  1.0000
  C   C47       1.0  0.17072  0.42963  0.99479  1.0000
  N   N3        1.0  0.13451  0.39753  0.99334  1.0000
  H   H82       1.0  0.11149  0.34237  0.99757  1.0000
  H   H83       1.0  0.24601  0.10266  0.99436  1.0000
  H   H84       1.0  0.43200  0.38713  0.99932  1.0000
  H   H85       1.0  0.15427  0.11622  0.00002  1.0000
  C   C48       1.0  0.20789  0.13038  0.99306  1.0000
  Fe  Fe5       1.0  0.32623  0.19440  0.42636  1.0000
  S   S9        1.0  0.29409  0.15306  0.38709  1.0000
  S   S10       1.0  0.31126  0.22303  0.46573  1.0000
  Fe  Fe6       1.0  0.39087  0.19153  0.40770  1.0000
  S   S11       1.0  0.36228  0.14932  0.36770  1.0000
  S   S12       1.0  0.44587  0.21224  0.42568  1.0000
  Fe  Fe7       1.0  0.34097  0.18061  0.35204  1.0000
  Fe  Fe8       1.0  0.31742  0.12454  0.40593  1.0000
  S   S13       1.0  0.28259  0.06521  0.41286  1.0000
  S   S14       1.0  0.37185  0.22396  0.39053  1.0000
  S   S15       1.0  0.34740  0.16468  0.44663  1.0000
  Fe  Fe9       1.0  0.19323  0.30524  0.52295  1.0000
  S   S16       1.0  0.15114  0.27866  0.56270  1.0000
  S   S17       1.0  0.20465  0.27168  0.48631  1.0000
  Fe  Fe10      1.0  0.19949  0.37509  0.53946  1.0000
  S   S18       1.0  0.15736  0.35228  0.57996  1.0000
  S   S19       1.0  0.22999  0.43095  0.52033  1.0000
  Fe  Fe11      1.0  0.18312  0.32564  0.59669  1.0000
  H   H86       1.0  0.16030  0.24446  0.62551  1.0000
  Fe  Fe12      1.0  0.12778  0.30654  0.54309  1.0000
  S   S20       1.0  0.06802  0.27392  0.54064  1.0000
  S   S21       1.0  0.22706  0.35081  0.55792  1.0000
  S   S22       1.0  0.16823  0.33102  0.50155  1.0000
  H   H87       1.0  0.22588  0.18476  0.33276  1.0000
  H   H88       1.0  0.35829  0.16495  0.56888  1.0000
  H   H89       1.0  0.40420  0.33233  0.44438  1.0000
  C   C49       1.0  0.24256  0.47165  0.54015  1.0000
  H   H90       1.0  0.22489  0.05657  0.59130  1.0000
  C   C50       1.0  0.26781  0.03489  0.44641  1.0000
  C   C51       1.0  0.33001  0.27941  0.39668  1.0000
  C   C52       1.0  0.27368  0.04509  0.48071  1.0000
  H   H91       1.0  0.34147  0.13596  0.53239  1.0000
  H   H92       1.0  0.28874  0.07233  0.48759  1.0000
  C   C53       1.0  0.28089  0.23567  0.47137  1.0000
  C   C54       1.0  0.28733  0.26173  0.49576  1.0000
  C   C55       1.0  0.26431  0.27291  0.50100  1.0000
  C   C56       1.0  0.23441  0.25817  0.48182  1.0000
  C   C57       1.0  0.22792  0.23194  0.45756  1.0000
  C   C58       1.0  0.25075  0.22055  0.45258  1.0000
  H   H93       1.0  0.31040  0.27354  0.51068  1.0000
  H   H94       1.0  0.26979  0.29308  0.51974  1.0000
  H   H95       1.0  0.20479  0.22012  0.44271  1.0000
  H   H96       1.0  0.24477  0.19978  0.43454  1.0000
  C   C59       1.0  0.04740  0.27740  0.47583  1.0000
  C   C60       1.0  0.03758  0.26256  0.50779  1.0000
  H   H97       1.0  0.44095  0.14624  0.33401  1.0000
  H   H98       1.0  0.38577  0.30807  0.38635  1.0000
  H   H99       1.0  0.07442  0.29612  0.47019  1.0000
  C   C61       1.0  0.23549  0.47505  0.57440  1.0000
  C   C62       1.0  0.46234  0.15982  0.35228  1.0000
  H   H100      1.0  0.29027  0.45315  0.56685  1.0000
  H   H101      1.0  0.47208  0.25554  0.36540  1.0000
  H   H102      1.0  0.34452  0.25809  0.34177  1.0000
  H   H103      1.0  0.09444  0.23673  0.60996  1.0000
  H   H104      1.0  0.37023  0.33535  0.40067  1.0000
  H   H105      1.0  0.18236  0.04150  0.57576  1.0000
  H   H106      1.0  0.11313  0.30842  0.63638  1.0000
  C   C63       1.0  0.34370  0.15909  0.54521  1.0000
  C   C64       1.0  0.29735  0.35244  0.38128  1.0000
  C   C65       1.0  0.31457  0.31102  0.35922  1.0000
  H   H107      1.0  0.33047  0.25575  0.39887  1.0000
  H   H108      1.0  0.35966  0.31080  0.45859  1.0000
  H   H109      1.0  0.14485  0.20052  0.63526  1.0000
  H   H110      1.0  0.99677  0.13320  0.62408  1.0000
  C   C66       1.0  0.00212  0.23825  0.51440  1.0000
  C   C67       1.0  0.02219  0.26837  0.45120  1.0000
  H   H111      1.0  0.99733  0.19515  0.41668  1.0000
  H   H112      1.0  0.05910  0.25841  0.61182  1.0000
  H   H113      1.0  0.20489  0.02130  0.56060  1.0000
  H   H114      1.0  0.22183  0.45230  0.58974  1.0000
  H   H115      1.0  0.30305  0.30944  0.33443  1.0000
  N   N4        1.0  0.25074  0.13618  0.52591  1.0000
  C   C68       1.0  0.28693  0.14395  0.52106  1.0000
  C   C69       1.0  0.23385  0.12907  0.49191  1.0000
  C   C70       1.0  0.25376  0.16823  0.54191  1.0000
  C   C71       1.0  0.22894  0.10668  0.54956  1.0000
  C   C72       1.0  0.22486  0.07173  0.53981  1.0000
  C   C73       1.0  0.30791  0.15236  0.55368  1.0000
  C   C74       1.0  0.22073  0.16947  0.54167  1.0000
  C   C75       1.0  0.24163  0.10874  0.46450  1.0000
  C   C76       1.0  0.21738  0.09718  0.43464  1.0000
  C   C77       1.0  0.31621  0.45795  0.56058  1.0000
  C   C78       1.0  0.22519  0.19999  0.56334  1.0000
  H   H116      1.0  0.30214  0.16624  0.50399  1.0000
  H   H117      1.0  0.28702  0.12227  0.50781  1.0000
  H   H118      1.0  0.20528  0.11552  0.49538  1.0000
  H   H119      1.0  0.24251  0.15397  0.47972  1.0000
  H   H120      1.0  0.27466  0.19190  0.52901  1.0000
  H   H121      1.0  0.26160  0.17175  0.56879  1.0000
  H   H122      1.0  0.23906  0.11426  0.57573  1.0000
  H   H123      1.0  0.20225  0.10097  0.55188  1.0000
  H   H124      1.0  0.26315  0.24897  0.38479  1.0000
  H   H125      1.0  0.20758  0.05939  0.51788  1.0000
  H   H126      1.0  0.31184  0.17595  0.56701  1.0000
  H   H127      1.0  0.29463  0.13042  0.57118  1.0000
  H   H128      1.0  0.19772  0.14557  0.55163  1.0000
  H   H129      1.0  0.21529  0.17278  0.51551  1.0000
  H   H130      1.0  0.26849  0.12571  0.45462  1.0000
  H   H131      1.0  0.23948  0.08556  0.47416  1.0000
  H   H132      1.0  0.19020  0.07876  0.44300  1.0000
  H   H133      1.0  0.21957  0.11987  0.42318  1.0000
  H   H134      1.0  0.22448  0.08390  0.41498  1.0000
  H   H135      1.0  0.30513  0.32086  0.41271  1.0000
  C   C79       1.0  0.02413  0.18830  0.61376  1.0000
  C   C80       1.0  0.06026  0.26203  0.63987  1.0000
  H   H136      1.0  0.22761  0.19654  0.59047  1.0000
  H   H137      1.0  0.24852  0.22467  0.55500  1.0000
  H   H138      1.0  0.20235  0.20182  0.56074  1.0000
  H   H139      1.0  0.35857  0.18157  0.52841  1.0000
  H   H140      1.0  0.28123  0.20804  0.38650  1.0000
  H   H141      1.0  0.25007  0.07498  0.53376  1.0000
  C   C81       1.0  0.29459  0.31850  0.38731  1.0000
  C   C82       1.0  0.20819  0.04636  0.56875  1.0000
  S   S23       1.0  0.19546  0.31842  0.65038  1.0000
  H   H142      1.0  0.37744  0.28579  0.44350  1.0000
  C   C83       1.0  0.37765  0.30965  0.43976  1.0000
  C   C84       1.0  0.36732  0.31011  0.40365  1.0000
  H   H143      1.0  0.04498  0.18778  0.59923  1.0000
  H   H144      1.0  0.99776  0.16748  0.36143  1.0000
  H   H145      1.0  0.03027  0.28035  0.42680  1.0000
  H   H146      1.0  0.28259  0.35692  0.40152  1.0000
  H   H147      1.0  0.05212  0.31805  0.63997  1.0000
  C   C85       1.0  0.27293  0.21195  0.36220  1.0000
  H   H148      1.0  0.45973  0.14062  0.37017  1.0000
  H   H149      1.0  0.28634  0.35131  0.35644  1.0000
  H   H150      1.0  0.03261  0.23489  0.34285  1.0000
  H   H151      1.0  0.26477  0.02830  0.53254  1.0000
  C   C86       1.0  0.26012  0.01996  0.50619  1.0000
  H   H152      1.0  0.26525  0.24918  0.33963  1.0000
  H   H153      1.0  0.14966  0.47940  0.52383  1.0000
  N   N5        1.0  0.31521  0.27893  0.36324  1.0000
  H   H154      1.0  0.31298  0.27830  0.41801  1.0000
  C   C87       1.0  0.24896  0.99913  0.43817  1.0000
  H   H155      1.0  0.34106  0.33455  0.35814  1.0000
  H   H156      1.0  0.99404  0.22650  0.53891  1.0000
  C   C88       1.0  0.03480  0.20114  0.65096  1.0000
  H   H157      1.0  0.23168  0.15760  0.35919  1.0000
  H   H158      1.0  0.08697  0.18849  0.64950  1.0000
  H   H159      1.0  0.07577  0.31867  0.60192  1.0000
  C   C89       1.0  0.07740  0.32354  0.62980  1.0000
  H   H160      1.0  0.26666  0.29784  0.38777  1.0000
  C   C90       1.0  0.27819  0.24824  0.36236  1.0000
  H   H161      1.0  0.32671  0.45418  0.58355  1.0000
  H   H162      1.0  0.21853  0.18517  0.37815  1.0000
  H   H163      1.0  0.01794  0.20496  0.60063  1.0000
  H   H164      1.0  0.32475  0.37457  0.38197  1.0000
  H   H165      1.0  0.31305  0.43851  0.54080  1.0000
  C   C91       1.0  0.10893  0.21586  0.64940  1.0000
  C   C92       1.0  0.98675  0.24415  0.45785  1.0000
  C   C93       1.0  0.09808  0.24014  0.63782  1.0000
  C   C94       1.0  0.08739  0.30113  0.64670  1.0000
  C   C95       1.0  0.23487  0.18322  0.35784  1.0000
  H   H166      1.0  0.12121  0.26675  0.64138  1.0000
  C   C96       1.0  0.13708  0.21763  0.62596  1.0000
  H   H167      1.0  0.38355  0.32658  0.33722  1.0000
  H   H168      1.0  0.12749  0.20896  0.59976  1.0000
  H   H169      1.0  0.45967  0.17957  0.36664  1.0000
  C   C97       1.0  0.99186  0.15157  0.61247  1.0000
  H   H170      1.0  0.09737  0.35132  0.63481  1.0000
  H   H171      1.0  0.03459  0.25692  0.64856  1.0000
  H   H172      1.0  0.28774  0.20846  0.34135  1.0000
  H   H173      1.0  0.99377  0.25984  0.33151  1.0000
  C   C98       1.0  0.33496  0.27436  0.33404  1.0000
  H   H174      1.0  0.24465  0.99076  0.41180  1.0000
  H   H175      1.0  0.16213  0.47350  0.56430  1.0000
  N   N6        1.0  0.06690  0.23695  0.65563  1.0000
  H   H176      1.0  0.21832  0.13443  0.92430  1.0000
  C   C99       1.0  0.22907  0.12180  0.93799  1.0000
  Fe  Fe13      1.0  0.20134  0.36937  0.91328  1.0000
  S   S24       1.0  0.14694  0.34505  0.89605  1.0000
  S   S25       1.0  0.24104  0.42649  0.92678  1.0000
  Fe  Fe14      1.0  0.19693  0.29957  0.90866  1.0000
  S   S26       1.0  0.14215  0.27086  0.88923  1.0000
  S   S27       1.0  0.22934  0.27531  0.91363  1.0000
  Fe  Fe15      1.0  0.16052  0.31701  0.85620  1.0000
  S   S28       1.0  0.14286  0.31899  0.80319  1.0000
  Fe  Fe16      1.0  0.13227  0.30084  0.92994  1.0000
  S   S29       1.0  0.08819  0.27587  0.97030  1.0000
  S   S30       1.0  0.21566  0.34344  0.87230  1.0000
  S   S31       1.0  0.18638  0.32750  0.95054  1.0000
  C   C100      1.0  0.26426  0.24798  0.93929  1.0000
  C   C101      1.0  0.12092  0.39540  0.95860  1.0000
  H   H177      1.0  0.17034  0.46609  0.96104  1.0000
  H   H178      1.0  0.25303  0.45411  0.85263  1.0000
  C   C102      1.0  0.26716  0.02808  0.94297  1.0000
  C   C103      1.0  0.24093  0.25833  0.94678  1.0000
  H   H179      1.0  0.30699  0.47177  0.81261  1.0000
  C   C104      1.0  0.02564  0.26546  0.94972  1.0000
  C   C105      1.0  0.25061  0.40846  0.71662  1.0000
  C   C106      1.0  0.07483  0.36342  0.91410  1.0000
  H   H180      1.0  0.17997  0.39208  0.83590  1.0000
  H   H181      1.0  0.26337  0.45982  0.72929  1.0000
  H   H182      1.0  0.29312  0.22784  0.95820  1.0000
  H   H183      1.0  0.13924  0.39618  0.93873  1.0000
  H   H184      1.0  0.07062  0.21061  0.77023  1.0000
  C   C107      1.0  0.25188  0.43987  0.82878  1.0000
  C   C108      1.0  0.04380  0.26235  0.97525  1.0000
  H   H185      1.0  0.02816  0.19075  0.96766  1.0000
  C   C109      1.0  0.18197  0.32073  0.69292  1.0000
  C   C110      1.0  0.16071  0.33308  0.70127  1.0000
  C   C111      1.0  0.14948  0.33285  0.73517  1.0000
  C   C112      1.0  0.16018  0.32129  0.76141  1.0000
  C   C113      1.0  0.18256  0.31025  0.75327  1.0000
  C   C114      1.0  0.19311  0.30972  0.71924  1.0000
  H   H186      1.0  0.20809  0.42270  0.75556  1.0000
  H   H187      1.0  0.13230  0.34160  0.74112  1.0000
  H   H188      1.0  0.19097  0.30116  0.77304  1.0000
  H   H189      1.0  0.20986  0.30043  0.71323  1.0000
  C   C115      1.0  0.12616  0.02560  0.92182  1.0000
  C   C116      1.0  0.24577  0.46657  0.91842  1.0000
  C   C117      1.0  0.21797  0.46862  0.90935  1.0000
  H   H190      1.0  0.28085  0.13704  0.95317  1.0000
  H   H191      1.0  0.19269  0.44518  0.90651  1.0000
  H   H192      1.0  0.27451  0.25030  0.91370  1.0000
  H   H193      1.0  0.15132  0.06593  0.97702  1.0000
  H   H194      1.0  0.01209  0.16262  0.93064  1.0000
  H   H195      1.0  0.31410  0.18982  0.92031  1.0000
  H   H196      1.0  0.37749  0.24663  0.94966  1.0000
  C   C118      1.0  0.28663  0.17048  0.91419  1.0000
  C   C119      1.0  0.26050  0.48669  0.79173  1.0000
  H   H197      1.0  0.28423  0.41550  0.86486  1.0000
  C   C120      1.0  0.26749  0.14961  0.94558  1.0000
  H   H198      1.0  0.03548  0.20057  0.72098  1.0000
  C   C121      1.0  0.16989  0.07913  0.95576  1.0000
  H   H199      1.0  0.27015  0.16797  0.96621  1.0000
  H   H200      1.0  0.11597  0.04001  0.91089  1.0000
  C   C122      1.0  0.00807  0.16430  0.95841  1.0000
  H   H201      1.0  0.06472  0.36460  0.96707  1.0000
  C   C123      1.0  0.28786  0.44557  0.82192  1.0000
  C   C124      1.0  0.37530  0.27837  0.99084  1.0000
  H   H202      1.0  0.32748  0.44449  0.84852  1.0000
  H   H203      1.0  0.28590  0.15318  0.89319  1.0000
  H   H204      1.0  0.10129  0.26743  0.69659  1.0000
  H   H205      1.0  0.15096  0.36362  0.97490  1.0000
  H   H206      1.0  0.18821  0.42703  0.97624  1.0000
  H   H207      1.0  0.22651  0.40065  0.70345  1.0000
  C   C125      1.0  0.07361  0.24660  0.69295  1.0000
  C   C126      1.0  0.16441  0.05009  0.93002  1.0000
  N   N7        1.0  0.23717  0.44910  0.80093  1.0000
  C   C127      1.0  0.22833  0.25546  0.98020  1.0000
  H   H208      1.0  0.11993  0.22415  0.67512  1.0000
  C   C128      1.0  0.39233  0.27413  0.95858  1.0000
  H   H209      1.0  0.11082  0.01251  0.94501  1.0000
  H   H210      1.0  0.24719  0.38554  0.72884  1.0000
  H   H211      1.0  0.07316  0.20045  0.70830  1.0000
  H   H212      1.0  0.05858  0.25772  0.70295  1.0000
  H   H213      1.0  0.17840  0.06106  0.90573  1.0000
  H   H214      1.0  0.21286  0.15336  0.97936  1.0000
  H   H215      1.0  0.40499  0.33339  0.98248  1.0000
  H   H216      1.0  0.01245  0.19998  0.66444  1.0000
  H   H217      1.0  0.08251  0.33899  0.95423  1.0000
  H   H218      1.0  0.22421  0.06842  0.96459  1.0000
  H   H219      1.0  0.22095  0.39899  0.77767  1.0000
  H   H220      1.0  0.04825  0.34073  0.90949  1.0000
  H   H221      1.0  0.07558  0.38734  0.90910  1.0000
  C   C129      1.0  0.30222  0.44150  0.85424  1.0000
  H   H222      1.0  0.11940  0.41823  0.95458  1.0000
  C   C130      1.0  0.08436  0.36364  0.95072  1.0000
  H   H223      1.0  0.07146  0.24941  0.76305  1.0000
  C   C131      1.0  0.25947  0.43737  0.74296  1.0000
  C   C132      1.0  0.14105  0.40367  0.83440  1.0000
  C   C133      1.0  0.20328  0.44370  0.81398  1.0000
  C   C134      1.0  0.22987  0.42565  0.76991  1.0000
  H   H224      1.0  0.08965  0.30792  0.67417  1.0000
  H   H225      1.0  0.28433  0.44531  0.75422  1.0000
  H   H226      1.0  0.32162  0.34291  0.93982  1.0000
  S   S32       1.0  0.30022  0.09172  0.97674  1.0000
  H   H227      1.0  0.13250  0.41648  0.81807  1.0000
  H   H228      1.0  0.34440  0.31070  0.96021  1.0000
  H   H229      1.0  0.10819  0.24678  0.75068  1.0000
  H   H230      1.0  0.23446  0.41212  0.83497  1.0000
  H   H231      1.0  0.30620  0.46155  0.87365  1.0000
  H   H232      1.0  0.12301  0.00542  0.90300  1.0000
  H   H233      1.0  0.26752  0.04227  0.92176  1.0000
  C   C135      1.0  0.07950  0.23199  0.75247  1.0000
  C   C136      1.0  0.17295  0.40559  0.81888  1.0000
  H   H234      1.0  0.14662  0.41616  0.86010  1.0000
  H   H235      1.0  0.16110  0.09438  0.94373  1.0000
  H   H236      1.0  0.11966  0.37607  0.83664  1.0000
  H   H237      1.0  0.09280  0.36128  0.89617  1.0000
  C   C137      1.0  0.27479  0.23501  0.96456  1.0000
  H   H238      1.0  0.15295  0.34280  0.68160  1.0000
  H   H239      1.0  0.22990  0.10326  0.91955  1.0000
  H   H240      1.0  0.17329  0.03427  0.94026  1.0000
  H   H241      1.0  0.27492  0.18449  0.90581  1.0000
  C   C138      1.0  0.06405  0.21722  0.71759  1.0000
  H   H242      1.0  0.28565  0.42573  0.80324  1.0000
  H   H243      1.0  0.03855  0.27630  0.92579  1.0000
  H   H244      1.0  0.39277  0.29007  0.93812  1.0000
  C   C139      1.0  0.28162  0.04597  0.97383  1.0000
  N   N8        1.0  0.20622  0.10327  0.96834  1.0000
  H   H245      1.0  0.01148  0.14545  0.97122  1.0000
  H   H246      1.0  0.41917  0.28180  0.96367  1.0000
  H   H247      1.0  0.16524  0.39109  0.79424  1.0000
  C   C140      1.0  0.17429  0.46441  0.98818  1.0000
  H   H248      1.0  0.20668  0.45719  0.83898  1.0000
  H   H249      1.0  0.19418  0.45534  0.79656  1.0000
  H   H250      1.0  0.34812  0.26896  0.98551  1.0000
  C   C141      1.0  0.34868  0.33291  0.97658  1.0000
  H   H251      1.0  0.27185  0.41757  0.69736  1.0000
  H   H252      1.0  0.37434  0.35562  0.96963  1.0000
  H   H253      1.0  0.32757  0.36536  0.98015  1.0000
  C   C142      1.0  0.21994  0.08404  0.98412  1.0000
  H   H254      1.0  0.03729  0.18134  0.66284  1.0000
  C   C143      1.0  0.32169  0.34066  0.96769  1.0000
  C   C144      1.0  0.99061  0.25447  0.95512  1.0000
  C   C145      1.0  0.25251  0.99202  0.93907  1.0000
  H   H255      1.0  0.29547  0.31958  0.97598  1.0000
  H   H256      1.0  0.21055  0.26340  0.98661  1.0000
  H   H257      1.0  0.27229  0.83440  0.03686  1.0000
  H   H258      1.0  0.06083  0.76045  0.02548  1.0000
  H   H259      1.0  0.07098  0.82849  0.05495  1.0000
  H   H260      1.0  0.02256  0.86879  0.17738  1.0000
  H   H261      1.0  0.04627  0.88707  0.13843  1.0000
  H   H262      1.0  0.08754  0.78621  0.06084  1.0000
  C   C146      1.0  0.28498  0.85334  0.01627  1.0000
  H   H263      1.0  0.00404  0.75538  0.04930  1.0000
  H   H264      1.0  0.21587  0.80096  0.03187  1.0000
  H   H265      1.0  0.26680  0.97702  0.01795  1.0000
  H   H266      1.0  0.33153  0.85329  0.02447  1.0000
  C   C147      1.0  0.03554  0.86455  0.15512  1.0000
  C   C148      1.0  0.00938  0.83116  0.13609  1.0000
  C   C149      1.0  0.05449  0.80239  0.04296  1.0000
  H   H267      1.0  0.27706  0.87206  0.02152  1.0000
  C   C150      1.0  0.07653  0.78705  0.03675  1.0000
  H   H268      1.0  0.05699  0.86287  0.16429  1.0000
  H   H269      1.0  0.15488  0.75943  0.01775  1.0000
  H   H270      1.0  0.01725  0.82741  0.03711  1.0000
  N   N9        1.0  0.00318  0.79488  0.08067  1.0000
  H   H271      1.0  0.04501  0.81800  0.11659  1.0000
  H   H272      1.0  0.99830  0.80991  0.15436  1.0000
  C   C151      1.0  0.02187  0.77863  0.06520  1.0000
  H   H273      1.0  0.32844  0.91446  0.05407  1.0000
  C   C152      1.0  0.02683  0.82356  0.10540  1.0000
  H   H274      1.0  0.03028  0.76891  0.08538  1.0000
  H   H275      1.0  0.04673  0.80526  0.01774  1.0000
  H   H276      1.0  0.04381  0.84811  0.09172  1.0000
  H   H277      1.0  0.99881  0.76144  0.13781  1.0000
  C   C153      1.0  0.33413  0.89399  0.05520  1.0000
  H   H278      1.0  0.99479  0.85312  0.07638  1.0000
  H   H279      1.0  0.16843  0.80248  0.00615  1.0000
  H   H280      1.0  0.31977  0.87734  0.07708  1.0000
  C   C154      1.0  0.32425  0.87240  0.02212  1.0000
  C   C155      1.0  0.20958  0.79245  0.00499  1.0000
  C   C156      1.0  0.99391  0.80886  0.05214  1.0000
  H   H281      1.0  0.33980  0.89031  0.00152  1.0000
  H   H282      1.0  0.09816  0.80333  0.01878  1.0000
  H   H283      1.0  0.98806  0.83365  0.12851  1.0000
  H   H284      1.0  0.21484  0.49693  0.02440  1.0000
  H   H285      1.0  0.36226  0.90674  0.05928  1.0000
  C   C157      1.0  0.17196  0.78075  0.00034  1.0000
  H   H286      1.0  0.27091  0.79172  0.00250  1.0000
  H   H287      1.0  0.21109  0.76940  0.00004  1.0000
  H   H288      1.0  0.98971  0.85713  0.01539  1.0000
  C   C158      1.0  0.21041  0.49533  0.99679  1.0000
  H   H289      1.0  0.31445  0.77536  0.99281  1.0000
  Fe  Fe17      1.0  0.38285  0.69329  0.54309  1.0000
  S   S33       1.0  0.32932  0.65757  0.52139  1.0000
  S   S34       1.0  0.43221  0.69633  0.52471  1.0000
  Fe  Fe18      1.0  0.35377  0.70726  0.60728  1.0000
  S   S35       1.0  0.29872  0.67253  0.59199  1.0000
  C   C159      1.0  0.40480  0.56770  0.56706  1.0000
  Fe  Fe19      1.0  0.31272  0.63473  0.57298  1.0000
  S   S36       1.0  0.27553  0.57848  0.58876  1.0000
  Fe  Fe20      1.0  0.31812  0.69761  0.54177  1.0000
  S   S37       1.0  0.28198  0.70854  0.51520  1.0000
  S   S38       1.0  0.36641  0.66773  0.59337  1.0000
  S   S39       1.0  0.37305  0.73511  0.55830  1.0000
  Fe  Fe21      1.0  0.20102  0.83111  0.54873  1.0000
  S   S40       1.0  0.20876  0.87501  0.58354  1.0000
  S   S41       1.0  0.24148  0.81820  0.56015  1.0000
  Fe  Fe22      1.0  0.13357  0.82086  0.52123  1.0000
  S   S42       1.0  0.13725  0.86294  0.55592  1.0000
  S   S43       1.0  0.09200  0.79006  0.48051  1.0000
  Fe  Fe23      1.0  0.19399  0.89433  0.53999  1.0000
  S   S44       1.0  0.22352  0.95359  0.53154  1.0000
  Fe  Fe24      1.0  0.15239  0.84082  0.59645  1.0000
  C   C160      1.0  0.36592  0.60335  0.48281  1.0000
  S   S45       1.0  0.19016  0.85286  0.50410  1.0000
  S   S46       1.0  0.14460  0.79634  0.56274  1.0000
  H   H290      1.0  0.27216  0.73928  0.64290  1.0000
  H   H291      1.0  0.24011  0.51012  0.61527  1.0000
  H   H292      1.0  0.14344  0.84998  0.44802  1.0000
  C   C161      1.0  0.24104  0.98417  0.49795  1.0000
  C   C162      1.0  0.43453  0.60545  0.56004  1.0000
  C   C163      1.0  0.20573  0.64024  0.61379  1.0000
  C   C164      1.0  0.02976  0.78379  0.50071  1.0000
  C   C165      1.0  0.04816  0.77749  0.47556  1.0000
  C   C166      1.0  0.03118  0.76026  0.44526  1.0000
  C   C167      1.0  0.17377  0.87079  0.40179  1.0000
  H   H293      1.0  0.04220  0.79684  0.52422  1.0000
  H   H294      1.0  0.04499  0.75512  0.42557  1.0000
  H   H295      1.0  0.37569  0.55769  0.51026  1.0000
  C   C168      1.0  0.26366  0.53786  0.56930  1.0000
  C   C169      1.0  0.27064  0.53449  0.53505  1.0000
  C   C170      1.0  0.27990  0.91632  0.64013  1.0000
  H   H296      1.0  0.28379  0.55712  0.51956  1.0000
  C   C171      1.0  0.00066  0.68311  0.51242  1.0000
  C   C172      1.0  0.26979  0.73802  0.52915  1.0000
  C   C173      1.0  0.28646  0.76225  0.55567  1.0000
  C   C174      1.0  0.27725  0.78629  0.56472  1.0000
  C   C175      1.0  0.25086  0.78620  0.54795  1.0000
  C   C176      1.0  0.23356  0.76139  0.52199  1.0000
  C   C177      1.0  0.24316  0.73765  0.51255  1.0000
  H   H297      1.0  0.30714  0.76313  0.56856  1.0000
  H   H298      1.0  0.29121  0.80559  0.58439  1.0000
  H   H299      1.0  0.21335  0.76098  0.50869  1.0000
  H   H300      1.0  0.23013  0.71919  0.49191  1.0000
  H   H301      1.0  0.29043  0.92510  0.61415  1.0000
  H   H302      1.0  0.33953  0.58330  0.47412  1.0000
  H   H303      1.0  0.19129  0.96163  0.36165  1.0000
  N   N10       1.0  0.36855  0.55965  0.56483  1.0000
  C   C178      1.0  0.36205  0.58138  0.58995  1.0000
  C   C179      1.0  0.36067  0.60217  0.65032  1.0000
  H   H304      1.0  0.05005  0.84273  0.43176  1.0000
  C   C180      1.0  0.09814  0.85098  0.40920  1.0000
  H   H305      1.0  0.37891  0.60932  0.58468  1.0000
  H   H306      1.0  0.33008  0.49565  0.52314  1.0000
  H   H307      1.0  0.43544  0.61069  0.53275  1.0000
  C   C181      1.0  0.11397  0.88549  0.46202  1.0000
  H   H308      1.0  0.12922  0.92858  0.41725  1.0000
  H   H309      1.0  0.09069  0.82664  0.42174  1.0000
  C   C182      1.0  0.23616  0.97409  0.46359  1.0000
  C   C183      1.0  0.15486  0.87413  0.43356  1.0000
  H   H310      1.0  0.26580  0.49933  0.49412  1.0000
  C   C184      1.0  0.99494  0.77269  0.49572  1.0000
  H   H311      1.0  0.15862  0.93898  0.47278  1.0000
  H   H312      1.0  0.15700  0.90619  0.49705  1.0000
  H   H313      1.0  0.09664  0.55294  0.49706  1.0000
  H   H314      1.0  0.40893  0.55136  0.54846  1.0000
  H   H315      1.0  0.34977  0.60476  0.53419  1.0000
  H   H316      1.0  0.15434  0.96564  0.36449  1.0000
  H   H317      1.0  0.07640  0.54206  0.53859  1.0000
  H   H318      1.0  0.18312  0.83384  0.42311  1.0000
  H   H319      1.0  0.46402  0.77138  0.52291  1.0000
  H   H320      1.0  0.11012  0.93437  0.50618  1.0000
  C   C185      1.0  0.36890  0.60054  0.52070  1.0000
  H   H321      1.0  0.24009  0.80961  0.63802  1.0000
  C   C186      1.0  0.16372  0.94903  0.35493  1.0000
  C   C187      1.0  0.45283  0.82379  0.58320  1.0000
  C   C188      1.0  0.19797  0.85958  0.41124  1.0000
  H   H322      1.0  0.10664  0.58679  0.52865  1.0000
  H   H323      1.0  0.31688  0.51674  0.57755  1.0000
  H   H324      1.0  0.10610  0.84775  0.38316  1.0000
  H   H325      1.0  0.02303  0.68033  0.51371  1.0000
  H   H326      1.0  0.47045  0.85151  0.59068  1.0000
  H   H327      1.0  0.46136  0.81870  0.55814  1.0000
  C   C189      1.0  0.48436  0.76652  0.52438  1.0000
  H   H328      1.0  0.21778  0.87881  0.42916  1.0000
  C   C190      1.0  0.14105  0.91452  0.48609  1.0000
  C   C191      1.0  0.12368  0.92259  0.51555  1.0000
  C   C192      1.0  0.34062  0.49447  0.54739  1.0000
  H   H329      1.0  0.12218  0.53021  0.53322  1.0000
  H   H330      1.0  0.15537  0.85134  0.38318  1.0000
  C   C193      1.0  0.14275  0.91532  0.40922  1.0000
  H   H331      1.0  0.20968  0.66608  0.61884  1.0000
  H   H332      1.0  0.10122  0.86063  0.47567  1.0000
  C   C194      1.0  0.27546  0.88147  0.64557  1.0000
  H   H333      1.0  0.14532  0.76798  0.63078  1.0000
  C   C195      1.0  0.26031  0.50164  0.52067  1.0000
  C   C196      1.0  0.36148  0.56449  0.52913  1.0000
  H   H334      1.0  0.33527  0.57496  0.58716  1.0000
  N   N11       1.0  0.19672  0.58629  0.53067  1.0000
  C   C197      1.0  0.20255  0.59858  0.56733  1.0000
  C   C198      1.0  0.19643  0.55333  0.52613  1.0000
  C   C199      1.0  0.22691  0.61403  0.51020  1.0000
  C   C200      1.0  0.16416  0.58151  0.51729  1.0000
  C   C201      1.0  0.13010  0.55755  0.53722  1.0000
  C   C202      1.0  0.20494  0.63310  0.57555  1.0000
  C   C203      1.0  0.22997  0.60415  0.47262  1.0000
  H   H335      1.0  0.43384  0.77336  0.60165  1.0000
  H   H336      1.0  0.34720  0.55105  0.63631  1.0000
  C   C204      1.0  0.10074  0.56008  0.52450  1.0000
  C   C205      1.0  0.25816  0.63563  0.45338  1.0000
  H   H337      1.0  0.22691  0.60183  0.57592  1.0000
  H   H338      1.0  0.18212  0.57899  0.58424  1.0000
  H   H339      1.0  0.18436  0.53994  0.50165  1.0000
  H   H340      1.0  0.22345  0.55956  0.52422  1.0000
  H   H341      1.0  0.25179  0.62246  0.52234  1.0000
  H   H342      1.0  0.22588  0.63759  0.50984  1.0000
  H   H343      1.0  0.16722  0.60704  0.51499  1.0000
  H   H344      1.0  0.15956  0.57047  0.49100  1.0000
  H   H345      1.0  0.13244  0.56429  0.56468  1.0000
  H   H346      1.0  0.39281  0.58407  0.63270  1.0000
  H   H347      1.0  0.22893  0.65516  0.56426  1.0000
  H   H348      1.0  0.18250  0.63257  0.56579  1.0000
  H   H349      1.0  0.20557  0.59371  0.45903  1.0000
  H   H350      1.0  0.23676  0.58440  0.47108  1.0000
  H   H351      1.0  0.01617  0.82452  0.38043  1.0000
  H   H352      1.0  0.44686  0.73698  0.61667  1.0000
  C   C206      1.0  0.34349  0.52213  0.57365  1.0000
  C   C207      1.0  0.24592  0.50792  0.58880  1.0000
  H   H353      1.0  0.43555  0.67737  0.61129  1.0000
  C   C208      1.0  0.36642  0.57769  0.62791  1.0000
  C   C209      1.0  0.47800  0.72149  0.63852  1.0000
  H   H354      1.0  0.15502  0.52350  0.56511  1.0000
  H   H355      1.0  0.26035  0.62778  0.42686  1.0000
  H   H356      1.0  0.25183  0.65568  0.45283  1.0000
  H   H357      1.0  0.28356  0.64713  0.46548  1.0000
  H   H358      1.0  0.07042  0.87705  0.40189  1.0000
  H   H359      1.0  0.26987  0.69963  0.64883  1.0000
  H   H360      1.0  0.47792  0.69302  0.59278  1.0000
  C   C210      1.0  0.06459  0.85093  0.40717  1.0000
  H   H361      1.0  0.43162  0.62448  0.57536  1.0000
  H   H362      1.0  0.18090  0.62039  0.62599  1.0000
  H   H363      1.0  0.38528  0.60037  0.46811  1.0000
  C   C211      1.0  0.14180  0.91303  0.36989  1.0000
  H   H364      1.0  0.22285  0.94704  0.45655  1.0000
  H   H365      1.0  0.11493  0.90111  0.36130  1.0000
  H   H366      1.0  0.05313  0.83376  0.35426  1.0000
  H   H367      1.0  0.22719  0.64005  0.62521  1.0000
  H   H368      1.0  0.21147  0.85766  0.38812  1.0000
  H   H369      1.0  0.17014  0.93380  0.41665  1.0000
  C   C212      1.0  0.04078  0.82549  0.37974  1.0000
  H   H370      1.0  0.15147  0.89728  0.35882  1.0000
  H   H371      1.0  0.39495  0.62181  0.52840  1.0000
  H   H372      1.0  0.37102  0.62928  0.47780  1.0000
  H   H373      1.0  0.40875  0.56056  0.59215  1.0000
  N   N12       1.0  0.12760  0.88180  0.42764  1.0000
  C   C213      1.0  0.19247  0.80059  0.65865  1.0000
  C   C214      1.0  0.17049  0.77062  0.63377  1.0000
  H   H374      1.0  0.33374  0.54628  0.52332  1.0000
  C   C215      1.0  0.46301  0.68809  0.61701  1.0000
  H   H375      1.0  0.14367  0.94124  0.53365  1.0000
  H   H376      1.0  0.09362  0.89108  0.45913  1.0000
  C   C216      1.0  0.99652  0.74960  0.44009  1.0000
  H   H377      1.0  0.17555  0.89456  0.44972  1.0000
  H   H378      1.0  0.25467  0.91405  0.64288  1.0000
  H   H379      1.0  0.19005  0.89628  0.38973  1.0000
  H   H380      1.0  0.10481  0.89869  0.52922  1.0000
  H   H381      1.0  0.16534  0.74592  0.64327  1.0000
  H   H382      1.0  0.18369  0.77549  0.60855  1.0000
  C   C217      1.0  0.47497  0.74876  0.62027  1.0000
  H   H383      1.0  0.29988  0.83793  0.63674  1.0000
  H   H384      1.0  0.35040  0.51651  0.59803  1.0000
  S   S47       1.0  0.36909  0.73750  0.65675  1.0000
  H   H385      1.0  0.19723  0.53546  0.57625  1.0000
  H   H386      1.0  0.42639  0.81831  0.58071  1.0000
  C   C218      1.0  0.45228  0.80056  0.60988  1.0000
  H   H387      1.0  0.03465  0.79905  0.38408  1.0000
  H   H388      1.0  0.25920  0.86338  0.62495  1.0000
  H   H389      1.0  0.30158  0.88589  0.64349  1.0000
  C   C219      1.0  0.17917  0.52666  0.55482  1.0000
  H   H390      1.0  0.19629  0.82442  0.64825  1.0000
  H   H391      1.0  0.36604  0.49787  0.54197  1.0000
  H   H392      1.0  0.47443  0.59384  0.55303  1.0000
  H   H393      1.0  0.27959  0.79516  0.65260  1.0000
  S   S48       1.0  0.12890  0.82536  0.65010  1.0000
  H   H394      1.0  0.38071  0.62958  0.64489  1.0000
  H   H395      1.0  0.44219  0.80564  0.63391  1.0000
  H   H396      1.0  0.99173  0.68454  0.53866  1.0000
  C   C220      1.0  0.46959  0.61173  0.56831  1.0000
  H   H397      1.0  0.00955  0.70768  0.49973  1.0000
  H   H398      1.0  0.34116  0.82009  0.64064  1.0000
  H   H399      1.0  0.46439  0.66852  0.63092  1.0000
  H   H400      1.0  0.47073  0.60805  0.59569  1.0000
  H   H401      1.0  0.33468  0.59732  0.64614  1.0000
  C   C221      1.0  0.47582  0.73246  0.52590  1.0000
  H   H402      1.0  0.19377  0.49274  0.53047  1.0000
  C   C222      1.0  0.17070  0.49095  0.54252  1.0000
  C   C223      1.0  0.29780  0.82307  0.65890  1.0000
  H   H403      1.0  0.29813  0.93619  0.65869  1.0000
  H   H404      1.0  0.33705  0.66369  0.65804  1.0000
  H   H405      1.0  0.16204  0.94684  0.32687  1.0000
  H   H406      1.0  0.30886  0.74076  0.65877  1.0000
  Fe  Fe25      1.0  0.32899  0.70074  0.87589  1.0000
  S   S49       1.0  0.29614  0.64892  0.84950  1.0000
  S   S50       1.0  0.31931  0.74490  0.87310  1.0000
  Fe  Fe26      1.0  0.38483  0.68589  0.89231  1.0000
  S   S51       1.0  0.35481  0.63251  0.86756  1.0000
  S   S52       1.0  0.43687  0.69990  0.91350  1.0000
  Fe  Fe27      1.0  0.34552  0.65804  0.82661  1.0000
  S   S53       1.0  0.34572  0.63824  0.77362  1.0000
  Fe  Fe28      1.0  0.30705  0.62577  0.89232  1.0000
  S   S54       1.0  0.25928  0.57274  0.90673  1.0000
  S   S55       1.0  0.37843  0.71171  0.84902  1.0000
  S   S56       1.0  0.33712  0.67756  0.92116  1.0000
  Fe  Fe29      1.0  0.18757  0.81444  0.89356  1.0000
  S   S57       1.0  0.14732  0.80846  0.85798  1.0000
  S   S58       1.0  0.19543  0.76945  0.89876  1.0000
  Fe  Fe30      1.0  0.20535  0.88686  0.92014  1.0000
  S   S59       1.0  0.16727  0.88561  0.88579  1.0000
  S   S60       1.0  0.23564  0.92787  0.96225  1.0000
  Fe  Fe31      1.0  0.13003  0.83019  0.90119  1.0000
  S   S61       1.0  0.07460  0.81725  0.91201  1.0000
  Fe  Fe32      1.0  0.18688  0.86372  0.84536  1.0000
  S   S62       1.0  0.20323  0.88588  0.79226  1.0000
  S   S63       1.0  0.16733  0.83236  0.93763  1.0000
  S   S64       1.0  0.22804  0.86880  0.87878  1.0000
  C   C224      1.0  0.22269  0.50125  0.90524  1.0000
  H   H407      1.0  0.07563  0.82247  0.72635  1.0000
  H   H408      1.0  0.20073  0.71125  0.90926  1.0000
  H   H409      1.0  0.24682  0.73637  0.75320  1.0000
  C   C225      1.0  0.03716  0.76003  0.95391  1.0000
  C   C226      1.0  0.03932  0.78823  0.93927  1.0000
  C   C227      1.0  0.07075  0.80583  0.81434  1.0000
  H   H410      1.0  0.28231  0.81569  0.71096  1.0000
  H   H411      1.0  0.33795  0.92749  0.93030  1.0000
  C   C228      1.0  0.15105  0.84196  0.68899  1.0000
  C   C229      1.0  0.13808  0.82125  0.71776  1.0000
  C   C230      1.0  0.15393  0.83403  0.74948  1.0000
  C   C231      1.0  0.18273  0.86791  0.75285  1.0000
  C   C232      1.0  0.19600  0.88840  0.72399  1.0000
  C   C233      1.0  0.18032  0.87553  0.69223  1.0000
  H   H412      1.0  0.11571  0.79509  0.71538  1.0000
  H   H413      1.0  0.14386  0.81778  0.77131  1.0000
  H   H414      1.0  0.21836  0.91461  0.72628  1.0000
  C   C234      1.0  0.05361  0.74864  0.83919  1.0000
  C   C235      1.0  0.35223  0.66635  0.74179  1.0000
  C   C236      1.0  0.34168  0.65283  0.70899  1.0000
  C   C237      1.0  0.34607  0.67456  0.68304  1.0000
  C   C238      1.0  0.36167  0.71002  0.68968  1.0000
  C   C239      1.0  0.37144  0.72348  0.72269  1.0000
  C   C240      1.0  0.36674  0.70163  0.74880  1.0000
  H   H415      1.0  0.32947  0.62535  0.70385  1.0000
  H   H416      1.0  0.03157  0.82877  0.75793  1.0000
  H   H417      1.0  0.38257  0.75070  0.72814  1.0000
  H   H418      1.0  0.37449  0.71206  0.77424  1.0000
  C   C241      1.0  0.25539  0.53219  0.90914  1.0000
  C   C242      1.0  0.28340  0.52998  0.91691  1.0000
  H   H419      1.0  0.28177  0.51021  0.84197  1.0000
  H   H420      1.0  0.23902  0.71570  0.69444  1.0000
  C   C243      1.0  0.31264  0.77952  0.96574  1.0000
  C   C244      1.0  0.01196  0.79319  0.94554  1.0000
  H   H421      1.0  0.23497  0.86770  0.68336  1.0000
  H   H422      1.0  0.17686  0.70014  0.79185  1.0000
  H   H423      1.0  0.21381  0.69179  0.74997  1.0000
  H   H424      1.0  0.16822  0.93335  0.82064  1.0000
  C   C245      1.0  0.23016  0.76318  0.89068  1.0000
  C   C246      1.0  0.26210  0.78867  0.87674  1.0000
  C   C247      1.0  0.28883  0.78245  0.87138  1.0000
  C   C248      1.0  0.28407  0.75064  0.87960  1.0000
  C   C249      1.0  0.25192  0.72495  0.89295  1.0000
  C   C250      1.0  0.22531  0.73129  0.89860  1.0000
  H   H425      1.0  0.26629  0.81323  0.87022  1.0000
  H   H426      1.0  0.31353  0.80259  0.86106  1.0000
  H   H427      1.0  0.24769  0.70036  0.89943  1.0000
  H   H428      1.0  0.44325  0.76616  0.66627  1.0000
  C   C251      1.0  0.29038  0.85957  0.95317  1.0000
  N   N13       1.0  0.06085  0.82850  0.79891  1.0000
  H   H429      1.0  0.03856  0.77222  0.69019  1.0000
  H   H430      1.0  0.10779  0.85460  0.76765  1.0000
  H   H431      1.0  0.06916  0.74491  0.81928  1.0000
  C   C252      1.0  0.28022  0.72617  0.65939  1.0000
  H   H432      1.0  0.02603  0.77340  0.84753  1.0000
  H   H433      1.0  0.30635  0.85985  0.69983  1.0000
  H   H434      1.0  0.28164  0.55579  0.78753  1.0000
  H   H435      1.0  0.26031  0.88296  0.94806  1.0000
  C   C253      1.0  0.31024  0.91625  0.92528  1.0000
  H   H436      1.0  0.13640  0.93403  0.79630  1.0000
  H   H437      1.0  0.28005  0.84504  0.92865  1.0000
  H   H438      1.0  0.31833  0.86957  0.95195  1.0000
  H   H439      1.0  0.46822  0.83235  0.73594  1.0000
  H   H440      1.0  0.26726  0.60034  0.76359  1.0000
  H   H441      1.0  0.06959  0.76154  0.86193  1.0000
  H   H442      1.0  0.03131  0.72283  0.84665  1.0000
  C   C254      1.0  0.04336  0.83933  0.82537  1.0000
  H   H443      1.0  0.47918  0.72994  0.78573  1.0000
  C   C255      1.0  0.02662  0.77924  0.71139  1.0000
  C   C256      1.0  0.05333  0.79969  0.73881  1.0000
  H   H444      1.0  0.08789  0.80197  0.79672  1.0000
  H   H445      1.0  0.01307  0.78765  0.77579  1.0000
  H   H446      1.0  0.21888  0.68801  0.81396  1.0000
  H   H447      1.0  0.01337  0.81504  0.93478  1.0000
  H   H448      1.0  0.16398  0.77099  0.97391  1.0000
  H   H449      1.0  0.99866  0.82426  0.88183  1.0000
  H   H450      1.0  0.21312  0.51968  0.98943  1.0000
  H   H451      1.0  0.30023  0.49625  0.92892  1.0000
  H   H452      1.0  0.20080  0.50264  0.89936  1.0000
  H   H453      1.0  0.29743  0.56930  0.82987  1.0000
  C   C257      1.0  0.25239  0.97325  0.96598  1.0000
  H   H454      1.0  0.05775  0.75560  0.94932  1.0000
  H   H455      1.0  0.30384  0.90271  0.90008  1.0000
  H   H456      1.0  0.30593  0.93773  0.92469  1.0000
  C   C258      1.0  0.28490  0.83359  0.69129  1.0000
  C   C259      1.0  0.23728  0.83125  0.78760  1.0000
  H   H457      1.0  0.22507  0.79614  0.72923  1.0000
  H   H458      1.0  0.25113  0.85033  0.80859  1.0000
  H   H459      1.0  0.20996  0.82384  0.78858  1.0000
  H   H460      1.0  0.23812  0.80807  0.79165  1.0000
  H   H461      1.0  0.33605  0.78368  0.95189  1.0000
  H   H462      1.0  0.02264  0.75482  0.80526  1.0000
  C   C260      1.0  0.20070  0.72061  0.80480  1.0000
  H   H463      1.0  0.22485  0.81310  0.95462  1.0000
  N   N14       1.0  0.26469  0.70151  0.75564  1.0000
  C   C261      1.0  0.23823  0.71077  0.76323  1.0000
  C   C262      1.0  0.27115  0.70068  0.71768  1.0000
  C   C263      1.0  0.24981  0.66554  0.76851  1.0000
  C   C264      1.0  0.29806  0.72587  0.77363  1.0000
  C   C265      1.0  0.31751  0.76423  0.76376  1.0000
  C   C266      1.0  0.27849  0.49743  0.92192  1.0000
  C   C267      1.0  0.34958  0.78665  0.78520  1.0000
  H   H464      1.0  0.29745  0.70574  0.71232  1.0000
  H   H465      1.0  0.25294  0.67432  0.70654  1.0000
  H   H466      1.0  0.22332  0.64750  0.75856  1.0000
  H   H467      1.0  0.24706  0.66532  0.79663  1.0000
  H   H468      1.0  0.29386  0.72430  0.80163  1.0000
  H   H469      1.0  0.31660  0.71784  0.76846  1.0000
  H   H470      1.0  0.30093  0.77474  0.76749  1.0000
  H   H471      1.0  0.32657  0.76685  0.73693  1.0000
  C   C268      1.0  0.09352  0.86089  0.78678  1.0000
  H   H472      1.0  0.16052  0.91652  0.77766  1.0000
  H   H473      1.0  0.28085  0.75212  0.70606  1.0000
  H   H474      1.0  0.36694  0.77687  0.78291  1.0000
  H   H475      1.0  0.36407  0.81371  0.77651  1.0000
  H   H476      1.0  0.34207  0.78673  0.81225  1.0000
  H   H477      1.0  0.20971  0.74606  0.79406  1.0000
  H   H478      1.0  0.29476  0.66224  0.77573  1.0000
  H   H479      1.0  0.20970  0.82358  0.72373  1.0000
  C   C269      1.0  0.31019  0.81101  0.96221  1.0000
  C   C270      1.0  0.26688  0.72520  0.69570  1.0000
  H   H480      1.0  0.31162  0.81587  0.93476  1.0000
  H   H481      1.0  0.08694  0.87748  0.77378  1.0000
  H   H482      1.0  0.27945  0.65138  0.73311  1.0000
  H   H483      1.0  0.28132  0.85317  0.75385  1.0000
  C   C271      1.0  0.12037  0.88326  0.81437  1.0000
  C   C272      1.0  0.27127  0.64922  0.76014  1.0000
  C   C273      1.0  0.25466  0.84738  0.75373  1.0000
  C   C274      1.0  0.03816  0.81110  0.76851  1.0000
  C   C275      1.0  0.28729  0.89142  0.95308  1.0000
  H   H484      1.0  0.08663  0.81899  0.83716  1.0000
  H   H485      1.0  0.99266  0.78931  0.82941  1.0000
  C   C276      1.0  0.23355  0.82314  0.72341  1.0000
  H   H486      1.0  0.35291  0.85653  0.66896  1.0000
  C   C277      1.0  0.48358  0.81406  0.69137  1.0000
  H   H487      1.0  0.25630  0.87229  0.75267  1.0000
  H   H488      1.0  0.22251  0.77937  0.67098  1.0000
  C   C278      1.0  0.45780  0.80833  0.71999  1.0000
  H   H489      1.0  0.27688  0.88762  0.69957  1.0000
  H   H490      1.0  0.22778  0.59605  0.75185  1.0000
  H   H491      1.0  0.19050  0.89183  0.67040  1.0000
  H   H492      1.0  0.19407  0.72148  0.83203  1.0000
  H   H493      1.0  0.33218  0.81338  0.68540  1.0000
  C   C279      1.0  0.25065  0.61079  0.76826  1.0000
  H   H494      1.0  0.05296  0.84046  0.85115  1.0000
  C   C280      1.0  0.22888  0.71270  0.80114  1.0000
  N   N15       1.0  0.25160  0.83260  0.68904  1.0000
  H   H495      1.0  0.99254  0.82077  0.80440  1.0000
  H   H496      1.0  0.33322  0.83361  0.97391  1.0000
  H   H497      1.0  0.13363  0.87033  0.82129  1.0000
  H   H498      1.0  0.23059  0.49318  0.98274  1.0000
  H   H499      1.0  0.31854  0.55522  0.80039  1.0000
  H   H500      1.0  0.00406  0.75503  0.72165  1.0000
  H   H501      1.0  0.22998  0.84353  0.98684  1.0000
  C   C281      1.0  0.29310  0.55064  0.80875  1.0000
  C   C282      1.0  0.26888  0.51374  0.82097  1.0000
  H   H502      1.0  0.10841  0.88708  0.83768  1.0000
  H   H503      1.0  0.30865  0.55345  0.92023  1.0000
  C   C283      1.0  0.33318  0.82867  0.66397  1.0000
  H   H504      1.0  0.24200  0.60695  0.79528  1.0000
  H   H505      1.0  0.25180  0.73365  0.81478  1.0000
  C   C284      1.0  0.04047  0.77006  0.82617  1.0000
  H   H506      1.0  0.24867  0.49233  0.77110  1.0000
  C   C285      1.0  0.14797  0.91896  0.80132  1.0000
  H   H507      1.0  0.06164  0.78291  0.74766  1.0000
  H   H508      1.0  0.05035  0.86619  0.82116  1.0000
  C   C286      1.0  0.23424  0.82224  0.98082  1.0000
  H   H509      1.0  0.24517  0.51193  0.83109  1.0000
  H   H510      1.0  0.47206  0.73294  0.83060  1.0000
  C   C287      1.0  0.00799  0.73713  0.97418  1.0000
  H   H511      1.0  0.29506  0.90622  0.97754  1.0000
  H   H512      1.0  0.01774  0.79508  0.70114  1.0000
  H   H513      1.0  0.45288  0.78701  0.73628  1.0000
  H   H514      1.0  0.17709  0.79457  0.68255  1.0000
  C   C288      1.0  0.25900  0.86765  0.68082  1.0000
  H   H515      1.0  0.47398  0.76309  0.68793  1.0000
  H   H516      1.0  0.48019  0.70089  0.81436  1.0000
  H   H517      1.0  0.25547  0.78452  0.96054  1.0000
  H   H518      1.0  0.36233  0.59795  0.67743  1.0000
  H   H519      1.0  0.28972  0.75587  0.95477  1.0000
  C   C289      1.0  0.98964  0.82831  0.85801  1.0000
  H   H520      1.0  0.46990  0.77157  0.89083  1.0000
  C   C290      1.0  0.48084  0.73531  0.90890  1.0000
  H   H521      1.0  0.43307  0.80193  0.70923  1.0000
  C   C291      1.0  0.27571  0.80454  0.97784  1.0000
  H   H522      1.0  0.99858  0.85602  0.85668  1.0000
  C   C292      1.0  0.22778  0.80491  0.66369  1.0000
  N   N16       1.0  0.27221  0.83536  0.98219  1.0000
  C   C293      1.0  0.00319  0.81725  0.82741  1.0000
  H   H523      1.0  0.24182  0.97886  0.91508  1.0000
  C   C294      1.0  0.47151  0.77995  0.67069  1.0000
  H   H524      1.0  0.28569  0.49254  0.78106  1.0000
  H   H525      1.0  0.46336  0.71472  0.66300  1.0000
  H   H526      1.0  0.00665  0.71536  0.98517  1.0000
  S   S65       1.0  0.84706  0.12942  0.30297  1.0000
  Fe  Fe33      1.0  0.82800  0.12461  0.05091  1.0000
  S   S66       1.0  0.83132  0.16151  0.01340  1.0000
  S   S67       1.0  0.80524  0.06615  0.04274  1.0000
  Fe  Fe34      1.0  0.86192  0.18233  0.10687  1.0000
  S   S68       1.0  0.86875  0.22300  0.07166  1.0000
  S   S69       1.0  0.87850  0.20364  0.16110  1.0000
  Fe  Fe35      1.0  0.81427  0.18371  0.05625  1.0000
  S   S70       1.0  0.76818  0.19024  0.05602  1.0000
  Fe  Fe36      1.0  0.88600  0.19805  0.03203  1.0000
  C   C295      1.0  0.76509  0.47263  0.19209  1.0000
  S   S71       1.0  0.80694  0.14389  0.09263  1.0000
  S   S72       1.0  0.88319  0.16035  0.06824  1.0000
  S   S73       1.0  0.74789  0.37294  0.29053  1.0000
  Fe  Fe37      1.0  0.70115  0.39289  0.05884  1.0000
  S   S74       1.0  0.64701  0.36807  0.08097  1.0000
  S   S75       1.0  0.73975  0.44634  0.03673  1.0000
  Fe  Fe38      1.0  0.70528  0.32907  0.07241  1.0000
  S   S76       1.0  0.65197  0.29993  0.09653  1.0000
  S   S77       1.0  0.74811  0.31754  0.06600  1.0000
  Fe  Fe39      1.0  0.63512  0.31854  0.05441  1.0000
  S   S78       1.0  0.58443  0.27655  0.02977  1.0000
  Fe  Fe40      1.0  0.66631  0.35060  0.12162  1.0000
  S   S79       1.0  0.64792  0.35256  0.17478  1.0000
  S   S80       1.0  0.72093  0.37851  0.10169  1.0000
  C   C296      1.0  0.71977  0.36645  0.25843  1.0000
  C   C297      1.0  0.73035  0.36799  0.22443  1.0000
  C   C298      1.0  0.70827  0.36340  0.19850  1.0000
  C   C299      1.0  0.67584  0.35784  0.20658  1.0000
  C   C300      1.0  0.66541  0.35660  0.24055  1.0000
  C   C301      1.0  0.68718  0.36051  0.26648  1.0000
  H   H527      1.0  0.75552  0.37249  0.21817  1.0000
  H   H528      1.0  0.71636  0.36407  0.17236  1.0000
  H   H529      1.0  0.64027  0.35217  0.24682  1.0000
  H   H530      1.0  0.67878  0.35908  0.29265  1.0000
  C   C302      1.0  0.54304  0.27090  0.03480  1.0000
  C   C303      1.0  0.53920  0.29801  0.04567  1.0000
  H   H531      1.0  0.56182  0.32305  0.05221  1.0000
  C   C304      1.0  0.76384  0.22635  0.06172  1.0000
  C   C305      1.0  0.79191  0.26056  0.05875  1.0000
  C   C306      1.0  0.78659  0.28805  0.06087  1.0000
  C   C307      1.0  0.75332  0.28187  0.06651  1.0000
  C   C308      1.0  0.72547  0.24775  0.07092  1.0000
  C   C309      1.0  0.73069  0.22022  0.06822  1.0000
  H   H532      1.0  0.81756  0.26579  0.05381  1.0000
  H   H533      1.0  0.69978  0.24247  0.07571  1.0000
  C   C310      1.0  0.90623  0.10783  0.25671  1.0000
  H   H534      1.0  0.49816  0.15662  0.31825  1.0000
  H   H535      1.0  0.89607  0.27800  0.16146  1.0000
  H   H536      1.0  0.81987  0.25436  0.27232  1.0000
  H   H537      1.0  0.65761  0.45436  0.16945  1.0000
  H   H538      1.0  0.90556  0.07721  0.07358  1.0000
  C   C311      1.0  0.89019  0.29278  0.14472  1.0000
  H   H539      1.0  0.88367  0.06009  0.01568  1.0000
  H   H540      1.0  0.87648  0.09045  0.06527  1.0000
  H   H541      1.0  0.62669  0.25931  0.31111  1.0000
  H   H542      1.0  0.69946  0.47297  0.06856  1.0000
  C   C312      1.0  0.85357  0.15015  0.26392  1.0000
  C   C313      1.0  0.86906  0.18594  0.26237  1.0000
  C   C314      1.0  0.87641  0.20175  0.23071  1.0000
  C   C315      1.0  0.86759  0.18197  0.20021  1.0000
  C   C316      1.0  0.85141  0.14608  0.20175  1.0000
  C   C317      1.0  0.84478  0.13036  0.23342  1.0000
  H   H543      1.0  0.87575  0.20145  0.28556  1.0000
  H   H544      1.0  0.88899  0.22953  0.22985  1.0000
  H   H545      1.0  0.84458  0.13050  0.17856  1.0000
  H   H546      1.0  0.83290  0.10267  0.23427  1.0000
  H   H547      1.0  0.96198  0.21756  0.27851  1.0000
  H   H548      1.0  0.59059  0.14716  0.28715  1.0000
  C   C318      1.0  0.90221  0.09490  0.05856  1.0000
  C   C319      1.0  0.78143  0.00207  0.01219  1.0000
  C   C320      1.0  0.66325  0.42540  0.30551  1.0000
  C   C321      1.0  0.50620  0.29319  0.04659  1.0000
  C   C322      1.0  0.63067  0.22751  0.02447  1.0000
  C   C323      1.0  0.66332  0.43932  0.15067  1.0000
  C   C324      1.0  0.93884  0.15098  0.30492  1.0000
  C   C325      1.0  0.52164  0.24681  0.14842  1.0000
  C   C326      1.0  0.74828  0.48881  0.04418  1.0000
  H   H549      1.0  0.70170  0.42763  0.13920  1.0000
  H   H550      1.0  0.64220  0.41155  0.15219  1.0000
  H   H551      1.0  0.61127  0.29564  0.28290  1.0000
  H   H552      1.0  0.84391  0.47720  0.09279  1.0000
  H   H553      1.0  0.91750  0.09242  0.26143  1.0000
  H   H554      1.0  0.91534  0.13831  0.00927  1.0000
  H   H555      1.0  0.70879  0.19389  0.07078  1.0000
  H   H556      1.0  0.51586  0.21744  0.01770  1.0000
  H   H557      1.0  0.65357  0.27169  0.99323  1.0000
  H   H558      1.0  0.79009  0.20794  0.26729  1.0000
  H   H559      1.0  0.93007  0.09097  0.01599  1.0000
  C   C327      1.0  0.56958  0.23140  0.31379  1.0000
  N   N17       1.0  0.79190  0.23876  0.16868  1.0000
  C   C328      1.0  0.82526  0.24860  0.15018  1.0000
  C   C329      1.0  0.76380  0.20282  0.15693  1.0000
  C   C330      1.0  0.78208  0.26344  0.15826  1.0000
  C   C331      1.0  0.79488  0.24098  0.20686  1.0000
  C   C332      1.0  0.82058  0.23325  0.22175  1.0000
  C   C333      1.0  0.85511  0.28721  0.15438  1.0000
  C   C334      1.0  0.74597  0.25511  0.17064  1.0000
  C   C335      1.0  0.76863  0.17303  0.16425  1.0000
  C   C336      1.0  0.74036  0.13902  0.14764  1.0000
  H   H560      1.0  0.72881  0.31927  0.99733  1.0000
  C   C337      1.0  0.74249  0.28591  0.16644  1.0000
  H   H561      1.0  0.82081  0.24294  0.12242  1.0000
  H   H562      1.0  0.83482  0.23245  0.15775  1.0000
  H   H563      1.0  0.73854  0.19521  0.16910  1.0000
  H   H564      1.0  0.76034  0.20243  0.12914  1.0000
  H   H565      1.0  0.78291  0.26481  0.13013  1.0000
  H   H566      1.0  0.80125  0.29022  0.16767  1.0000
  H   H567      1.0  0.80304  0.26733  0.21689  1.0000
  H   H568      1.0  0.76901  0.22337  0.21890  1.0000
  H   H569      1.0  0.84767  0.25447  0.21620  1.0000
  H   H570      1.0  0.81735  0.20904  0.21114  1.0000
  H   H571      1.0  0.85095  0.30322  0.13755  1.0000
  H   H572      1.0  0.85628  0.29698  0.18082  1.0000
  H   H573      1.0  0.74115  0.24832  0.19776  1.0000
  H   H574      1.0  0.72545  0.23308  0.15537  1.0000
  H   H575      1.0  0.79384  0.17818  0.15448  1.0000
  H   H576      1.0  0.76645  0.16888  0.19191  1.0000
  H   H577      1.0  0.71444  0.13161  0.15779  1.0000
  H   H578      1.0  0.74111  0.14143  0.11971  1.0000
  H   H579      1.0  0.74452  0.11812  0.15298  1.0000
  H   H580      1.0  0.91357  0.14091  0.31860  1.0000
  H   H581      1.0  0.62714  0.20170  0.02524  1.0000
  H   H582      1.0  0.55347  0.16882  0.30546  1.0000
  H   H583      1.0  0.91077  0.32067  0.14755  1.0000
  H   H584      1.0  0.74725  0.29379  0.13961  1.0000
  H   H585      1.0  0.71595  0.27869  0.17402  1.0000
  H   H586      1.0  0.76110  0.30830  0.18271  1.0000
  H   H587      1.0  0.66389  0.44680  0.29298  1.0000
  C   C338      1.0  0.95389  0.21076  0.30546  1.0000
  H   H588      1.0  0.88162  0.09713  0.27150  1.0000
  C   C339      1.0  0.65190  0.24678  0.99308  1.0000
  H   H589      1.0  0.66386  0.44790  0.12472  1.0000
  H   H590      1.0  0.79946  0.44130  0.09406  1.0000
  H   H591      1.0  0.69933  0.26318  0.01822  1.0000
  H   H592      1.0  0.52432  0.24922  0.17640  1.0000
  H   H593      1.0  0.77609  0.46074  0.25650  1.0000
  H   H594      1.0  0.94707  0.13319  0.31082  1.0000
  N   N18       1.0  0.96502  0.18754  0.31724  1.0000
  H   H595      1.0  0.63450  0.28294  0.25471  1.0000
  H   H596      1.0  0.60477  0.22373  0.02391  1.0000
  S   S81       1.0  0.68772  0.34456  0.02818  1.0000
  H   H597      1.0  0.56724  0.25341  0.32280  1.0000
  H   H598      1.0  0.71554  0.04132  0.01453  1.0000
  C   C340      1.0  0.60438  0.24639  0.29411  1.0000
  H   H599      1.0  0.97813  0.22560  0.03525  1.0000
  H   H600      1.0  0.65348  0.40310  0.28725  1.0000
  C   C341      1.0  0.81618  0.23031  0.26028  1.0000
  H   H601      1.0  0.55598  0.27262  0.10511  1.0000
  C   C342      1.0  0.69776  0.44375  0.15815  1.0000
  H   H602      1.0  0.56195  0.30133  0.14084  1.0000
  H   H603      1.0  0.97002  0.16058  0.99417  1.0000
  H   H604      1.0  0.80840  0.31431  0.05758  1.0000
  C   C343      1.0  0.95763  0.26801  0.30851  1.0000
  C   C344      1.0  0.51325  0.23858  0.02626  1.0000
  H   H605      1.0  0.69524  0.43337  0.18363  1.0000
  H   H606      1.0  0.89042  0.28436  0.11797  1.0000
  H   H607      1.0  0.92508  0.19659  0.30597  1.0000
  H   H608      1.0  0.92026  0.16052  0.25867  1.0000
  C   C345      1.0  0.77288  0.47549  0.13041  1.0000
  H   H609      1.0  0.75657  0.44680  0.12985  1.0000
  C   C346      1.0  0.79088  0.03628  0.00733  1.0000
  H   H610      1.0  0.74922  0.44388  0.18859  1.0000
  C   C347      1.0  0.55623  0.27523  0.13316  1.0000
  H   H611      1.0  0.54967  0.21696  0.29421  1.0000
  H   H612      1.0  0.50378  0.31470  0.05392  1.0000
  H   H613      1.0  0.58846  0.26186  0.25075  1.0000
  H   H614      1.0  0.83567  0.22619  0.27050  1.0000
  C   C348      1.0  0.93161  0.14598  0.26630  1.0000
  H   H615      1.0  0.60451  0.22542  0.27920  1.0000
  H   H616      1.0  0.68992  0.43390  0.31231  1.0000
  H   H617      1.0  0.49757  0.19531  0.31558  1.0000
  C   C349      1.0  0.75171  0.45997  0.25467  1.0000
  H   H618      1.0  0.97134  0.27564  0.28354  1.0000
  C   C350      1.0  0.49161  0.25059  0.13851  1.0000
  C   C351      1.0  0.60980  0.27329  0.26910  1.0000
  H   H619      1.0  0.81737  0.47549  0.14871  1.0000
  H   H620      1.0  0.57742  0.27303  0.14218  1.0000
  H   H621      1.0  0.64364  0.24267  0.04788  1.0000
  H   H622      1.0  0.78312  0.99456  0.03720  1.0000
  C   C352      1.0  0.75421  0.48257  0.22620  1.0000
  H   H623      1.0  0.90026  0.10523  0.22938  1.0000
  H   H624      1.0  0.49795  0.27566  0.15072  1.0000
  H   H625      1.0  0.92273  0.12201  0.06553  1.0000
  C   C353      1.0  0.72789  0.48236  0.15670  1.0000
  C   C354      1.0  0.59705  0.14910  0.31426  1.0000
  H   H626      1.0  0.73005  0.43280  0.25006  1.0000
  H   H627      1.0  0.92936  0.25447  0.30474  1.0000
  C   C355      1.0  0.68800  0.25199  0.99299  1.0000
  C   C356      1.0  0.90457  0.08752  0.02078  1.0000
  H   H628      1.0  0.51730  0.22153  0.13994  1.0000
  H   H629      1.0  0.81153  0.48001  0.07208  1.0000
  H   H630      1.0  0.73120  0.22716  0.99576  1.0000
  H   H631      1.0  0.76674  0.48297  0.10677  1.0000
  C   C357      1.0  0.81669  0.47000  0.09455  1.0000
  H   H632      1.0  0.95555  0.15485  0.25097  1.0000
  H   H633      1.0  0.87239  0.10354  0.00371  1.0000
  C   C358      1.0  0.89958  0.11132  0.99881  1.0000
  C   C359      1.0  0.81087  0.48545  0.12725  1.0000
  H   H634      1.0  0.79182  0.47921  0.19560  1.0000
  H   H635      1.0  0.75885  0.28939  0.99450  1.0000
  H   H636      1.0  0.65288  0.99538  0.00275  1.0000
  H   H637      1.0  0.74671  0.46931  0.27928  1.0000
  H   H638      1.0  0.72870  0.47938  0.22480  1.0000
  H   H639      1.0  0.49401  0.25489  0.11071  1.0000
  H   H640      1.0  0.62242  0.15180  0.31560  1.0000
  H   H641      1.0  0.62006  0.20389  0.31890  1.0000
  H   H642      1.0  0.96608  0.29181  0.32429  1.0000
  N   N19       1.0  0.76368  0.48979  0.16118  1.0000
  Fe  Fe41      1.0  0.89781  0.19614  0.41628  1.0000
  S   S82       1.0  0.85255  0.18932  0.44760  1.0000
  S   S83       1.0  0.95623  0.23440  0.42558  1.0000
  Fe  Fe42      1.0  0.85029  0.15210  0.35647  1.0000
  S   S84       1.0  0.80210  0.14163  0.38438  1.0000
  Fe  Fe43      1.0  0.83316  0.19809  0.39998  1.0000
  S   S85       1.0  0.82178  0.23906  0.38740  1.0000
  Fe  Fe44      1.0  0.82449  0.13284  0.42970  1.0000
  S   S86       1.0  0.78919  0.09068  0.46783  1.0000
  S   S87       1.0  0.88026  0.20852  0.36975  1.0000
  S   S88       1.0  0.87085  0.13943  0.40063  1.0000
  Fe  Fe45      1.0  0.72379  0.39661  0.41035  1.0000
  S   S89       1.0  0.68062  0.34538  0.43123  1.0000
  S   S90       1.0  0.74882  0.44758  0.44143  1.0000
  H   H643      1.0  0.92629  0.30639  0.56078  1.0000
  S   S91       1.0  0.67919  0.31006  0.35689  1.0000
  Fe  Fe46      1.0  0.65430  0.33660  0.38160  1.0000
  S   S92       1.0  0.59918  0.32125  0.36927  1.0000
  Fe  Fe47      1.0  0.70870  0.32240  0.40496  1.0000
  S   S93       1.0  0.71296  0.28067  0.42911  1.0000
  S   S94       1.0  0.69613  0.38913  0.36256  1.0000
  S   S95       1.0  0.75372  0.37413  0.38859  1.0000
  C   C360      1.0  0.52802  0.28477  0.36810  1.0000
  C   C361      1.0  0.55689  0.29177  0.38624  1.0000
  C   C362      1.0  0.55122  0.27483  0.41662  1.0000
  H   H644      1.0  0.94228  0.33035  0.39108  1.0000
  H   H645      1.0  0.57304  0.27997  0.43100  1.0000
  C   C363      1.0  0.78951  0.24823  0.39783  1.0000
  C   C364      1.0  0.79182  0.27645  0.38263  1.0000
  C   C365      1.0  0.76829  0.28629  0.39144  1.0000
  C   C366      1.0  0.74218  0.26814  0.41584  1.0000
  C   C367      1.0  0.73964  0.23968  0.43083  1.0000
  C   C368      1.0  0.76297  0.22959  0.42171  1.0000
  H   H646      1.0  0.81217  0.29106  0.36408  1.0000
  H   H647      1.0  0.77063  0.30820  0.37964  1.0000
  H   H648      1.0  0.71951  0.22536  0.44965  1.0000
  H   H649      1.0  0.76060  0.20761  0.43334  1.0000
  C   C369      1.0  0.78162  0.04925  0.47624  1.0000
  C   C370      1.0  0.79674  0.03453  0.45671  1.0000
  H   H650      1.0  0.80856  0.29342  0.46225  1.0000
  C   C371      1.0  0.75949  0.03049  0.50358  1.0000
  H   H651      1.0  0.81383  0.04852  0.43565  1.0000
  H   H652      1.0  0.74789  0.04168  0.51911  1.0000
  H   H653      1.0  0.85815  0.25142  0.47472  1.0000
  H   H654      1.0  0.74389  0.47193  0.37579  1.0000
  C   C372      1.0  0.83065  0.32061  0.45997  1.0000
  C   C373      1.0  0.84700  0.26744  0.47868  1.0000
  C   C374      1.0  0.90282  0.32933  0.53516  1.0000
  H   H655      1.0  0.60874  0.22085  0.45198  1.0000
  H   H656      1.0  0.88939  0.26385  0.42793  1.0000
  H   H657      1.0  0.98073  0.14992  0.42092  1.0000
  H   H658      1.0  0.90757  0.33922  0.43547  1.0000
  H   H659      1.0  0.88226  0.35580  0.47900  1.0000
  N   N20       1.0  0.56325  0.20863  0.34312  1.0000
  C   C375      1.0  0.58945  0.23028  0.36999  1.0000
  H   H660      1.0  0.53202  0.29767  0.34457  1.0000
  C   C376      1.0  0.49714  0.17703  0.33323  1.0000
  C   C377      1.0  0.65199  0.44498  0.36308  1.0000
  H   H661      1.0  0.65139  0.43893  0.46896  1.0000
  C   C378      1.0  0.58257  0.21331  0.40487  1.0000
  H   H662      1.0  0.93844  0.18050  0.36539  1.0000
  H   H663      1.0  0.64106  0.38891  0.49893  1.0000
  H   H664      1.0  0.62355  0.26028  0.43027  1.0000
  H   H665      1.0  0.57651  0.44602  0.38907  1.0000
  C   C379      1.0  0.59924  0.18053  0.33174  1.0000
  H   H666      1.0  0.52142  0.17923  0.37939  1.0000
  H   H667      1.0  0.59103  0.25506  0.37479  1.0000
  H   H668      1.0  0.61592  0.23840  0.36131  1.0000
  H   H669      1.0  0.70941  0.01401  0.36717  1.0000
  H   H670      1.0  0.92923  0.29894  0.44526  1.0000
  H   H671      1.0  0.80179  0.99069  0.44923  1.0000
  H   H672      1.0  0.96977  0.15070  0.62597  1.0000
  H   H673      1.0  0.90229  0.29407  0.37403  1.0000
  H   H674      1.0  0.58867  0.38624  0.38316  1.0000
  C   C380      1.0  0.48822  0.24368  0.41008  1.0000
  H   H675      1.0  0.67559  0.43122  0.41443  1.0000
  H   H676      1.0  0.56164  0.21422  0.41890  1.0000
  H   H677      1.0  0.57445  0.18583  0.40195  1.0000
  Fe  Fe48      1.0  0.72254  0.36304  0.34217  1.0000
  C   C381      1.0  0.57739  0.42554  0.37398  1.0000
  H   H678      1.0  0.60933  0.40140  0.46001  1.0000
  H   H679      1.0  0.90763  0.29338  0.50140  1.0000
  C   C382      1.0  0.93060  0.33230  0.55749  1.0000
  H   H680      1.0  0.63227  0.36401  0.45987  1.0000
  N   N21       1.0  0.87491  0.30529  0.47561  1.0000
  C   C383      1.0  0.97569  0.16845  0.40996  1.0000
  H   H681      1.0  0.63603  0.23096  0.41465  1.0000
  H   H682      1.0  0.90751  0.35561  0.53374  1.0000
  C   C384      1.0  0.92310  0.30204  0.39243  1.0000
  H   H683      1.0  0.64959  0.46494  0.35113  1.0000
  C   C385      1.0  0.64693  0.41772  0.41680  1.0000
  H   H684      1.0  0.85180  0.32669  0.50890  1.0000
  C   C386      1.0  0.78985  0.00167  0.46453  1.0000
  C   C387      1.0  0.54017  0.39653  0.36617  1.0000
  C   C388      1.0  0.75273  0.99772  0.51146  1.0000
  H   H685      1.0  0.83885  0.32564  0.43296  1.0000
  H   H686      1.0  0.77724  0.21548  0.49246  1.0000
  H   H687      1.0  0.93633  0.28840  0.38520  1.0000
  H   H688      1.0  0.79579  0.33778  0.45402  1.0000
  H   H689      1.0  0.52751  0.40701  0.35236  1.0000
  C   C389      1.0  0.64195  0.46885  0.41577  1.0000
  H   H690      1.0  0.53971  0.37585  0.35003  1.0000
  H   H691      1.0  0.80524  0.20114  0.50284  1.0000
  C   C390      1.0  0.63739  0.41345  0.45528  1.0000
  C   C391      1.0  0.51713  0.25095  0.42837  1.0000
  C   C392      1.0  0.82687  0.25626  0.51290  1.0000
  H   H692      1.0  0.51310  0.23786  0.45179  1.0000
  H   H693      1.0  0.81630  0.27219  0.52067  1.0000
  H   H694      1.0  0.84400  0.25798  0.53279  1.0000
  H   H695      1.0  0.82809  0.25877  0.45812  1.0000
  H   H696      1.0  0.94992  0.21025  0.49529  1.0000
  C   C393      1.0  0.90442  0.31549  0.49896  1.0000
  H   H697      1.0  0.52738  0.21917  0.36889  1.0000
  C   C394      1.0  0.79636  0.21857  0.51080  1.0000
  C   C395      1.0  0.64719  0.39059  0.47132  1.0000
  H   H698      1.0  0.92943  0.33661  0.48783  1.0000
  H   H699      1.0  0.92952  0.34314  0.58290  1.0000
  H   H700      1.0  0.58242  0.40580  0.41963  1.0000
  H   H701      1.0  0.95126  0.16415  0.42145  1.0000
  H   H702      1.0  0.86820  0.30224  0.42121  1.0000
  H   H703      1.0  0.83812  0.37144  0.46820  1.0000
  H   H704      1.0  0.63898  0.39256  0.34819  1.0000
  C   C396      1.0  0.86104  0.32818  0.48229  1.0000
  C   C397      1.0  0.90779  0.29230  0.42829  1.0000
  H   H705      1.0  0.54606  0.15471  0.34765  1.0000
  H   H706      1.0  0.87748  0.31260  0.54799  1.0000
  C   C398      1.0  0.81730  0.34369  0.47065  1.0000
  H   H707      1.0  0.78326  0.21061  0.53602  1.0000
  H   H708      1.0  0.63691  0.39140  0.40547  1.0000
  C   C399      1.0  0.88913  0.31102  0.43961  1.0000
  H   H709      1.0  0.67534  0.40169  0.46786  1.0000
  H   H710      1.0  0.80720  0.33880  0.49720  1.0000
  C   C400      1.0  0.97694  0.22896  0.48964  1.0000
  C   C401      1.0  0.61471  0.23259  0.42669  1.0000
  H   H711      1.0  0.52517  0.38508  0.38999  1.0000
  H   H712      1.0  0.68035  0.45734  0.36587  1.0000
  H   H713      1.0  0.95203  0.13551  0.36644  1.0000
  H   H714      1.0  0.95675  0.34971  0.54608  1.0000
  C   C402      1.0  0.59539  0.41186  0.39427  1.0000
  C   C403      1.0  0.52778  0.19671  0.35795  1.0000
  H   H715      1.0  0.60736  0.18209  0.35814  1.0000
  C   C404      1.0  0.96441  0.18755  0.35548  1.0000
  N   N22       1.0  0.63405  0.43593  0.39746  1.0000
  H   H716      1.0  0.98244  0.21382  0.36639  1.0000
  H   H717      1.0  0.62723  0.46305  0.44027  1.0000
  H   H718      1.0  0.95213  0.23861  0.35136  1.0000
  C   C405      1.0  0.97286  0.16296  0.37149  1.0000
  H   H719      1.0  0.69311  0.48473  0.43533  1.0000
  C   C406      1.0  0.56383  0.17718  0.33152  1.0000
  H   H720      1.0  0.63298  0.48232  0.40092  1.0000
  C   C407      1.0  0.76112  0.48886  0.42685  1.0000
  H   H721      1.0  0.59098  0.43666  0.34961  1.0000
  H   H722      1.0  0.69369  0.99515  0.42556  1.0000
  C   C408      1.0  0.63959  0.41439  0.33703  1.0000
  C   C409      1.0  0.49394  0.26086  0.37983  1.0000
  H   H723      1.0  0.98469  0.14316  0.58564  1.0000
  H   H724      1.0  0.61311  0.40461  0.32855  1.0000
  C   C410      1.0  0.96586  0.24474  0.32643  1.0000
  H   H725      1.0  0.57718  0.12494  0.32700  1.0000
  H   H726      1.0  0.77619  0.02854  0.92244  1.0000
  H   H727      1.0  0.87676  0.07664  0.91888  1.0000
  C   C411      1.0  0.77794  0.24365  0.96744  1.0000
  H   H728      1.0  0.91643  0.16179  0.95808  1.0000
  H   H729      1.0  0.84672  0.10201  0.92962  1.0000
  C   C412      1.0  0.77767  0.02100  0.94749  1.0000
  H   H730      1.0  0.94891  0.10244  0.96408  1.0000
  H   H731      1.0  0.87739  0.17990  0.94032  1.0000
  H   H732      1.0  0.87164  0.15740  0.89989  1.0000
  H   H733      1.0  0.91159  0.14017  0.91813  1.0000
  C   C413      1.0  0.66061  0.24768  0.88192  1.0000
  C   C414      1.0  0.72200  0.31043  0.97044  1.0000
  H   H734      1.0  0.69918  0.31176  0.96613  1.0000
  C   C415      1.0  0.90145  0.13605  0.94479  1.0000
  C   C416      1.0  0.86099  0.01145  0.93592  1.0000
  C   C417      1.0  0.75265  0.33812  0.94857  1.0000
  H   H735      1.0  0.90204  0.04647  0.96901  1.0000
  C   C418      1.0  0.86187  0.15462  0.92650  1.0000
  H   H736      1.0  0.75154  0.32871  0.92200  1.0000
  C   C419      1.0  0.67831  0.27018  0.91344  1.0000
  H   H737      1.0  0.72620  0.22176  0.95048  1.0000
  H   H738      1.0  0.83464  0.14736  0.92641  1.0000
  H   H739      1.0  0.65810  0.26908  0.93047  1.0000
  H   H740      1.0  0.94732  0.11936  0.92559  1.0000
  C   C420      1.0  0.97302  0.23995  0.98594  1.0000
  C   C421      1.0  0.86365  0.12670  0.94384  1.0000
  H   H741      1.0  0.97696  0.25715  0.93517  1.0000
  H   H742      1.0  0.77750  0.34465  0.95921  1.0000
  H   H743      1.0  0.86943  0.99300  0.93330  1.0000
  H   H744      1.0  0.64624  0.25721  0.86960  1.0000
  H   H745      1.0  0.72938  0.36692  0.93715  1.0000
  C   C422      1.0  0.88140  0.07465  0.94589  1.0000
  H   H746      1.0  0.84953  0.01117  0.91164  1.0000
  H   H747      1.0  0.68002  0.24881  0.86342  1.0000
  C   C423      1.0  0.78858  0.04546  0.97479  1.0000
  C   C424      1.0  0.94340  0.12075  0.95353  1.0000
  N   N23       1.0  0.90659  0.11023  0.96123  1.0000
  C   C425      1.0  0.75319  0.37159  0.94859  1.0000
  H   H748      1.0  0.91226  0.05471  0.92489  1.0000
  C   C426      1.0  0.74643  0.27506  0.97043  1.0000
  C   C427      1.0  0.74276  0.23953  0.97114  1.0000
  H   H749      1.0  0.85574  0.06290  0.95907  1.0000
  H   H750      1.0  0.79490  0.07132  0.97070  1.0000
  H   H751      1.0  0.77590  0.39126  0.93359  1.0000
  N   N24       1.0  0.71348  0.27393  0.96551  1.0000
  H   H752      1.0  0.78942  0.25278  0.94182  1.0000
  H   H753      1.0  0.76562  0.28980  0.94989  1.0000
  H   H754      1.0  0.69533  0.29730  0.90524  1.0000
  H   H755      1.0  0.72139  0.26440  0.91256  1.0000
  H   H756      1.0  0.97092  0.17780  0.95381  1.0000
  H   H757      1.0  0.77479  0.21831  0.97111  1.0000
  H   H758      1.0  0.68379  0.22966  0.93173  1.0000
  H   H759      1.0  0.85272  0.12425  0.96979  1.0000
  H   H760      1.0  0.64188  0.22037  0.88893  1.0000
  C   C428      1.0  0.69979  0.25845  0.93073  1.0000
  H   H761      1.0  0.84080  0.00240  0.95632  1.0000
  C   C429      1.0  0.89183  0.04775  0.94474  1.0000
  C   C430      1.0  0.97217  0.15749  0.96634  1.0000
  H   H762      1.0  0.79594  0.26239  0.98682  1.0000
  H   H763      1.0  0.72487  0.04118  0.96957  1.0000
  S   S96       1.0  0.92865  0.22645  0.99099  1.0000
  H   H764      1.0  0.66472  0.99456  0.95879  1.0000
  H   H765      1.0  0.75515  0.38214  0.97491  1.0000
  H   H766      1.0  0.69597  0.05392  0.98491  1.0000
  C   C431      1.0  0.70445  0.03596  0.98885  1.0000
  C   C432      1.0  0.67375  0.99850  0.98515  1.0000
  H   H767      1.0  0.63733  0.23067  0.97069  1.0000
  H   H768      1.0  0.68272  0.22540  0.99165  1.0000
  S   S97       1.0  0.88033  0.69743  0.29140  1.0000
  Fe  Fe49      1.0  0.86420  0.72089  0.09344  1.0000
  S   S98       1.0  0.81168  0.69670  0.07083  1.0000
  S   S99       1.0  0.87844  0.74981  0.14498  1.0000
  Fe  Fe50      1.0  0.89489  0.70766  0.02793  1.0000
  Fe  Fe51      1.0  0.83908  0.72488  0.02318  1.0000
  C   C433      1.0  0.97648  0.82880  0.06225  1.0000
  Fe  Fe52      1.0  0.81959  0.65449  0.05091  1.0000
  S   S100      1.0  0.77166  0.59984  0.05958  1.0000
  S   S101      1.0  0.89147  0.75230  0.04715  1.0000
  S   S102      1.0  0.87086  0.67768  0.07613  1.0000
  H   H769      1.0  0.91984  0.71069  0.13431  1.0000
  H   H770      1.0  0.71982  0.75267  0.01298  1.0000
  C   C434      1.0  0.76400  0.55755  0.05401  1.0000
  C   C435      1.0  0.78822  0.55167  0.03837  1.0000
  C   C436      1.0  0.73200  0.52883  0.06493  1.0000
  H   H771      1.0  0.71297  0.53299  0.07692  1.0000
  H   H772      1.0  0.79907  0.51334  0.02077  1.0000
  H   H773      1.0  0.95533  0.77661  0.10975  1.0000
  C   C437      1.0  0.97497  0.74506  0.12305  1.0000
  C   C438      1.0  0.87678  0.71168  0.25157  1.0000
  C   C439      1.0  0.86557  0.68847  0.22340  1.0000
  C   C440      1.0  0.86514  0.69941  0.19075  1.0000
  C   C441      1.0  0.87651  0.73394  0.18576  1.0000
  C   C442      1.0  0.88765  0.75713  0.21391  1.0000
  C   C443      1.0  0.88789  0.74614  0.24657  1.0000
  H   H774      1.0  0.85760  0.66193  0.22680  1.0000
  H   H775      1.0  0.85670  0.68130  0.16934  1.0000
  H   H776      1.0  0.89682  0.78397  0.21031  1.0000
  H   H777      1.0  0.89783  0.76459  0.26763  1.0000
  H   H778      1.0  0.72923  0.60005  0.00676  1.0000
  S   S103      1.0  0.94512  0.71284  0.00738  1.0000
  H   H779      1.0  0.72633  0.49159  0.13177  1.0000
  C   C444      1.0  0.78165  0.66216  0.27633  1.0000
  H   H780      1.0  0.76818  0.54763  0.12920  1.0000
  H   H781      1.0  0.69321  0.97906  0.01999  1.0000
  H   H782      1.0  0.97711  0.72470  0.10916  1.0000
  H   H783      1.0  0.68844  0.62414  0.04210  1.0000
  C   C445      1.0  0.79281  0.54987  0.13413  1.0000
  H   H784      1.0  0.73932  0.66990  0.27738  1.0000
  H   H785      1.0  0.66612  0.91054  0.05008  1.0000
  H   H786      1.0  0.63846  0.93681  0.04041  1.0000
  C   C446      1.0  0.82020  0.58829  0.14014  1.0000
  C   C447      1.0  0.71594  0.64571  0.04077  1.0000
  N   N25       1.0  0.78653  0.72119  0.27908  1.0000
  H   H787      1.0  0.80750  0.67351  0.28712  1.0000
  H   H788      1.0  0.94863  0.81610  0.01484  1.0000
  C   C448      1.0  0.76706  0.75416  0.00277  1.0000
  H   H789      1.0  0.78016  0.53879  0.18676  1.0000
  H   H790      1.0  0.76378  0.73909  0.02435  1.0000
  C   C449      1.0  0.75899  0.62480  0.28786  1.0000
  H   H791      1.0  0.67477  0.58680  0.99843  1.0000
  C   C450      1.0  0.72013  0.67421  0.06553  1.0000
  H   H792      1.0  0.55881  0.89422  0.03713  1.0000
  H   H793      1.0  0.71202  0.66385  0.09142  1.0000
  H   H794      1.0  0.71885  0.89778  0.01414  1.0000
  C   C451      1.0  0.72425  0.49473  0.06029  1.0000
  H   H795      1.0  0.81709  0.71822  0.23759  1.0000
  C   C452      1.0  0.75532  0.73906  0.32324  1.0000
  H   H796      1.0  0.79867  0.69651  0.17817  1.0000
  H   H797      1.0  0.95282  0.81308  0.07803  1.0000
  H   H798      1.0  0.70866  0.94353  0.03538  1.0000
  C   C453      1.0  0.76407  0.73551  0.28544  1.0000
  C   C454      1.0  0.84165  0.77971  0.29683  1.0000
  H   H799      1.0  0.75602  0.67884  0.00558  1.0000
  H   H800      1.0  0.84587  0.59233  0.14398  1.0000
  H   H801      1.0  0.82217  0.60289  0.11763  1.0000
  H   H802      1.0  0.81308  0.59880  0.16256  1.0000
  H   H803      1.0  0.85477  0.78583  0.27155  1.0000
  H   H804      1.0  0.80198  0.73705  0.17355  1.0000
  C   C455      1.0  0.76574  0.68339  0.28788  1.0000
  C   C456      1.0  0.79816  0.72585  0.24237  1.0000
  H   H805      1.0  0.95236  0.74760  0.07761  1.0000
  H   H806      1.0  0.78436  0.66116  0.24834  1.0000
  H   H807      1.0  0.61075  0.87228  0.02611  1.0000
  C   C457      1.0  0.76904  0.70651  0.21609  1.0000
  H   H808      1.0  0.77602  0.76129  0.27391  1.0000
  C   C458      1.0  0.78027  0.51753  0.03330  1.0000
  H   H809      1.0  0.70389  0.68377  0.05805  1.0000
  C   C459      1.0  0.78419  0.70947  0.18025  1.0000
  H   H810      1.0  0.76149  0.68073  0.31580  1.0000
  H   H811      1.0  0.94286  0.74669  0.16414  1.0000
  H   H812      1.0  0.73308  0.61158  0.27639  1.0000
  H   H813      1.0  0.70519  0.73143  0.31451  1.0000
  H   H814      1.0  0.97670  0.78731  0.03420  1.0000
  H   H815      1.0  0.81246  0.75364  0.23592  1.0000
  H   H816      1.0  0.88607  0.78544  0.32117  1.0000
  S   S104      1.0  0.84368  0.68110  0.00139  1.0000
  H   H817      1.0  0.70831  0.89490  0.05875  1.0000
  C   C460      1.0  0.81806  0.73991  0.30094  1.0000
  H   H818      1.0  0.81287  0.57336  0.02968  1.0000
  H   H819      1.0  0.81458  0.53472  0.17231  1.0000
  H   H820      1.0  0.75317  0.71793  0.21634  1.0000
  H   H821      1.0  0.75176  0.67859  0.22132  1.0000
  H   H822      1.0  0.74753  0.69622  0.06627  1.0000
  H   H823      1.0  0.76307  0.69675  0.16164  1.0000
  H   H824      1.0  0.67608  0.86484  0.02916  1.0000
  H   H825      1.0  0.73900  0.71880  0.27242  1.0000
  H   H826      1.0  0.80071  0.54118  0.11091  1.0000
  H   H827      1.0  0.58347  0.89132  0.06980  1.0000
  H   H828      1.0  0.74126  0.77627  0.31481  1.0000
  C   C461      1.0  0.69803  0.89207  0.03309  1.0000
  H   H829      1.0  0.83476  0.72967  0.29564  1.0000
  H   H830      1.0  0.95294  0.85249  0.03866  1.0000
  H   H831      1.0  0.73182  0.63635  0.04983  1.0000
  C   C462      1.0  0.78861  0.52842  0.16524  1.0000
  C   C463      1.0  0.68613  0.91697  0.03004  1.0000
  H   H832      1.0  0.77369  0.50990  0.23354  1.0000
  H   H833      1.0  0.94769  0.71051  0.16475  1.0000
  H   H834      1.0  0.71648  0.67461  0.99807  1.0000
  C   C464      1.0  0.86979  0.79642  0.32338  1.0000
  C   C465      1.0  0.72767  0.65938  0.00431  1.0000
  C   C466      1.0  0.62776  0.92603  0.01484  1.0000
  H   H835      1.0  0.75599  0.62399  0.31592  1.0000
  H   H836      1.0  0.77137  0.61052  0.27978  1.0000
  C   C467      1.0  0.97019  0.76646  0.09722  1.0000
  H   H837      1.0  0.61401  0.93871  0.00851  1.0000
  C   C468      1.0  0.96638  0.83921  0.03081  1.0000
  C   C469      1.0  0.74221  0.76210  0.99630  1.0000
  H   H838      1.0  0.88662  0.82473  0.31955  1.0000
  C   C470      1.0  0.59958  0.88687  0.01809  1.0000
  C   C471      1.0  0.94441  0.72715  0.14801  1.0000
  C   C472      1.0  0.57187  0.88119  0.04449  1.0000
  H   H839      1.0  0.65925  0.63232  0.99908  1.0000
  H   H840      1.0  0.55210  0.85303  0.04630  1.0000
  H   H841      1.0  0.72219  0.49730  0.17571  1.0000
  H   H842      1.0  0.61287  0.56954  0.99836  1.0000
  H   H843      1.0  0.82929  0.51389  0.12656  1.0000
  H   H844      1.0  0.82689  0.79225  0.29968  1.0000
  C   C473      1.0  0.68416  0.97285  0.99341  1.0000
  H   H845      1.0  0.58648  0.87534  0.99367  1.0000
  C   C474      1.0  0.67231  0.91429  0.99413  1.0000
  Fe  Fe53      1.0  0.86720  0.70439  0.34674  1.0000
  S   S105      1.0  0.81175  0.68002  0.36302  1.0000
  Fe  Fe54      1.0  0.89053  0.71739  0.42130  1.0000
  S   S106      1.0  0.83518  0.69252  0.44154  1.0000
  S   S107      1.0  0.93360  0.74142  0.46119  1.0000
  Fe  Fe55      1.0  0.82127  0.65106  0.40058  1.0000
  S   S108      1.0  0.77940  0.59296  0.39626  1.0000
  Fe  Fe56      1.0  0.82972  0.72307  0.40242  1.0000
  S   S109      1.0  0.80367  0.75409  0.40612  1.0000
  S   S110      1.0  0.87630  0.67390  0.38304  1.0000
  S   S111      1.0  0.88549  0.74977  0.38375  1.0000
  Fe  Fe57      1.0  0.64175  0.83249  0.53525  1.0000
  S   S112      1.0  0.67422  0.88321  0.56388  1.0000
  S   S113      1.0  0.58987  0.82459  0.52185  1.0000
  Fe  Fe58      1.0  0.70049  0.81890  0.53504  1.0000
  S   S114      1.0  0.73525  0.86849  0.56499  1.0000
  S   S115      1.0  0.71903  0.78173  0.52326  1.0000
  Fe  Fe59      1.0  0.68803  0.85439  0.59733  1.0000
  H   H846      1.0  0.85286  0.55954  0.45217  1.0000
  Fe  Fe60      1.0  0.71853  0.89334  0.52943  1.0000
  S   S116      1.0  0.75967  0.94129  0.50006  1.0000
  S   S117      1.0  0.65382  0.80317  0.56996  1.0000
  S   S118      1.0  0.68549  0.84421  0.49821  1.0000
  H   H847      1.0  0.54040  0.82606  0.65591  1.0000
  H   H848      1.0  0.65433  0.92225  0.39153  1.0000
  C   C475      1.0  0.69021  0.97553  0.40593  1.0000
  C   C476      1.0  0.77596  0.51746  0.44975  1.0000
  C   C477      1.0  0.77730  0.55479  0.40717  1.0000
  C   C478      1.0  0.76302  0.52630  0.38408  1.0000
  C   C479      1.0  0.78399  0.55018  0.44002  1.0000
  H   H849      1.0  0.75708  0.52932  0.35882  1.0000
  H   H850      1.0  0.79346  0.57127  0.45850  1.0000
  C   C480      1.0  0.77896  0.76032  0.43855  1.0000
  C   C481      1.0  0.76909  0.74284  0.46912  1.0000
  C   C482      1.0  0.75056  0.74954  0.49438  1.0000
  C   C483      1.0  0.74142  0.77368  0.48961  1.0000
  C   C484      1.0  0.75086  0.79080  0.45882  1.0000
  C   C485      1.0  0.76946  0.78416  0.43356  1.0000
  H   H851      1.0  0.77592  0.72430  0.47342  1.0000
  H   H852      1.0  0.74334  0.73594  0.51793  1.0000
  H   H853      1.0  0.74395  0.80929  0.45450  1.0000
  H   H854      1.0  0.77675  0.79780  0.41005  1.0000
  H   H855      1.0  0.54298  0.77555  0.60345  1.0000
  C   C486      1.0  0.55176  0.80153  0.61467  1.0000
  H   H856      1.0  0.85808  0.79222  0.34931  1.0000
  C   C487      1.0  0.53774  0.75451  0.52717  1.0000
  C   C488      1.0  0.54629  0.78851  0.52470  1.0000
  C   C489      1.0  0.51936  0.79427  0.52330  1.0000
  C   C490      1.0  0.50274  0.72666  0.52721  1.0000
  H   H857      1.0  0.55811  0.74961  0.52799  1.0000
  H   H858      1.0  0.52563  0.82041  0.52116  1.0000
  H   H859      1.0  0.74342  0.71411  0.33620  1.0000
  H   H860      1.0  0.72480  0.75355  0.35393  1.0000
  C   C491      1.0  0.52848  0.79917  0.64537  1.0000
  C   C492      1.0  0.90789  0.59558  0.46475  1.0000
  H   H861      1.0  0.97226  0.66781  0.36198  1.0000
  H   H862      1.0  0.87816  0.66921  0.46710  1.0000
  H   H863      1.0  0.87584  0.52375  0.46549  1.0000
  H   H864      1.0  0.73181  0.88867  0.39481  1.0000
  C   C493      1.0  0.87587  0.65588  0.49058  1.0000
  H   H865      1.0  0.85633  0.78505  0.48111  1.0000
  H   H866      1.0  0.60534  0.82057  0.60249  1.0000
  N   N26       1.0  0.91105  0.63003  0.46723  1.0000
  C   C494      1.0  0.93950  0.65491  0.49117  1.0000
  C   C495      1.0  0.91688  0.64574  0.43301  1.0000
  C   C496      1.0  0.94891  0.65207  0.41216  1.0000
  H   H867      1.0  0.98412  0.73667  0.41659  1.0000
  C   C497      1.0  0.84151  0.64588  0.50799  1.0000
  H   H868      1.0  0.89361  0.62978  0.41721  1.0000
  H   H869      1.0  0.92014  0.67149  0.43586  1.0000
  C   C498      1.0  0.68581  0.52659  0.44399  1.0000
  H   H870      1.0  0.98216  0.65162  0.46701  1.0000
  H   H871      1.0  0.93227  0.59848  0.45527  1.0000
  C   C499      1.0  0.92841  0.94014  0.53964  1.0000
  C   C500      1.0  0.73006  0.75079  0.32663  1.0000
  H   H872      1.0  0.90414  0.53962  0.42829  1.0000
  C   C501      1.0  0.80588  0.84495  0.60074  1.0000
  H   H873      1.0  0.88155  0.57604  0.41565  1.0000
  H   H874      1.0  0.55173  0.81764  0.59472  1.0000
  H   H875      1.0  0.78030  0.51400  0.47551  1.0000
  H   H876      1.0  0.81961  0.62877  0.49098  1.0000
  C   C502      1.0  0.77564  0.83910  0.62366  1.0000
  N   N27       1.0  0.83169  0.86271  0.53953  1.0000
  C   C503      1.0  0.82173  0.86912  0.50609  1.0000
  C   C504      1.0  0.83198  0.82995  0.53702  1.0000
  C   C505      1.0  0.80412  0.85726  0.56538  1.0000
  C   C506      1.0  0.86578  0.89319  0.55172  1.0000
  C   C507      1.0  0.89744  0.90521  0.52766  1.0000
  C   C508      1.0  0.82124  0.90241  0.50426  1.0000
  H   H877      1.0  0.63555  0.95753  0.53715  1.0000
  C   C509      1.0  0.84483  0.82188  0.50304  1.0000
  C   C510      1.0  0.84995  0.79205  0.50640  1.0000
  C   C511      1.0  0.81044  0.90529  0.46917  1.0000
  C   C512      1.0  0.87937  0.53429  0.43986  1.0000
  H   H878      1.0  0.79561  0.84672  0.49916  1.0000
  H   H879      1.0  0.83915  0.87055  0.48509  1.0000
  H   H880      1.0  0.84740  0.82974  0.55782  1.0000
  H   H881      1.0  0.80520  0.80681  0.54073  1.0000
  H   H882      1.0  0.77804  0.83788  0.55535  1.0000
  H   H883      1.0  0.80480  0.88158  0.57025  1.0000
  H   H884      1.0  0.86353  0.91573  0.55802  1.0000
  H   H885      1.0  0.87268  0.88732  0.57592  1.0000
  H   H886      1.0  0.89213  0.90818  0.50141  1.0000
  H   H887      1.0  0.90530  0.88634  0.52765  1.0000
  H   H888      1.0  0.80261  0.90248  0.52288  1.0000
  H   H889      1.0  0.84728  0.92585  0.50895  1.0000
  H   H890      1.0  0.84141  0.66961  0.51413  1.0000
  H   H891      1.0  0.59974  0.84473  0.63617  1.0000
  H   H892      1.0  0.82530  0.81408  0.48333  1.0000
  H   H893      1.0  0.86940  0.84432  0.49352  1.0000
  H   H894      1.0  0.82596  0.76884  0.51629  1.0000
  H   H895      1.0  0.67507  0.53965  0.43136  1.0000
  H   H896      1.0  0.87149  0.79970  0.52369  1.0000
  H   H897      1.0  0.82784  0.90488  0.44908  1.0000
  H   H898      1.0  0.78337  0.88366  0.46433  1.0000
  H   H899      1.0  0.81187  0.93006  0.46782  1.0000
  H   H900      1.0  0.89683  0.67456  0.50773  1.0000
  H   H901      1.0  0.93535  0.93857  0.56576  1.0000
  C   C513      1.0  0.87873  0.56714  0.44188  1.0000
  H   H902      1.0  0.86989  0.60812  0.50530  1.0000
  C   C514      1.0  0.65814  0.93907  0.41412  1.0000
  H   H903      1.0  0.85590  0.60761  0.46378  1.0000
  H   H904      1.0  0.71388  0.54571  0.44762  1.0000
  H   H905      1.0  0.92938  0.65118  0.51783  1.0000
  H   H906      1.0  0.83780  0.63248  0.53195  1.0000
  N   N28       1.0  0.65974  0.92330  0.44607  1.0000
  H   H907      1.0  0.94866  0.68219  0.48562  1.0000
  C   C515      1.0  0.62689  0.88807  0.45134  1.0000
  C   C516      1.0  0.66255  0.94693  0.47544  1.0000
  C   C517      1.0  0.69100  0.92081  0.44605  1.0000
  C   C518      1.0  0.69465  0.89985  0.41631  1.0000
  H   H908      1.0  0.68232  0.98460  0.53622  1.0000
  C   C519      1.0  0.66063  0.93369  0.51138  1.0000
  C   C520      1.0  0.60818  0.86564  0.41935  1.0000
  C   C521      1.0  0.57951  0.82886  0.42889  1.0000
  C   C522      1.0  0.72959  0.90343  0.41669  1.0000
  H   H909      1.0  0.75058  0.81895  0.61230  1.0000
  H   H910      1.0  0.77725  0.83025  0.64876  1.0000
  H   H911      1.0  0.77889  0.75863  0.33707  1.0000
  H   H912      1.0  0.63197  0.87234  0.46774  1.0000
  H   H913      1.0  0.60692  0.89067  0.46550  1.0000
  H   H914      1.0  0.80446  0.82011  0.59873  1.0000
  H   H915      1.0  0.98099  0.77743  0.51559  1.0000
  H   H916      1.0  0.71506  0.94707  0.44705  1.0000
  H   H917      1.0  0.69112  0.90847  0.46948  1.0000
  H   H918      1.0  0.69281  0.90874  0.39143  1.0000
  H   H919      1.0  0.67442  0.87194  0.41872  1.0000
  H   H920      1.0  0.90349  0.58493  0.49056  1.0000
  H   H921      1.0  0.68378  0.93292  0.51551  1.0000
  H   H922      1.0  0.63737  0.90741  0.51529  1.0000
  H   H923      1.0  0.59600  0.87709  0.40627  1.0000
  H   H924      1.0  0.62599  0.86380  0.40107  1.0000
  H   H925      1.0  0.56055  0.82927  0.44695  1.0000
  H   H926      1.0  0.56566  0.81362  0.40582  1.0000
  H   H927      1.0  0.59057  0.81571  0.44083  1.0000
  H   H928      1.0  0.73212  0.89293  0.44031  1.0000
  H   H929      1.0  0.77626  0.86347  0.62766  1.0000
  H   H930      1.0  0.49877  0.80616  0.58869  1.0000
  H   H931      1.0  0.97282  0.67347  0.42416  1.0000
  C   C523      1.0  0.75519  0.49361  0.39373  1.0000
  H   H932      1.0  0.85784  0.51428  0.42388  1.0000
  H   H933      1.0  0.94907  0.68728  0.37694  1.0000
  C   C524      1.0  0.65960  0.95769  0.53881  1.0000
  H   H934      1.0  0.75113  0.93102  0.41492  1.0000
  H   H935      1.0  0.92567  0.64239  0.36254  1.0000
  H   H936      1.0  0.83007  0.86455  0.61364  1.0000
  H   H937      1.0  0.94982  0.62855  0.40969  1.0000
  H   H938      1.0  0.68759  0.97241  0.47422  1.0000
  C   C525      1.0  0.48887  0.80767  0.61445  1.0000
  H   H939      1.0  0.50622  0.83525  0.62276  1.0000
  C   C526      1.0  0.87717  0.62341  0.48186  1.0000
  C   C527      1.0  0.58922  0.81827  0.62515  1.0000
  H   H940      1.0  0.66011  0.94861  0.56420  1.0000
  C   C528      1.0  0.94885  0.66303  0.37626  1.0000
  H   H941      1.0  0.67316  0.51791  0.46930  1.0000
  H   H942      1.0  0.59138  0.80234  0.64385  1.0000
  H   H943      1.0  0.73662  0.98432  0.53321  1.0000
  H   H944      1.0  0.49651  0.70042  0.52804  1.0000
  H   H945      1.0  0.64188  0.95240  0.47414  1.0000
  H   H946      1.0  0.63505  0.94100  0.41544  1.0000
  H   H947      1.0  0.49039  0.63875  0.56225  1.0000
  S   S119      1.0  0.68165  0.86513  0.65369  1.0000
  H   H948      1.0  0.50530  0.73092  0.64335  1.0000
  N   N29       1.0  0.49098  0.78388  0.63778  1.0000
  C   C529      1.0  0.97166  0.65238  0.49248  1.0000
  H   H949      1.0  0.92251  0.96051  0.53917  1.0000
  H   H950      1.0  0.81054  0.73475  0.32820  1.0000
  H   H951      1.0  0.71417  0.97534  0.40396  1.0000
  H   H952      1.0  0.96461  0.62841  0.50543  1.0000
  H   H953      1.0  0.68423  0.96997  0.35104  1.0000
  H   H954      1.0  0.95105  0.94772  0.52250  1.0000
  C   C530      1.0  0.76770  0.98293  0.49186  1.0000
  H   H955      1.0  0.69484  0.50626  0.39781  1.0000
  H   H956      1.0  0.48605  0.75126  0.59423  1.0000
  C   C531      1.0  0.97800  0.75557  0.46539  1.0000
  C   C532      1.0  0.68080  0.49593  0.42223  1.0000
  C   C533      1.0  0.68631  0.98778  0.37216  1.0000
  H   H957      1.0  0.66308  0.98932  0.37289  1.0000
  H   H958      1.0  0.53156  0.82057  0.88885  1.0000
  H   H959      1.0  0.67634  0.58663  0.95382  1.0000
  Fe  Fe61      1.0  0.70665  0.82457  0.92500  1.0000
  S   S120      1.0  0.74622  0.86581  0.89005  1.0000
  S   S121      1.0  0.71384  0.79176  0.96221  1.0000
  Fe  Fe62      1.0  0.64860  0.83480  0.90378  1.0000
  S   S122      1.0  0.68513  0.87644  0.86776  1.0000
  S   S123      1.0  0.59520  0.82786  0.90587  1.0000
  Fe  Fe63      1.0  0.70357  0.84190  0.85151  1.0000
  S   S124      1.0  0.70933  0.82590  0.79691  1.0000
  Fe  Fe64      1.0  0.72446  0.89757  0.90921  1.0000
  S   S125      1.0  0.75452  0.95709  0.91686  1.0000
  S   S126      1.0  0.66512  0.79887  0.88541  1.0000
  S   S127      1.0  0.68698  0.85767  0.94607  1.0000
  H   H960      1.0  0.57976  0.84605  0.83738  1.0000
  H   H961      1.0  0.74331  0.55666  0.98662  1.0000
  H   H962      1.0  0.50078  0.70626  0.92705  1.0000
  H   H963      1.0  0.69473  0.92278  0.97632  1.0000
  C   C534      1.0  0.48698  0.72774  0.81119  1.0000
  H   H964      1.0  0.62298  0.89790  0.95065  1.0000
  H   H965      1.0  0.63836  0.94652  0.88882  1.0000
  C   C535      1.0  0.74627  0.78255  0.96880  1.0000
  C   C536      1.0  0.77559  0.79466  0.94765  1.0000
  H   H966      1.0  0.71496  0.57238  0.94678  1.0000
  H   H967      1.0  0.61956  0.72617  0.86336  1.0000
  H   H968      1.0  0.77925  0.81034  0.92638  1.0000
  H   H969      1.0  0.58037  0.68741  0.84881  1.0000
  H   H970      1.0  0.82281  0.79612  0.93740  1.0000
  C   C537      1.0  0.98059  0.74205  0.98036  1.0000
  C   C538      1.0  0.79640  0.76631  0.98166  1.0000
  C   C539      1.0  0.69112  0.85498  0.69304  1.0000
  C   C540      1.0  0.70412  0.83389  0.69509  1.0000
  C   C541      1.0  0.70998  0.82569  0.72706  1.0000
  C   C542      1.0  0.70342  0.83881  0.75733  1.0000
  C   C543      1.0  0.69091  0.86030  0.75525  1.0000
  C   C544      1.0  0.68459  0.86809  0.72333  1.0000
  C   C545      1.0  0.48996  0.76771  0.89778  1.0000
  H   H971      1.0  0.71958  0.80897  0.72836  1.0000
  H   H972      1.0  0.68592  0.87075  0.77823  1.0000
  H   H973      1.0  0.67473  0.88460  0.72207  1.0000
  C   C546      1.0  0.54255  0.75869  0.91663  1.0000
  C   C547      1.0  0.55159  0.79126  0.90620  1.0000
  C   C548      1.0  0.52503  0.79550  0.89675  1.0000
  H   H974      1.0  0.56247  0.75500  0.92444  1.0000
  C   C549      1.0  0.59094  0.71231  0.86328  1.0000
  H   H975      1.0  0.78592  0.66860  0.94352  1.0000
  C   C550      1.0  0.80033  0.78652  0.95402  1.0000
  H   H976      1.0  0.48648  0.83468  0.67549  1.0000
  H   H977      1.0  0.72200  0.62953  0.92198  1.0000
  H   H978      1.0  0.58110  0.70659  0.88988  1.0000
  H   H979      1.0  0.96092  0.81249  0.85856  1.0000
  H   H980      1.0  0.78521  0.59436  0.97578  1.0000
  C   C551      1.0  0.77012  0.97748  0.98500  1.0000
  C   C552      1.0  0.64130  0.92638  0.95422  1.0000
  H   H981      1.0  0.80454  0.71129  0.89904  1.0000
  H   H982      1.0  0.66873  0.93743  0.86916  1.0000
  H   H983      1.0  0.76110  0.70080  0.89510  1.0000
  H   H984      1.0  0.77550  0.70017  0.95451  1.0000
  H   H985      1.0  0.70923  0.82353  0.67212  1.0000
  C   C553      1.0  0.73004  0.64924  0.94299  1.0000
  H   H986      1.0  0.62541  0.93749  0.95108  1.0000
  H   H987      1.0  0.53099  0.78475  0.66563  1.0000
  H   H988      1.0  0.50891  0.82368  0.70296  1.0000
  C   C554      1.0  0.77678  0.69023  0.90149  1.0000
  C   C555      1.0  0.74132  0.59287  0.95492  1.0000
  H   H989      1.0  0.58807  0.75725  0.86480  1.0000
  H   H990      1.0  0.68818  0.96539  0.92557  1.0000
  H   H991      1.0  0.71599  0.66214  0.93896  1.0000
  H   H992      1.0  0.66117  0.63155  0.95353  1.0000
  H   H993      1.0  0.62880  0.90279  0.88730  1.0000
  H   H994      1.0  0.62635  0.86974  0.83304  1.0000
  C   C556      1.0  0.66755  0.93747  0.92407  1.0000
  C   C557      1.0  0.76882  0.67761  0.93780  1.0000
  H   H995      1.0  0.77147  0.66883  0.88331  1.0000
  H   H996      1.0  0.59790  0.76683  0.68848  1.0000
  C   C558      1.0  0.50745  0.73107  0.91816  1.0000
  H   H997      1.0  0.75613  0.60840  0.93261  1.0000
  C   C559      1.0  0.98284  0.77035  0.96584  1.0000
  H   H998      1.0  0.63814  0.77227  0.69984  1.0000
  C   C560      1.0  0.64961  0.93060  0.89033  1.0000
  H   H999      1.0  0.55097  0.71799  0.84732  1.0000
  C   C561      1.0  0.75894  0.57502  0.96625  1.0000
  C   C562      1.0  0.60963  0.75409  0.69987  1.0000
  H   H1000     1.0  0.60341  0.73099  0.68390  1.0000
  H   H1001     1.0  0.76140  0.56018  0.94460  1.0000
  H   H1002     1.0  0.96212  0.77464  0.97020  1.0000
  H   H1003     1.0  0.76726  0.63642  0.99060  1.0000
  H   H1004     1.0  0.60187  0.87755  0.80482  1.0000
  N   N30       1.0  0.58609  0.76723  0.79341  1.0000
  C   C563      1.0  0.60060  0.80126  0.81276  1.0000
  C   C564      1.0  0.59493  0.74501  0.81159  1.0000
  C   C565      1.0  0.60448  0.77501  0.75922  1.0000
  C   C566      1.0  0.54751  0.74837  0.78822  1.0000
  C   C567      1.0  0.52571  0.75368  0.81603  1.0000
  C   C568      1.0  0.59897  0.82937  0.79432  1.0000
  C   C569      1.0  0.59571  0.74320  0.73600  1.0000
  C   C570      1.0  0.57958  0.73428  0.84782  1.0000
  H   H1005     1.0  0.67970  0.92231  0.92345  1.0000
  C   C571      1.0  0.60190  0.85734  0.81899  1.0000
  H   H1006     1.0  0.62832  0.81263  0.81859  1.0000
  H   H1007     1.0  0.58766  0.79751  0.83792  1.0000
  H   H1008     1.0  0.58571  0.72025  0.79726  1.0000
  H   H1009     1.0  0.62363  0.75841  0.81300  1.0000
  H   H1010     1.0  0.63301  0.79055  0.76251  1.0000
  H   H1011     1.0  0.59883  0.79127  0.74446  1.0000
  H   H1012     1.0  0.54213  0.75604  0.76412  1.0000
  H   H1013     1.0  0.53616  0.72002  0.78497  1.0000
  H   H1014     1.0  0.53059  0.78000  0.81503  1.0000
  H   H1015     1.0  0.53179  0.75085  0.84188  1.0000
  H   H1016     1.0  0.62077  0.84221  0.77565  1.0000
  H   H1017     1.0  0.57465  0.81808  0.78028  1.0000
  H   H1018     1.0  0.56740  0.72424  0.73479  1.0000
  H   H1019     1.0  0.60796  0.73014  0.74551  1.0000
  C   C572      1.0  0.61915  0.58531  0.97554  1.0000
  C   C573      1.0  0.76818  0.98676  0.95238  1.0000
  H   H1020     1.0  0.61461  0.56878  0.95242  1.0000
  S   S128      1.0  0.82860  0.75674  0.98811  1.0000
  H   H1021     1.0  0.70757  0.97943  0.97797  1.0000
  N   N31       1.0  0.72002  0.63228  0.97694  1.0000
  C   C574      1.0  0.74015  0.61620  0.98389  1.0000
  H   H1022     1.0  0.65368  0.88648  0.98738  1.0000
  H   H1023     1.0  0.76355  0.95153  0.98913  1.0000
  C   C575      1.0  0.68205  0.60401  0.97653  1.0000
  N   N32       1.0  0.65640  0.93492  0.98916  1.0000
  C   C576      1.0  0.65663  0.61621  0.97620  1.0000
  H   H1024     1.0  0.60151  0.59470  0.97537  1.0000
