data_image0
_chemical_formula_structural       CFeC2S2FeSH5C2H3SHCH4FeH3C3H2SH2CFeCHC3HC2SH2CSCH7CH5NC2H5CNCHSH2SHFeHFeSHSFeS2FeSCFeCFeS3H2CH2CH2CHCH2C2H5CHC7H4C2H3C2H3CH4NH2CH3CH2CHCHSH6C2H2CHCHCH2CNSH5C2H2CH7C2HSH2CHCH2CH9CH4C3H5CH2CH2C2H6CH6C2H6CFeH2CHCNCHCH5CH2C2HC2NH2CHC3HC2H2C2FeSC2HC2H3CH2C3H2NCHCHFeS2FeS2Fe2S2C5H3CH2CSC3NC7HCH20CHCH3CH3CH3CH3CH2CH3CHCH2CH5CH5SCSCH2C2H5C2H3CH2C2HNCHC2HC2HCH3C2H5SH4C2HSHFeS2CSHFeSHCSCH3CHSFeS2FeSFeH2C4HSHC2HCSCHC6H4CH2C3H5CH2SC2NFeC3H3CHCHC3H2CH5CHCHCHCH2CH3FeH9NC8H2C2H16FeHC2HCH7NHCH4C2HCH9C2HSHFeSHFeS2FeHFeS3FeS2FeS2FeSFeHS3NH3NCH4C6H8CH2CSHC3H3CH3C2H2CH2CHNH3CH2CH4C2H2SHCH2CHCH6C2H3C2H2CH3C3HCH5CH2CHC2H3C2H2CHCHC2H2C3HC2HC2H2CHCH2C2NH2CH5CH10CH3CH4C3SHCH3CH2CH3CHCHCHCH2CH4C2H4C2NH2C3HC3HCH2CHCH5NC2H2C2H7CHSHNHCH4CHSH2CH2C2H2CHC2HCHCHC3H6C2HCHCH5CHC2HCH2C2HCFeS2FeS2FeSFeS3FeHFeHSFeCS2H5C6H4CHCH3C2H3CHC2S2CHCHC2H4CH2CHCH4SCNH2C2HC5H2CH2CH7CH4CH2CH2CH3C4H2SC3HCH2CSHC2HFeHCHCH3CH11CH4CHC2HCHC2HNCH2C4NCH8CHC2H4NH5CHC3HCH6CH2CH9C2HC2H3C3HNH3CH2CH3C2FeSHFeSHFeSFeSC2HCHC2H2SHCH2CH8C2HSH2CHCH5CH3NHCSH3C4H2CH2CH2C2HCH3CH3CHCH4C2H2FeS2FeSFeSFeHS2FeCFeHSFeS2H2C7H3CH2CH3CH3CSCHSH3CH3CSC3H2SH2C3H2CNCH5CH2CH2C2H3CHCHCHFeH4CH2SH8C2HNH4CSHCH2CH2SH5CH2SH2C4HC3H12CH3CH3C3HCHFeSH2SFeSFeS2CH4CHCH2C2H2CH3C2HSCH2CHCH3CFeHNCHCHCSC2H6C2H2CH3CH3C2HSHCH2CHCH4
_chemical_formula_sum              "C504 Fe56 S112 H896 N28"
_cell_length_a       36.4326
_cell_length_b       42.4548
_cell_length_c       56.928
_cell_angle_alpha    83.6581
_cell_angle_beta     86.1024
_cell_angle_gamma    117.222

_space_group_name_H-M_alt    "P 1"
_space_group_IT_number       1

loop_
  _space_group_symop_operation_xyz
  'x, y, z'

loop_
  _atom_site_type_symbol
  _atom_site_label
  _atom_site_symmetry_multiplicity
  _atom_site_fract_x
  _atom_site_fract_y
  _atom_site_fract_z
  _atom_site_occupancy
  C   C1        1.0  0.26875  0.44096  0.19273  1.0000
  Fe  Fe1       1.0  0.23541  0.34946  0.30959  1.0000
  C   C2        1.0  0.28134  0.42436  0.21091  1.0000
  C   C3        1.0  0.42921  0.39829  0.28500  1.0000
  S   S1        1.0  0.23163  0.37935  0.27539  1.0000
  S   S2        1.0  0.30398  0.36790  0.30153  1.0000
  Fe  Fe2       1.0  0.30110  0.40196  0.26922  1.0000
  S   S3        1.0  0.21523  0.46011  0.29128  1.0000
  H   H1        1.0  0.25823  0.40287  0.22411  1.0000
  H   H2        1.0  0.13650  0.43073  0.20392  1.0000
  H   H3        1.0  0.15320  0.14094  0.30580  1.0000
  H   H4        1.0  0.48255  0.46198  0.16785  1.0000
  H   H5        1.0  0.23599  0.43242  0.19218  1.0000
  C   C4        1.0  0.46216  0.47007  0.21554  1.0000
  C   C5        1.0  0.34084  0.47942  0.17623  1.0000
  H   H6        1.0  0.13361  0.21501  0.27722  1.0000
  H   H7        1.0  0.46568  0.47123  0.27544  1.0000
  H   H8        1.0  0.41381  0.48545  0.04892  1.0000
  S   S4        1.0  0.34034  0.41450  0.23399  1.0000
  H   H9        1.0  0.44565  0.40836  0.24700  1.0000
  C   C6        1.0  0.14748  0.20271  0.28961  1.0000
  H   H10       1.0  0.10110  0.14925  0.28737  1.0000
  H   H11       1.0  0.25936  0.28383  0.31969  1.0000
  H   H12       1.0  0.48906  0.42650  0.26375  1.0000
  H   H13       1.0  0.16018  0.22048  0.30314  1.0000
  Fe  Fe3       1.0  0.31150  0.41408  0.31997  1.0000
  H   H14       1.0  0.39637  0.39234  0.28398  1.0000
  H   H15       1.0  0.17337  0.20108  0.27928  1.0000
  H   H16       1.0  0.44290  0.47759  0.07146  1.0000
  C   C7        1.0  0.14950  0.44878  0.18646  1.0000
  C   C8        1.0  0.29859  0.46884  0.17553  1.0000
  C   C9        1.0  0.41823  0.48900  0.31639  1.0000
  H   H17       1.0  0.17114  0.44154  0.17650  1.0000
  H   H18       1.0  0.43060  0.37257  0.28712  1.0000
  S   S5        1.0  0.31461  0.44966  0.28721  1.0000
  H   H19       1.0  0.07441  0.08557  0.30647  1.0000
  H   H20       1.0  0.26621  0.48590  0.22960  1.0000
  C   C10       1.0  0.32370  0.43505  0.21159  1.0000
  Fe  Fe4       1.0  0.24533  0.42454  0.29603  1.0000
  C   C11       1.0  0.11419  0.16543  0.30165  1.0000
  H   H21       1.0  0.46762  0.44704  0.21244  1.0000
  C   C12       1.0  0.06479  0.09140  0.32380  1.0000
  C   C13       1.0  0.35327  0.46248  0.19413  1.0000
  C   C14       1.0  0.46522  0.47741  0.17024  1.0000
  H   H22       1.0  0.43961  0.41133  0.30091  1.0000
  C   C15       1.0  0.23712  0.26361  0.33391  1.0000
  C   C16       1.0  0.45710  0.42260  0.26228  1.0000
  S   S6        1.0  0.24320  0.39319  0.33080  1.0000
  H   H23       1.0  0.12348  0.44468  0.17599  1.0000
  H   H24       1.0  0.08888  0.16857  0.31113  1.0000
  C   C17       1.0  0.13302  0.14678  0.31831  1.0000
  S   S7        1.0  0.18511  0.29344  0.32497  1.0000
  C   C18       1.0  0.25025  0.48823  0.33013  1.0000
  H   H25       1.0  0.36733  0.44305  0.08378  1.0000
  H   H26       1.0  0.38589  0.47141  0.19473  1.0000
  H   H27       1.0  0.42271  0.45221  0.25954  1.0000
  H   H28       1.0  0.33571  0.29741  0.33333  1.0000
  H   H29       1.0  0.19088  0.13156  0.33320  1.0000
  H   H30       1.0  0.00442  0.03061  0.30838  1.0000
  H   H31       1.0  0.36244  0.48357  0.08077  1.0000
  C   C19       1.0  0.40786  0.46042  0.33487  1.0000
  H   H32       1.0  0.19860  0.47301  0.21990  1.0000
  H   H33       1.0  0.04793  0.10682  0.31918  1.0000
  H   H34       1.0  0.19091  0.07324  0.33465  1.0000
  H   H35       1.0  0.12671  0.07778  0.32397  1.0000
  H   H36       1.0  0.42772  0.45832  0.21884  1.0000
  N   N1        1.0  0.48154  0.48512  0.23702  1.0000
  C   C20       1.0  0.38380  0.47218  0.08475  1.0000
  C   C21       1.0  0.45614  0.45890  0.25918  1.0000
  H   H37       1.0  0.39135  0.47544  0.10321  1.0000
  H   H38       1.0  0.43132  0.45874  0.17244  1.0000
  H   H39       1.0  0.15471  0.16697  0.32849  1.0000
  H   H40       1.0  0.37334  0.34440  0.32891  1.0000
  H   H41       1.0  0.23117  0.48954  0.19246  1.0000
  C   C22       1.0  0.48128  0.47920  0.33603  1.0000
  N   N2        1.0  0.10300  0.11297  0.33520  1.0000
  C   C23       1.0  0.17228  0.48797  0.19011  1.0000
  H   H42       1.0  0.26556  0.09662  0.55978  1.0000
  S   S8        1.0  0.14270  0.08245  0.62378  1.0000
  H   H43       1.0  0.18475  0.31865  0.40455  1.0000
  H   H44       1.0  0.34617  0.13393  0.55020  1.0000
  S   S9        1.0  0.18210  0.16821  0.62888  1.0000
  H   H45       1.0  0.30935  0.10955  0.44353  1.0000
  Fe  Fe5       1.0  0.12312  0.11703  0.64242  1.0000
  H   H46       1.0  0.19896  0.00517  0.38333  1.0000
  Fe  Fe6       1.0  0.20375  0.13216  0.61356  1.0000
  S   S10       1.0  0.23830  0.14095  0.57737  1.0000
  H   H47       1.0  0.26695  0.07243  0.53689  1.0000
  S   S11       1.0  0.23141  0.12231  0.64578  1.0000
  Fe  Fe7       1.0  0.15019  0.13519  0.46336  1.0000
  S   S12       1.0  0.20877  0.13605  0.44756  1.0000
  S   S13       1.0  0.14807  0.16655  0.49221  1.0000
  Fe  Fe8       1.0  0.09739  0.08679  0.43017  1.0000
  S   S14       1.0  0.15130  0.08354  0.41164  1.0000
  C   C24       1.0  0.29891  0.33675  0.62677  1.0000
  Fe  Fe9       1.0  0.16812  0.07710  0.44839  1.0000
  C   C25       1.0  0.21789  0.00684  0.56646  1.0000
  Fe  Fe10      1.0  0.18658  0.14280  0.41231  1.0000
  S   S15       1.0  0.23147  0.18151  0.38055  1.0000
  S   S16       1.0  0.11105  0.07568  0.46708  1.0000
  S   S17       1.0  0.13107  0.14650  0.42826  1.0000
  H   H48       1.0  0.43169  0.43395  0.35912  1.0000
  H   H49       1.0  0.28984  0.30536  0.36471  1.0000
  C   C26       1.0  0.27212  0.34416  0.39502  1.0000
  H   H50       1.0  0.31757  0.05834  0.60101  1.0000
  H   H51       1.0  0.32424  0.29720  0.41396  1.0000
  C   C27       1.0  0.30462  0.10306  0.59986  1.0000
  H   H52       1.0  0.19962  0.04591  0.41154  1.0000
  H   H53       1.0  0.32364  0.35178  0.35671  1.0000
  C   C28       1.0  0.09183  0.12187  0.35872  1.0000
  H   H54       1.0  0.30056  0.15658  0.53314  1.0000
  C   C29       1.0  0.21783  0.21178  0.36459  1.0000
  H   H55       1.0  0.35058  0.09487  0.57872  1.0000
  H   H56       1.0  0.23118  0.99060  0.55928  1.0000
  C   C30       1.0  0.31108  0.04243  0.55522  1.0000
  C   C31       1.0  0.36413  0.40345  0.64033  1.0000
  H   H57       1.0  0.07864  0.18884  0.61790  1.0000
  H   H58       1.0  0.08022  0.00970  0.64542  1.0000
  H   H59       1.0  0.03271  0.16308  0.57736  1.0000
  H   H60       1.0  0.28955  0.03130  0.64245  1.0000
  H   H61       1.0  0.12028  0.13691  0.36699  1.0000
  C   C32       1.0  0.33454  0.00112  0.46750  1.0000
  H   H62       1.0  0.04179  0.13403  0.34800  1.0000
  C   C33       1.0  0.05205  0.14961  0.58081  1.0000
  C   C34       1.0  0.21253  0.14778  0.55404  1.0000
  C   C35       1.0  0.19871  0.17356  0.55367  1.0000
  C   C36       1.0  0.18008  0.18008  0.53424  1.0000
  C   C37       1.0  0.17381  0.15986  0.51565  1.0000
  C   C38       1.0  0.18729  0.13384  0.51616  1.0000
  C   C39       1.0  0.20712  0.12814  0.53519  1.0000
  H   H63       1.0  0.20343  0.18912  0.56806  1.0000
  H   H64       1.0  0.17070  0.20088  0.53360  1.0000
  H   H65       1.0  0.18240  0.11804  0.50192  1.0000
  H   H66       1.0  0.21759  0.10807  0.53545  1.0000
  C   C40       1.0  0.17947  0.21086  0.37052  1.0000
  C   C41       1.0  0.32547  0.11868  0.53764  1.0000
  H   H67       1.0  0.31939  0.03023  0.42808  1.0000
  H   H68       1.0  0.22966  0.27003  0.41642  1.0000
  H   H69       1.0  0.33533  0.06847  0.45962  1.0000
  C   C42       1.0  0.09797  0.05967  0.56520  1.0000
  C   C43       1.0  0.29723  0.30275  0.41362  1.0000
  H   H70       1.0  0.41089  0.47309  0.61482  1.0000
  H   H71       1.0  0.28131  0.23066  0.42549  1.0000
  H   H72       1.0  0.03919  0.16569  0.38144  1.0000
  C   C44       1.0  0.01786  0.07720  0.63615  1.0000
  H   H73       1.0  0.30832  0.44842  0.39954  1.0000
  H   H74       1.0  0.36976  0.40734  0.62049  1.0000
  H   H75       1.0  0.37658  0.42785  0.43998  1.0000
  H   H76       1.0  0.34570  0.29263  0.37660  1.0000
  N   N3        1.0  0.36056  0.36763  0.65093  1.0000
  H   H77       1.0  0.27647  0.00006  0.49558  1.0000
  H   H78       1.0  0.36597  0.13523  0.61014  1.0000
  C   C45       1.0  0.00502  0.09524  0.56470  1.0000
  H   H79       1.0  0.06300  0.12707  0.52498  1.0000
  H   H80       1.0  0.08184  0.04474  0.58323  1.0000
  H   H81       1.0  0.35839  0.01103  0.45147  1.0000
  C   C46       1.0  0.31702  0.32786  0.37004  1.0000
  H   H82       1.0  0.34494  0.16697  0.51189  1.0000
  H   H83       1.0  0.30202  0.36283  0.61833  1.0000
  C   C47       1.0  0.16884  0.10915  0.34718  1.0000
  H   H84       1.0  0.29217  0.30905  0.43161  1.0000
  C   C48       1.0  0.06493  0.19058  0.50454  1.0000
  H   H85       1.0  0.23153  0.04689  0.58919  1.0000
  S   S18       1.0  0.35594  0.43115  0.34695  1.0000
  H   H86       1.0  0.24235  0.05470  0.65699  1.0000
  H   H87       1.0  0.27226  0.08786  0.60915  1.0000
  H   H88       1.0  0.17606  0.31896  0.37375  1.0000
  H   H89       1.0  0.34287  0.10956  0.52580  1.0000
  H   H90       1.0  0.07725  0.02816  0.39867  1.0000
  H   H91       1.0  0.29395  0.03118  0.54019  1.0000
  C   C49       1.0  0.38837  0.35802  0.63578  1.0000
  C   C50       1.0  0.33218  0.99314  0.55464  1.0000
  H   H92       1.0  0.29476  0.34404  0.66380  1.0000
  H   H93       1.0  0.24794  0.28243  0.63745  1.0000
  C   C51       1.0  0.06456  0.14547  0.53779  1.0000
  H   H94       1.0  0.25883  0.26000  0.39400  1.0000
  C   C52       1.0  0.39724  0.43758  0.64862  1.0000
  H   H95       1.0  0.28760  0.99280  0.58132  1.0000
  C   C53       1.0  0.30381  0.05663  0.45402  1.0000
  H   H96       1.0  0.09072  0.09153  0.53576  1.0000
  H   H97       1.0  0.29469  0.13094  0.50899  1.0000
  C   C54       1.0  0.30244  0.08500  0.43558  1.0000
  N   N4        1.0  0.29043  0.06009  0.56863  1.0000
  S   S19       1.0  0.06053  0.11523  0.64285  1.0000
  H   H98       1.0  0.34410  0.02411  0.47748  1.0000
  H   H99       1.0  0.40489  0.99061  0.47152  1.0000
  H   H100      1.0  0.22534  0.29562  0.38207  1.0000
  H   H101      1.0  0.28082  0.05149  0.46966  1.0000
  H   H102      1.0  0.42841  0.43906  0.64742  1.0000
  C   C55       1.0  0.25278  0.30945  0.62969  1.0000
  C   C56       1.0  0.19952  0.33123  0.38593  1.0000
  H   H103      1.0  0.07000  0.17535  0.49118  1.0000
  H   H104      1.0  0.25096  0.01667  0.59725  1.0000
  C   C57       1.0  0.31746  0.07862  0.58687  1.0000
  H   H105      1.0  0.27096  0.07500  0.42993  1.0000
  H   H106      1.0  0.32580  0.09224  0.41967  1.0000
  H   H107      1.0  0.20925  0.36041  0.38373  1.0000
  H   H108      1.0  0.22551  0.21184  0.42878  1.0000
  H   H109      1.0  0.37040  0.35811  0.40365  1.0000
  H   H110      1.0  0.25433  0.24218  0.44833  1.0000
  H   H111      1.0  0.21760  0.09691  0.35774  1.0000
  C   C58       1.0  0.19867  0.26256  0.33994  1.0000
  C   C59       1.0  0.09637  0.17930  0.58303  1.0000
  H   H112      1.0  0.33001  0.36397  0.43866  1.0000
  S   S20       1.0  0.18476  0.03469  0.46327  1.0000
  H   H113      1.0  0.07310  0.09702  0.37185  1.0000
  H   H114      1.0  0.37817  0.48485  0.37911  1.0000
  C   C60       1.0  0.09445  0.20427  0.59992  1.0000
  H   H115      1.0  0.30688  0.12578  0.58713  1.0000
  C   C61       1.0  0.07523  0.07912  0.55429  1.0000
  H   H116      1.0  0.05185  0.04916  0.62687  1.0000
  H   H117      1.0  0.28462  0.37323  0.38780  1.0000
  C   C62       1.0  0.33308  0.11905  0.61856  1.0000
  H   H118      1.0  0.23715  0.99189  0.47713  1.0000
  H   H119      1.0  0.11006  0.12900  0.56644  1.0000
  H   H120      1.0  0.09803  0.16493  0.53613  1.0000
  H   H121      1.0  0.00737  0.01886  0.47153  1.0000
  H   H122      1.0  0.03852  0.13334  0.59880  1.0000
  H   H123      1.0  0.31168  0.31212  0.65782  1.0000
  H   H124      1.0  0.11536  0.16733  0.59053  1.0000
  H   H125      1.0  0.11270  0.19604  0.56554  1.0000
  H   H126      1.0  0.07750  0.21857  0.59288  1.0000
  C   C63       1.0  0.25642  0.01370  0.64640  1.0000
  H   H127      1.0  0.23411  0.31767  0.64140  1.0000
  H   H128      1.0  0.16055  0.99576  0.58804  1.0000
  H   H129      1.0  0.09108  0.17286  0.34922  1.0000
  H   H130      1.0  0.16595  0.05964  0.36523  1.0000
  C   C64       1.0  0.05306  0.14720  0.38276  1.0000
  C   C65       1.0  0.31567  0.14476  0.52196  1.0000
  C   C66       1.0  0.18206  0.00598  0.44282  1.0000
  H   H131      1.0  0.06943  0.09666  0.58827  1.0000
  H   H132      1.0  0.21125  0.02149  0.55139  1.0000
  H   H133      1.0  0.29501  0.48421  0.39342  1.0000
  H   H134      1.0  0.12655  0.22448  0.60177  1.0000
  H   H135      1.0  0.09575  0.21180  0.50753  1.0000
  C   C67       1.0  0.40126  0.47166  0.63400  1.0000
  H   H136      1.0  0.24860  0.33539  0.36059  1.0000
  H   H137      1.0  0.31558  0.32775  0.61433  1.0000
  C   C68       1.0  0.04484  0.01380  0.39642  1.0000
  H   H138      1.0  0.09841  0.04025  0.55376  1.0000
  H   H139      1.0  0.16832  0.12026  0.36377  1.0000
  C   C69       1.0  0.24802  0.03303  0.58156  1.0000
  C   C70       1.0  0.04124  0.16561  0.52793  1.0000
  H   H140      1.0  0.33066  0.09752  0.63254  1.0000
  H   H141      1.0  0.40561  0.40748  0.42737  1.0000
  H   H142      1.0  0.03748  0.18250  0.54038  1.0000
  H   H143      1.0  0.33410  0.40401  0.64468  1.0000
  H   H144      1.0  0.34038  0.02475  0.58267  1.0000
  H   H145      1.0  0.17281  0.48357  0.36209  1.0000
  C   C71       1.0  0.07680  0.10839  0.56900  1.0000
  H   H146      1.0  0.36261  0.01198  0.54387  1.0000
  H   H147      1.0  0.25765  0.34018  0.41371  1.0000
  H   H148      1.0  0.31699  0.39323  0.41980  1.0000
  H   H149      1.0  0.45336  0.33966  0.63312  1.0000
  H   H150      1.0  0.44510  0.40871  0.62386  1.0000
  H   H151      1.0  0.39196  0.43640  0.40819  1.0000
  C   C72       1.0  0.31698  0.01288  0.57041  1.0000
  C   C73       1.0  0.46036  0.36590  0.62263  1.0000
  H   H152      1.0  0.38273  0.33983  0.37140  1.0000
  H   H153      1.0  0.30423  0.46296  0.36935  1.0000
  H   H154      1.0  0.04688  0.20364  0.49724  1.0000
  H   H155      1.0  0.26486  0.01364  0.43548  1.0000
  H   H156      1.0  0.15730  0.19105  0.38473  1.0000
  H   H157      1.0  0.10560  0.06724  0.35468  1.0000
  C   C74       1.0  0.06906  0.14501  0.35781  1.0000
  Fe  Fe11      1.0  0.20462  0.15439  0.66233  1.0000
  H   H158      1.0  0.02022  0.05912  0.35604  1.0000
  H   H159      1.0  0.38206  0.35919  0.61696  1.0000
  C   C75       1.0  0.28491  0.08625  0.55095  1.0000
  H   H160      1.0  0.34286  0.06263  0.54669  1.0000
  C   C76       1.0  0.23683  0.32487  0.37981  1.0000
  N   N5        1.0  0.04920  0.12515  0.56286  1.0000
  C   C77       1.0  0.25491  0.23629  0.42981  1.0000
  H   H161      1.0  0.27598  0.23854  0.34124  1.0000
  C   C78       1.0  0.43582  0.38221  0.63468  1.0000
  H   H162      1.0  0.07884  0.15758  0.39374  1.0000
  H   H163      1.0  0.39492  0.00878  0.49720  1.0000
  H   H164      1.0  0.13064  0.07907  0.56666  1.0000
  H   H165      1.0  0.37118  0.47248  0.63621  1.0000
  H   H166      1.0  0.04545  0.03651  0.34222  1.0000
  C   C79       1.0  0.34017  0.38335  0.42184  1.0000
  H   H167      1.0  0.13989  0.23487  0.36273  1.0000
  H   H168      1.0  0.38100  0.32959  0.64161  1.0000
  C   C80       1.0  0.38117  0.41572  0.42445  1.0000
  C   C81       1.0  0.16971  0.23582  0.35804  1.0000
  H   H169      1.0  0.35950  0.38755  0.38442  1.0000
  C   C82       1.0  0.34576  0.36593  0.40015  1.0000
  C   C83       1.0  0.29450  0.02193  0.44336  1.0000
  N   N6        1.0  0.30723  0.33439  0.39470  1.0000
  H   H170      1.0  0.03085  0.07596  0.47025  1.0000
  H   H171      1.0  0.04294  0.05847  0.55355  1.0000
  C   C84       1.0  0.25817  0.26739  0.41197  1.0000
  H   H172      1.0  0.02863  0.12036  0.39169  1.0000
  C   C85       1.0  0.02191  0.04865  0.62830  1.0000
  C   C86       1.0  0.18712  0.00370  0.66078  1.0000
  C   C87       1.0  0.31595  0.33936  0.65119  1.0000
  H   H173      1.0  0.44542  0.38614  0.65264  1.0000
  C   C88       1.0  0.00759  0.08413  0.47646  1.0000
  C   C89       1.0  0.35373  0.31916  0.36619  1.0000
  H   H174      1.0  0.32356  0.13684  0.62726  1.0000
  H   H175      1.0  0.24141  0.30772  0.61203  1.0000
  C   C90       1.0  0.22975  0.02692  0.65461  1.0000
  C   C91       1.0  0.19122  0.01837  0.41825  1.0000
  Fe  Fe12      1.0  0.16843  0.07528  0.65742  1.0000
  S   S21       1.0  0.03219  0.06159  0.42074  1.0000
  C   C92       1.0  0.31408  0.47216  0.38649  1.0000
  C   C93       1.0  0.24643  0.23796  0.34605  1.0000
  H   H176      1.0  0.05119  0.13914  0.46120  1.0000
  C   C94       1.0  0.01802  0.11974  0.46103  1.0000
  C   C95       1.0  0.01638  0.02430  0.40578  1.0000
  H   H177      1.0  0.01016  0.14599  0.52413  1.0000
  H   H178      1.0  0.45263  0.36204  0.60427  1.0000
  H   H179      1.0  0.01165  0.08927  0.49504  1.0000
  C   C96       1.0  0.03208  0.05509  0.33877  1.0000
  H   H180      1.0  0.09747  0.99819  0.60573  1.0000
  H   H181      1.0  0.38909  0.31068  0.33752  1.0000
  C   C97       1.0  0.19130  0.99541  0.40231  1.0000
  C   C98       1.0  0.12434  0.09002  0.33999  1.0000
  C   C99       1.0  0.18676  0.08302  0.35144  1.0000
  H   H182      1.0  0.01362  0.11610  0.44220  1.0000
  H   H183      1.0  0.38753  0.43765  0.66747  1.0000
  N   N7        1.0  0.29188  0.99072  0.46034  1.0000
  C   C100      1.0  0.43947  0.45588  0.34482  1.0000
  H   H184      1.0  0.24462  0.46153  0.33723  1.0000
  C   C101      1.0  0.36344  0.31781  0.33987  1.0000
  H   H185      1.0  0.49428  0.38420  0.62150  1.0000
  Fe  Fe13      1.0  0.24336  0.36860  0.71378  1.0000
  S   S22       1.0  0.29892  0.41600  0.69256  1.0000
  S   S23       1.0  0.20057  0.32172  0.69700  1.0000
  Fe  Fe14      1.0  0.25511  0.40220  0.75906  1.0000
  S   S24       1.0  0.31183  0.45265  0.74206  1.0000
  S   S25       1.0  0.22474  0.38820  0.79715  1.0000
  Fe  Fe15      1.0  0.27633  0.44923  0.71091  1.0000
  Fe  Fe16      1.0  0.32981  0.41562  0.72518  1.0000
  S   S26       1.0  0.21760  0.40190  0.72932  1.0000
  S   S27       1.0  0.27639  0.36507  0.74497  1.0000
  C   C102      1.0  0.25536  0.40878  0.81906  1.0000
  C   C103      1.0  0.24201  0.39184  0.84280  1.0000
  C   C104      1.0  0.26698  0.40560  0.86058  1.0000
  C   C105      1.0  0.30454  0.43745  0.85502  1.0000
  C   C106      1.0  0.29275  0.44095  0.81339  1.0000
  H   H186      1.0  0.21313  0.36707  0.84733  1.0000
  H   H187      1.0  0.25754  0.39117  0.87864  1.0000
  H   H188      1.0  0.28174  0.25659  0.70765  1.0000
  C   C107      1.0  0.12395  0.32170  0.74949  1.0000
  H   H189      1.0  0.29898  0.32041  0.82217  1.0000
  H   H190      1.0  0.28151  0.35148  0.83092  1.0000
  C   C108      1.0  0.25563  0.25752  0.70025  1.0000
  S   S28       1.0  0.33880  0.44984  0.87658  1.0000
  C   C109      1.0  0.21284  0.28687  0.69357  1.0000
  C   C110      1.0  0.24744  0.28641  0.70243  1.0000
  C   C111      1.0  0.12283  0.41433  0.81590  1.0000
  N   N8        1.0  0.15790  0.25032  0.77429  1.0000
  C   C112      1.0  0.14047  0.21232  0.76915  1.0000
  C   C113      1.0  0.14756  0.24945  0.80058  1.0000
  C   C114      1.0  0.13569  0.26777  0.76090  1.0000
  C   C115      1.0  0.20429  0.27226  0.76647  1.0000
  C   C116      1.0  0.23057  0.25187  0.76766  1.0000
  C   C117      1.0  0.14220  0.20865  0.74231  1.0000
  C   C118      1.0  0.14485  0.30575  0.76587  1.0000
  H   H191      1.0  0.29497  0.26232  0.76506  1.0000
  C   C119      1.0  0.27716  0.27768  0.76525  1.0000
  H   H192      1.0  0.10718  0.19638  0.77718  1.0000
  H   H193      1.0  0.15624  0.19809  0.77778  1.0000
  H   H194      1.0  0.15955  0.27716  0.80477  1.0000
  H   H195      1.0  0.11307  0.23605  0.80560  1.0000
  H   H196      1.0  0.10128  0.25037  0.76469  1.0000
  H   H197      1.0  0.14386  0.27065  0.74128  1.0000
  H   H198      1.0  0.21067  0.28579  0.74766  1.0000
  H   H199      1.0  0.21776  0.29472  0.77692  1.0000
  H   H200      1.0  0.22552  0.23591  0.75290  1.0000
  H   H201      1.0  0.22234  0.23300  0.78448  1.0000
  H   H202      1.0  0.09732  0.41653  0.82621  1.0000
  H   H203      1.0  0.17886  0.32424  0.76309  1.0000
  H   H204      1.0  0.16476  0.43234  0.84175  1.0000
  H   H205      1.0  0.12977  0.34827  0.75394  1.0000
  H   H206      1.0  0.28444  0.29277  0.78047  1.0000
  H   H207      1.0  0.28740  0.29690  0.74838  1.0000
  H   H208      1.0  0.13215  0.30472  0.78437  1.0000
  H   H209      1.0  0.08976  0.30398  0.75180  1.0000
  H   H210      1.0  0.13675  0.32545  0.73053  1.0000
  H   H211      1.0  0.26769  0.30825  0.71102  1.0000
  C   C120      1.0  0.29171  0.34222  0.81548  1.0000
  H   H212      1.0  0.12182  0.42019  0.79651  1.0000
  C   C121      1.0  0.31695  0.45564  0.83149  1.0000
  H   H213      1.0  0.30306  0.45445  0.79514  1.0000
  H   H214      1.0  0.20016  0.24783  0.81610  1.0000
  H   H215      1.0  0.17193  0.22955  0.73207  1.0000
  C   C122      1.0  0.16577  0.23150  0.81805  1.0000
  H   H216      1.0  0.23099  0.45635  0.84704  1.0000
  H   H217      1.0  0.13732  0.17006  0.71907  1.0000
  H   H218      1.0  0.11655  0.21183  0.73470  1.0000
  C   C123      1.0  0.13757  0.17204  0.73837  1.0000
  H   H219      1.0  0.15748  0.20377  0.81521  1.0000
  H   H220      1.0  0.16426  0.16866  0.74414  1.0000
  H   H221      1.0  0.10796  0.15010  0.74833  1.0000
  C   C124      1.0  0.14938  0.22948  0.84392  1.0000
  H   H222      1.0  0.26556  0.33145  0.80475  1.0000
  H   H223      1.0  0.08483  0.01427  0.73563  1.0000
  H   H224      1.0  0.08101  0.04898  0.71611  1.0000
  C   C125      1.0  0.06303  0.02374  0.72898  1.0000
  H   H225      1.0  0.04791  0.02959  0.74430  1.0000
  H   H226      1.0  0.11497  0.21279  0.84729  1.0000
  C   C126      1.0  0.16514  0.44007  0.82244  1.0000
  H   H227      1.0  0.15780  0.25678  0.84804  1.0000
  H   H228      1.0  0.16341  0.21712  0.85614  1.0000
  H   H229      1.0  0.11775  0.38632  0.82008  1.0000
  C   C127      1.0  0.23024  0.22972  0.68840  1.0000
  H   H230      1.0  0.31971  0.39213  0.79139  1.0000
  C   C128      1.0  0.32983  0.37322  0.80008  1.0000
  H   H231      1.0  0.00917  0.00623  0.71096  1.0000
  H   H232      1.0  0.45080  0.48419  0.86678  1.0000
  C   C129      1.0  0.18690  0.25868  0.68216  1.0000
  H   H233      1.0  0.20303  0.45414  0.88806  1.0000
  H   H234      1.0  0.18876  0.43574  0.81205  1.0000
  H   H235      1.0  0.25433  0.45782  0.88702  1.0000
  H   H236      1.0  0.35130  0.40477  0.82778  1.0000
  H   H237      1.0  0.16000  0.25888  0.67532  1.0000
  C   C130      1.0  0.19578  0.23029  0.67938  1.0000
  H   H238      1.0  0.33995  0.30942  0.68933  1.0000
  H   H239      1.0  0.34034  0.36199  0.78599  1.0000
  H   H240      1.0  0.34644  0.37246  0.68745  1.0000
  H   H241      1.0  0.35405  0.34129  0.72487  1.0000
  H   H242      1.0  0.06534  0.01191  0.68258  1.0000
  S   S29       1.0  0.14382  0.10608  0.67713  1.0000
  C   C131      1.0  0.36948  0.36774  0.67649  1.0000
  S   S30       1.0  0.24255  0.19483  0.68515  1.0000
  C   C132      1.0  0.43828  0.48524  0.77739  1.0000
  H   H243      1.0  0.34607  0.48024  0.82714  1.0000
  H   H244      1.0  0.14838  0.48051  0.82908  1.0000
  C   C133      1.0  0.02985  0.99519  0.71711  1.0000
  C   C134      1.0  0.23651  0.47208  0.88150  1.0000
  H   H245      1.0  0.16679  0.48442  0.79863  1.0000
  H   H246      1.0  0.22637  0.47494  0.73468  1.0000
  H   H247      1.0  0.40462  0.40074  0.76866  1.0000
  H   H248      1.0  0.37837  0.47617  0.69522  1.0000
  H   H249      1.0  0.45796  0.47957  0.76461  1.0000
  C   C135      1.0  0.46035  0.47160  0.85313  1.0000
  C   C136      1.0  0.42424  0.45281  0.83904  1.0000
  H   H250      1.0  0.42232  0.35309  0.75888  1.0000
  H   H251      1.0  0.44616  0.37629  0.80727  1.0000
  H   H252      1.0  0.40022  0.39023  0.67810  1.0000
  C   C137      1.0  0.42542  0.37168  0.79324  1.0000
  H   H253      1.0  0.46784  0.45480  0.80989  1.0000
  H   H254      1.0  0.39492  0.32949  0.67991  1.0000
  C   C138      1.0  0.36453  0.39274  0.81549  1.0000
  C   C139      1.0  0.39860  0.45043  0.78876  1.0000
  H   H255      1.0  0.37968  0.45814  0.80058  1.0000
  N   N9        1.0  0.40557  0.42118  0.80194  1.0000
  C   C140      1.0  0.44286  0.35929  0.77309  1.0000
  H   H256      1.0  0.39420  0.34935  0.80063  1.0000
  C   C141      1.0  0.43635  0.43539  0.81941  1.0000
  C   C142      1.0  0.42292  0.40629  0.78389  1.0000
  H   H257      1.0  0.44063  0.41342  0.82917  1.0000
  C   C143      1.0  0.42799  0.46938  0.70960  1.0000
  C   C144      1.0  0.36993  0.33360  0.68904  1.0000
  H   H258      1.0  0.46904  0.45203  0.86235  1.0000
  C   C145      1.0  0.37797  0.33668  0.71488  1.0000
  H   H259      1.0  0.37676  0.31151  0.72375  1.0000
  H   H260      1.0  0.48363  0.47146  0.72183  1.0000
  H   H261      1.0  0.39788  0.43185  0.85194  1.0000
  C   C146      1.0  0.41124  0.48845  0.69663  1.0000
  C   C147      1.0  0.47055  0.48598  0.71167  1.0000
  H   H262      1.0  0.45497  0.42672  0.77582  1.0000
  H   H263      1.0  0.37979  0.44042  0.77406  1.0000
  H   H264      1.0  0.36902  0.37251  0.82738  1.0000
  H   H265      1.0  0.41476  0.47273  0.83154  1.0000
  H   H266      1.0  0.40924  0.35932  0.71553  1.0000
  S   S31       1.0  0.39554  0.42490  0.72319  1.0000
  H   H267      1.0  0.44468  0.33465  0.78014  1.0000
  H   H268      1.0  0.47466  0.38040  0.76527  1.0000
  H   H269      1.0  0.20943  0.46947  0.97978  1.0000
  H   H270      1.0  0.24965  0.48068  0.80864  1.0000
  C   C148      1.0  0.24326  0.48171  0.85439  1.0000
  C   C149      1.0  0.17314  0.47944  0.81719  1.0000
  H   H271      1.0  0.26360  0.48789  0.96850  1.0000
  S   S32       1.0  0.15339  0.01889  0.67252  1.0000
  H   H272      1.0  0.17580  0.20876  0.67043  1.0000
  Fe  Fe17      1.0  0.36691  0.71105  0.30101  1.0000
  S   S33       1.0  0.31511  0.72227  0.29104  1.0000
  S   S34       1.0  0.43440  0.75052  0.29160  1.0000
  C   C150      1.0  0.47191  0.54993  0.02493  1.0000
  S   S35       1.0  0.25197  0.63990  0.31766  1.0000
  H   H273      1.0  0.26310  0.58533  0.05814  1.0000
  Fe  Fe18      1.0  0.28850  0.66654  0.28142  1.0000
  S   S36       1.0  0.25794  0.65206  0.24839  1.0000
  H   H274      1.0  0.26673  0.60181  0.13524  1.0000
  C   C151      1.0  0.48187  0.75961  0.22598  1.0000
  S   S37       1.0  0.34269  0.65742  0.28892  1.0000
  C   C152      1.0  0.48204  0.52044  0.23891  1.0000
  H   H275      1.0  0.14679  0.49823  0.23702  1.0000
  H   H276      1.0  0.21365  0.57909  0.14955  1.0000
  H   H277      1.0  0.34068  0.63298  0.02155  1.0000
  C   C153      1.0  0.49980  0.59263  0.05259  1.0000
  H   H278      1.0  0.36413  0.50086  0.16306  1.0000
  S   S38       1.0  0.37813  0.57710  0.16481  1.0000
  Fe  Fe19      1.0  0.39346  0.59716  0.09516  1.0000
  S   S39       1.0  0.33584  0.58971  0.11721  1.0000
  S   S40       1.0  0.40792  0.61603  0.05522  1.0000
  Fe  Fe20      1.0  0.37909  0.62325  0.14118  1.0000
  S   S41       1.0  0.37071  0.66853  0.15344  1.0000
  Fe  Fe21      1.0  0.33940  0.54411  0.13905  1.0000
  H   H279      1.0  0.46637  0.70528  0.14844  1.0000
  H   H280      1.0  0.31585  0.57274  0.01315  1.0000
  C   C154      1.0  0.39150  0.58558  0.03481  1.0000
  C   C155      1.0  0.35384  0.52528  0.02558  1.0000
  C   C156      1.0  0.36522  0.54895  0.04236  1.0000
  C   C157      1.0  0.49952  0.69329  0.32815  1.0000
  H   H281      1.0  0.35383  0.53886  0.06111  1.0000
  S   S42       1.0  0.39301  0.54816  0.11488  1.0000
  H   H282      1.0  0.22127  0.73127  0.32025  1.0000
  C   C158      1.0  0.42676  0.57840  0.33319  1.0000
  C   C159      1.0  0.41083  0.60281  0.29469  1.0000
  H   H283      1.0  0.27796  0.81460  0.32793  1.0000
  C   C160      1.0  0.24468  0.52913  0.29926  1.0000
  S   S43       1.0  0.48603  0.57884  0.15136  1.0000
  C   C161      1.0  0.44367  0.55728  0.23987  1.0000
  H   H284      1.0  0.44321  0.55283  0.02413  1.0000
  C   C162      1.0  0.29017  0.65601  0.22256  1.0000
  C   C163      1.0  0.31532  0.63898  0.22247  1.0000
  C   C164      1.0  0.33901  0.64124  0.20106  1.0000
  C   C165      1.0  0.33833  0.66132  0.17998  1.0000
  C   C166      1.0  0.31351  0.67851  0.18030  1.0000
  C   C167      1.0  0.28878  0.67512  0.20131  1.0000
  H   H285      1.0  0.31605  0.62372  0.23880  1.0000
  H   H286      1.0  0.35852  0.62823  0.20094  1.0000
  H   H287      1.0  0.31306  0.69426  0.16412  1.0000
  H   H288      1.0  0.26908  0.68797  0.20120  1.0000
  C   C168      1.0  0.39587  0.58877  0.32123  1.0000
  H   H289      1.0  0.42601  0.62682  0.00450  1.0000
  H   H290      1.0  0.15837  0.50954  0.27821  1.0000
  C   C169      1.0  0.15689  0.52995  0.26483  1.0000
  C   C170      1.0  0.29719  0.60136  0.05251  1.0000
  C   C171      1.0  0.26461  0.55736  0.31191  1.0000
  H   H291      1.0  0.30953  0.62447  0.06240  1.0000
  H   H292      1.0  0.20000  0.55539  0.19233  1.0000
  H   H293      1.0  0.29556  0.56736  0.21650  1.0000
  H   H294      1.0  0.27054  0.58400  0.30449  1.0000
  H   H295      1.0  0.23447  0.55624  0.24290  1.0000
  C   C172      1.0  0.46090  0.73009  0.30585  1.0000
  H   H296      1.0  0.47125  0.76403  0.24348  1.0000
  H   H297      1.0  0.42964  0.64093  0.21367  1.0000
  S   S44       1.0  0.43696  0.63461  0.11741  1.0000
  C   C173      1.0  0.47731  0.49687  0.19175  1.0000
  C   C174      1.0  0.23216  0.56105  0.19494  1.0000
  N   N10       1.0  0.23228  0.53106  0.21180  1.0000
  Fe  Fe22      1.0  0.43196  0.58497  0.13890  1.0000
  C   C175      1.0  0.29345  0.58361  0.01111  1.0000
  C   C176      1.0  0.24666  0.59388  0.15261  1.0000
  C   C177      1.0  0.23806  0.49467  0.30808  1.0000
  H   H298      1.0  0.27097  0.86908  0.31625  1.0000
  H   H299      1.0  0.29147  0.58540  0.17117  1.0000
  H   H300      1.0  0.17803  0.55722  0.26851  1.0000
  C   C178      1.0  0.30653  0.61504  0.02567  1.0000
  H   H301      1.0  0.18336  0.50460  0.17215  1.0000
  C   C179      1.0  0.49793  0.63487  0.17483  1.0000
  H   H302      1.0  0.26296  0.56194  0.02043  1.0000
  C   C180      1.0  0.45149  0.71812  0.33046  1.0000
  C   C181      1.0  0.28479  0.51446  0.23162  1.0000
  C   C182      1.0  0.49189  0.50824  0.31798  1.0000
  H   H303      1.0  0.46519  0.57260  0.25215  1.0000
  H   H304      1.0  0.14949  0.49452  0.19922  1.0000
  C   C183      1.0  0.46189  0.74371  0.16946  1.0000
  H   H305      1.0  0.34118  0.52077  0.21113  1.0000
  H   H306      1.0  0.17089  0.75596  0.32120  1.0000
  H   H307      1.0  0.45464  0.67496  0.25890  1.0000
  H   H308      1.0  0.41299  0.55588  0.24489  1.0000
  H   H309      1.0  0.27671  0.51775  0.25000  1.0000
  C   C184      1.0  0.20955  0.49470  0.20416  1.0000
  H   H310      1.0  0.48652  0.80764  0.20369  1.0000
  C   C185      1.0  0.46035  0.51339  0.30828  1.0000
  H   H311      1.0  0.24488  0.58625  0.20287  1.0000
  C   C186      1.0  0.44745  0.53120  0.06795  1.0000
  H   H312      1.0  0.29004  0.63098  0.02154  1.0000
  C   C187      1.0  0.33075  0.52373  0.22911  1.0000
  H   H313      1.0  0.42481  0.54200  0.06701  1.0000
  H   H314      1.0  0.45638  0.53278  0.08626  1.0000
  C   C188      1.0  0.25763  0.57027  0.16994  1.0000
  H   H315      1.0  0.43155  0.55964  0.32275  1.0000
  H   H316      1.0  0.36128  0.76783  0.32989  1.0000
  H   H317      1.0  0.12455  0.52620  0.26674  1.0000
  Fe  Fe23      1.0  0.28391  0.69438  0.32820  1.0000
  H   H318      1.0  0.33380  0.49688  0.03151  1.0000
  H   H319      1.0  0.49646  0.53114  0.25478  1.0000
  H   H320      1.0  0.40913  0.80911  0.32838  1.0000
  H   H321      1.0  0.47891  0.77302  0.16916  1.0000
  H   H322      1.0  0.45578  0.57181  0.22133  1.0000
  H   H323      1.0  0.25211  0.54573  0.16239  1.0000
  H   H324      1.0  0.16539  0.54575  0.22710  1.0000
  H   H325      1.0  0.05076  0.77176  0.30293  1.0000
  H   H326      1.0  0.42981  0.73687  0.16571  1.0000
  N   N11       1.0  0.44575  0.73155  0.21619  1.0000
  C   C189      1.0  0.41294  0.74299  0.21150  1.0000
  C   C190      1.0  0.46035  0.72212  0.19372  1.0000
  C   C191      1.0  0.42586  0.69826  0.23494  1.0000
  C   C192      1.0  0.16905  0.52572  0.23956  1.0000
  C   C193      1.0  0.43882  0.51940  0.24156  1.0000
  C   C194      1.0  0.39275  0.75129  0.23323  1.0000
  C   C195      1.0  0.45169  0.67786  0.23959  1.0000
  C   C196      1.0  0.27716  0.53954  0.21287  1.0000
  H   H327      1.0  0.46840  0.53572  0.29426  1.0000
  H   H328      1.0  0.36441  0.56545  0.32288  1.0000
  C   C197      1.0  0.36126  0.76363  0.22579  1.0000
  C   C198      1.0  0.43103  0.64008  0.23311  1.0000
  H   H329      1.0  0.38723  0.72162  0.20402  1.0000
  H   H330      1.0  0.42539  0.76716  0.19765  1.0000
  H   H331      1.0  0.31239  0.58452  0.05738  1.0000
  H   H332      1.0  0.43943  0.69365  0.19212  1.0000
  H   H333      1.0  0.39479  0.67922  0.23080  1.0000
  H   H334      1.0  0.41916  0.70506  0.25250  1.0000
  H   H335      1.0  0.38818  0.60997  0.28667  1.0000
  H   H336      1.0  0.41325  0.58199  0.28544  1.0000
  H   H337      1.0  0.21287  0.50836  0.24915  1.0000
  H   H338      1.0  0.44166  0.62719  0.29205  1.0000
  H   H339      1.0  0.37565  0.72706  0.24700  1.0000
  H   H340      1.0  0.41655  0.77299  0.24131  1.0000
  H   H341      1.0  0.46279  0.52256  0.02092  1.0000
  H   H342      1.0  0.29169  0.53852  0.19531  1.0000
  H   H343      1.0  0.35002  0.55178  0.23203  1.0000
  H   H344      1.0  0.41990  0.50635  0.22768  1.0000
  Fe  Fe24      1.0  0.30869  0.63557  0.32608  1.0000
  H   H345      1.0  0.25185  0.61871  0.15974  1.0000
  C   C199      1.0  0.40564  0.59848  0.01041  1.0000
  C   C200      1.0  0.21402  0.53076  0.23646  1.0000
  H   H346      1.0  0.33552  0.50532  0.24249  1.0000
  C   C201      1.0  0.48289  0.73456  0.14902  1.0000
  H   H347      1.0  0.33546  0.74205  0.21868  1.0000
  H   H348      1.0  0.34777  0.77003  0.24151  1.0000
  H   H349      1.0  0.37649  0.78807  0.21202  1.0000
  H   H350      1.0  0.48396  0.69235  0.23032  1.0000
  H   H351      1.0  0.44978  0.62652  0.23816  1.0000
  H   H352      1.0  0.39900  0.62408  0.24281  1.0000
  H   H353      1.0  0.23536  0.53438  0.28241  1.0000
  N   N12       1.0  0.48504  0.55392  0.04948  1.0000
  H   H354      1.0  0.36169  0.83542  0.33591  1.0000
  C   C202      1.0  0.24805  0.84720  0.33027  1.0000
  H   H355      1.0  0.22118  0.82915  0.32184  1.0000
  H   H356      1.0  0.39322  0.61043  0.32924  1.0000
  H   H357      1.0  0.02151  0.72403  0.30365  1.0000
  H   H358      1.0  0.45699  0.60341  0.33036  1.0000
  C   C203      1.0  0.48983  0.72387  0.29244  1.0000
  C   C204      1.0  0.27677  0.55101  0.33391  1.0000
  H   H359      1.0  0.47990  0.58961  0.09056  1.0000
  C   C205      1.0  0.01922  0.74825  0.30739  1.0000
  H   H360      1.0  0.47317  0.49743  0.15390  1.0000
  H   H361      1.0  0.46316  0.51515  0.19190  1.0000
  H   H362      1.0  0.42108  0.50441  0.25928  1.0000
  H   H363      1.0  0.49711  0.73292  0.27344  1.0000
  H   H364      1.0  0.48187  0.74896  0.13177  1.0000
  H   H365      1.0  0.47640  0.60134  0.04763  1.0000
  H   H366      1.0  0.47815  0.63971  0.16322  1.0000
  H   H367      1.0  0.49192  0.72457  0.19456  1.0000
  H   H368      1.0  0.39388  0.49287  0.30882  1.0000
  C   C206      1.0  0.00288  0.74322  0.33371  1.0000
  C   C207      1.0  0.42349  0.49060  0.06674  1.0000
  H   H369      1.0  0.49087  0.49092  0.04182  1.0000
  S   S45       1.0  0.28350  0.49167  0.15383  1.0000
  H   H370      1.0  0.03286  0.79882  0.33658  1.0000
  Fe  Fe25      1.0  0.16733  0.87351  0.58894  1.0000
  S   S46       1.0  0.22855  0.92232  0.57770  1.0000
  H   H371      1.0  0.41325  0.91679  0.39992  1.0000
  Fe  Fe26      1.0  0.20543  0.83229  0.61503  1.0000
  S   S47       1.0  0.27036  0.87815  0.60657  1.0000
  S   S48       1.0  0.18643  0.77592  0.63282  1.0000
  Fe  Fe27      1.0  0.24085  0.91252  0.61500  1.0000
  H   H372      1.0  0.45464  0.67470  0.64259  1.0000
  Fe  Fe28      1.0  0.25330  0.88476  0.56987  1.0000
  S   S49       1.0  0.30224  0.90027  0.53840  1.0000
  S   S50       1.0  0.17731  0.86600  0.62712  1.0000
  S   S51       1.0  0.19073  0.83634  0.57746  1.0000
  Fe  Fe29      1.0  0.10604  0.80782  0.44021  1.0000
  S   S52       1.0  0.10503  0.82909  0.40260  1.0000
  S   S53       1.0  0.04974  0.78108  0.46790  1.0000
  Fe  Fe30      1.0  0.19679  0.82689  0.43198  1.0000
  S   S54       1.0  0.20371  0.84964  0.39358  1.0000
  S   S55       1.0  0.25411  0.82924  0.44569  1.0000
  Fe  Fe31      1.0  0.16609  0.87515  0.40682  1.0000
  S   S56       1.0  0.18406  0.93206  0.39088  1.0000
  Fe  Fe32      1.0  0.14246  0.80163  0.39266  1.0000
  H   H373      1.0  0.45038  0.80842  0.60057  1.0000
  S   S57       1.0  0.16411  0.85613  0.44545  1.0000
  S   S58       1.0  0.13857  0.77643  0.43017  1.0000
  S   S59       1.0  0.11039  0.87317  0.57583  1.0000
  N   N13       1.0  0.05437  0.76613  0.65952  1.0000
  H   H374      1.0  0.34708  0.52347  0.63005  1.0000
  H   H375      1.0  0.38555  0.87729  0.36394  1.0000
  H   H376      1.0  0.03473  0.83652  0.38621  1.0000
  N   N14       1.0  0.17703  0.59026  0.38379  1.0000
  C   C208      1.0  0.01431  0.85796  0.51332  1.0000
  H   H377      1.0  0.08887  0.82330  0.64845  1.0000
  H   H378      1.0  0.03412  0.82952  0.43520  1.0000
  H   H379      1.0  0.44044  0.59525  0.64954  1.0000
  H   H380      1.0  0.29842  0.79598  0.57186  1.0000
  C   C209      1.0  0.28686  0.87861  0.51355  1.0000
  C   C210      1.0  0.24524  0.86230  0.50930  1.0000
  C   C211      1.0  0.23471  0.84733  0.48831  1.0000
  C   C212      1.0  0.26568  0.84795  0.47196  1.0000
  C   C213      1.0  0.30703  0.86368  0.47652  1.0000
  C   C214      1.0  0.31763  0.87926  0.49710  1.0000
  H   H381      1.0  0.22135  0.86172  0.52196  1.0000
  H   H382      1.0  0.20258  0.83460  0.48508  1.0000
  H   H383      1.0  0.33098  0.86402  0.46403  1.0000
  H   H384      1.0  0.34978  0.89175  0.50035  1.0000
  H   H385      1.0  0.42929  0.72301  0.34091  1.0000
  H   H386      1.0  0.24601  0.75868  0.42998  1.0000
  H   H387      1.0  0.38323  0.87898  0.42350  1.0000
  H   H388      1.0  0.29797  0.71089  0.66567  1.0000
  C   C215      1.0  0.34136  0.81436  0.35125  1.0000
  H   H389      1.0  0.11880  0.54754  0.40309  1.0000
  H   H390      1.0  0.49460  0.60089  0.37461  1.0000
  C   C216      1.0  0.36551  0.79480  0.36086  1.0000
  S   S60       1.0  0.27371  0.96214  0.63168  1.0000
  H   H391      1.0  0.10752  0.76569  0.59111  1.0000
  C   C217      1.0  0.12692  0.60818  0.36266  1.0000
  C   C218      1.0  0.17008  0.56426  0.36634  1.0000
  C   C219      1.0  0.33088  0.65084  0.64947  1.0000
  H   H392      1.0  0.22751  0.65396  0.40244  1.0000
  H   H393      1.0  0.42820  0.57227  0.40732  1.0000
  H   H394      1.0  0.16256  0.55727  0.41829  1.0000
  C   C220      1.0  0.38198  0.89976  0.41037  1.0000
  H   H395      1.0  0.43746  0.53669  0.38532  1.0000
  H   H396      1.0  0.01755  0.79255  0.64939  1.0000
  H   H397      1.0  0.24340  0.80339  0.35526  1.0000
  C   C221      1.0  0.34962  0.88213  0.39385  1.0000
  C   C222      1.0  0.29274  0.80177  0.38809  1.0000
  H   H398      1.0  0.07049  0.95043  0.61585  1.0000
  H   H399      1.0  0.01177  0.69535  0.41607  1.0000
  C   C223      1.0  0.36088  0.85867  0.37874  1.0000
  H   H400      1.0  0.04297  0.78634  0.61220  1.0000
  H   H401      1.0  0.08024  0.94005  0.45437  1.0000
  C   C224      1.0  0.17121  0.96749  0.65827  1.0000
  H   H402      1.0  0.18109  0.96536  0.59706  1.0000
  N   N15       1.0  0.41444  0.56235  0.35932  1.0000
  H   H403      1.0  0.02732  0.73974  0.42296  1.0000
  H   H404      1.0  0.19388  0.63618  0.35660  1.0000
  H   H405      1.0  0.37312  0.91683  0.42038  1.0000
  C   C225      1.0  0.07150  0.78332  0.61331  1.0000
  H   H406      1.0  0.05201  0.74316  0.58963  1.0000
  H   H407      1.0  0.02387  0.85681  0.53132  1.0000
  C   C226      1.0  0.03355  0.88524  0.47157  1.0000
  H   H408      1.0  0.20564  0.71338  0.39685  1.0000
  H   H409      1.0  0.27801  0.68619  0.62657  1.0000
  H   H410      1.0  0.31884  0.86615  0.40490  1.0000
  H   H411      1.0  0.15732  0.73905  0.39770  1.0000
  C   C227      1.0  0.49154  0.57951  0.36411  1.0000
  C   C228      1.0  0.06814  0.92160  0.50157  1.0000
  H   H412      1.0  0.09963  0.75998  0.63622  1.0000
  H   H413      1.0  0.23503  0.69590  0.62924  1.0000
  S   S61       1.0  0.25723  0.70912  0.35938  1.0000
  H   H414      1.0  0.16491  0.92055  0.44217  1.0000
  C   C229      1.0  0.25676  0.69005  0.63939  1.0000
  H   H415      1.0  0.31762  0.81286  0.42207  1.0000
  H   H416      1.0  0.37643  0.84648  0.38975  1.0000
  C   C230      1.0  0.17073  0.73713  0.38080  1.0000
  H   H417      1.0  0.03829  0.78016  0.37631  1.0000
  C   C231      1.0  0.28319  0.64986  0.40607  1.0000
  H   H418      1.0  0.34045  0.73363  0.61756  1.0000
  H   H419      1.0  0.26890  0.80954  0.39458  1.0000
  H   H420      1.0  0.30905  0.97964  0.54257  1.0000
  H   H421      1.0  0.12608  0.97397  0.52520  1.0000
  H   H422      1.0  0.25622  0.75496  0.62565  1.0000
  H   H423      1.0  0.22990  0.58439  0.39468  1.0000
  C   C232      1.0  0.11124  0.57006  0.44637  1.0000
  C   C233      1.0  0.30875  0.79144  0.41080  1.0000
  H   H424      1.0  0.27501  0.77695  0.38050  1.0000
  H   H425      1.0  0.26838  0.73369  0.41618  1.0000
  H   H426      1.0  0.27347  0.93434  0.45902  1.0000
  C   C234      1.0  0.00443  0.77726  0.45684  1.0000
  C   C235      1.0  0.38586  0.78857  0.61547  1.0000
  H   H427      1.0  0.30023  0.83724  0.57793  1.0000
  H   H428      1.0  0.39222  0.62529  0.40535  1.0000
  C   C236      1.0  0.27509  0.75670  0.42584  1.0000
  H   H429      1.0  0.33637  0.78764  0.40666  1.0000
  H   H430      1.0  0.29092  0.75034  0.60435  1.0000
  H   H431      1.0  0.25370  0.79548  0.58828  1.0000
  C   C237      1.0  0.37973  0.63260  0.66982  1.0000
  C   C238      1.0  0.28989  0.76500  0.61924  1.0000
  C   C239      1.0  0.28829  0.80847  0.58530  1.0000
  H   H432      1.0  0.28599  0.75168  0.44291  1.0000
  C   C240      1.0  0.17262  0.97062  0.45133  1.0000
  H   H433      1.0  0.03463  0.98196  0.63278  1.0000
  H   H434      1.0  0.08926  0.90429  0.44559  1.0000
  H   H435      1.0  0.13707  0.55170  0.36290  1.0000
  H   H436      1.0  0.08375  0.78877  0.57486  1.0000
  H   H437      1.0  0.09816  0.81034  0.61272  1.0000
  C   C241      1.0  0.16361  0.50478  0.35717  1.0000
  H   H438      1.0  0.32807  0.87198  0.34148  1.0000
  H   H439      1.0  0.17315  0.63987  0.38418  1.0000
  C   C242      1.0  0.17228  0.94767  0.43541  1.0000
  H   H440      1.0  0.02118  0.85875  0.46566  1.0000
  C   C243      1.0  0.30533  0.80501  0.60874  1.0000
  C   C244      1.0  0.07224  0.87076  0.59759  1.0000
  H   H441      1.0  0.13236  0.56350  0.45667  1.0000
  H   H442      1.0  0.19252  0.91334  0.52690  1.0000
  H   H443      1.0  0.15583  0.96140  0.57063  1.0000
  C   C245      1.0  0.49759  0.66160  0.65964  1.0000
  C   C246      1.0  0.10015  0.86390  0.51464  1.0000
  H   H444      1.0  0.31991  0.96487  0.50120  1.0000
  H   H445      1.0  0.29241  0.78524  0.66240  1.0000
  C   C247      1.0  0.40683  0.58183  0.40030  1.0000
  H   H446      1.0  0.39091  0.81151  0.37062  1.0000
  C   C248      1.0  0.08022  0.87611  0.62094  1.0000
  H   H447      1.0  0.04680  0.72996  0.63411  1.0000
  C   C249      1.0  0.37125  0.53055  0.36231  1.0000
  C   C250      1.0  0.41350  0.61487  0.41149  1.0000
  H   H448      1.0  0.40310  0.54392  0.62793  1.0000
  H   H449      1.0  0.30635  0.93208  0.39645  1.0000
  C   C251      1.0  0.19757  0.95476  0.64900  1.0000
  C   C252      1.0  0.19808  0.72246  0.38027  1.0000
  C   C253      1.0  0.45513  0.66187  0.66060  1.0000
  H   H450      1.0  0.42211  0.61906  0.63064  1.0000
  C   C254      1.0  0.12925  0.84790  0.50941  1.0000
  C   C255      1.0  0.06508  0.91231  0.45025  1.0000
  H   H451      1.0  0.04875  0.84518  0.35444  1.0000
  C   C256      1.0  0.23600  0.63216  0.40620  1.0000
  C   C257      1.0  0.28738  0.92812  0.41366  1.0000
  H   H452      1.0  0.11215  0.59918  0.41300  1.0000
  H   H453      1.0  0.02644  0.85883  0.57340  1.0000
  C   C258      1.0  0.41463  0.59105  0.37282  1.0000
  H   H454      1.0  0.16581  0.96100  0.47027  1.0000
  C   C259      1.0  0.07913  0.76922  0.59091  1.0000
  H   H455      1.0  0.16028  0.61726  0.42493  1.0000
  H   H456      1.0  0.01946  0.92084  0.43106  1.0000
  C   C260      1.0  0.37386  0.65276  0.64715  1.0000
  C   C261      1.0  0.23460  0.94391  0.49448  1.0000
  N   N16       1.0  0.41688  0.62582  0.66771  1.0000
  H   H457      1.0  0.34813  0.90383  0.38178  1.0000
  H   H458      1.0  0.05075  0.93566  0.49452  1.0000
  C   C262      1.0  0.37605  0.54940  0.62838  1.0000
  H   H459      1.0  0.10091  0.72545  0.66701  1.0000
  H   H460      1.0  0.03459  0.91532  0.53676  1.0000
  H   H461      1.0  0.32860  0.66700  0.63351  1.0000
  H   H462      1.0  0.10109  0.58656  0.37547  1.0000
  H   H463      1.0  0.17728  0.51738  0.33839  1.0000
  C   C263      1.0  0.47118  0.70009  0.34166  1.0000
  H   H464      1.0  0.02995  0.88580  0.42242  1.0000
  H   H465      1.0  0.23634  0.85889  0.34352  1.0000
  H   H466      1.0  0.20749  0.65710  0.66882  1.0000
  H   H467      1.0  0.22717  0.82585  0.66520  1.0000
  H   H468      1.0  0.39019  0.59834  0.36775  1.0000
  H   H469      1.0  0.15668  0.86707  0.49645  1.0000
  H   H470      1.0  0.21214  0.92792  0.48284  1.0000
  H   H471      1.0  0.11264  0.82248  0.50217  1.0000
  H   H472      1.0  0.33959  0.82074  0.60532  1.0000
  H   H473      1.0  0.11149  0.89395  0.47979  1.0000
  C   C264      1.0  0.06168  0.98269  0.64082  1.0000
  H   H474      1.0  0.18496  0.92697  0.64688  1.0000
  H   H475      1.0  0.14040  0.84193  0.52618  1.0000
  H   H476      1.0  0.11832  0.80433  0.66130  1.0000
  C   C265      1.0  0.21728  0.72123  0.35851  1.0000
  H   H477      1.0  0.10078  0.93835  0.49283  1.0000
  H   H478      1.0  0.11824  0.88876  0.52199  1.0000
  H   H479      1.0  0.29204  0.66708  0.42018  1.0000
  H   H480      1.0  0.06761  0.93213  0.41305  1.0000
  C   C266      1.0  0.20963  0.94163  0.51780  1.0000
  C   C267      1.0  0.27724  0.95870  0.44741  1.0000
  C   C268      1.0  0.28129  0.72072  0.65364  1.0000
  S   S62       1.0  0.13213  0.77315  0.36054  1.0000
  H   H481      1.0  0.08352  0.54481  0.44436  1.0000
  C   C269      1.0  0.14811  0.57019  0.40674  1.0000
  H   H482      1.0  0.01386  0.88371  0.35063  1.0000
  H   H483      1.0  0.10061  0.58589  0.45660  1.0000
  H   H484      1.0  0.37778  0.79469  0.59769  1.0000
  C   C270      1.0  0.23019  0.65455  0.65612  1.0000
  H   H485      1.0  0.37859  0.56636  0.61142  1.0000
  H   H486      1.0  0.36618  0.51749  0.34599  1.0000
  C   C271      1.0  0.30453  0.84949  0.35507  1.0000
  H   H487      1.0  0.21259  0.63319  0.64559  1.0000
  H   H488      1.0  0.07279  0.84908  0.48235  1.0000
  H   H489      1.0  0.29393  0.62932  0.40939  1.0000
  C   C272      1.0  0.03130  0.98474  0.38373  1.0000
  H   H490      1.0  0.40085  0.76923  0.34768  1.0000
  C   C273      1.0  0.08377  0.87274  0.49176  1.0000
  H   H491      1.0  0.07945  0.90859  0.53841  1.0000
  C   C274      1.0  0.06819  0.75811  0.63627  1.0000
  H   H492      1.0  0.34727  0.53978  0.36414  1.0000
  C   C275      1.0  0.38536  0.78472  0.34041  1.0000
  H   H493      1.0  0.39727  0.68159  0.64441  1.0000
  H   H494      1.0  0.34365  0.76939  0.37270  1.0000
  C   C276      1.0  0.03284  0.86287  0.59139  1.0000
  H   H495      1.0  0.44625  0.63637  0.40657  1.0000
  H   H496      1.0  0.24290  0.61965  0.37068  1.0000
  H   H497      1.0  0.40703  0.60763  0.43122  1.0000
  H   H498      1.0  0.11100  0.88362  0.62562  1.0000
  C   C277      1.0  0.32141  0.78450  0.65564  1.0000
  C   C278      1.0  0.41526  0.60315  0.64874  1.0000
  H   H499      1.0  0.12912  0.49199  0.35853  1.0000
  H   H500      1.0  0.37406  0.56117  0.40619  1.0000
  H   H501      1.0  0.07467  0.84404  0.52841  1.0000
  H   H502      1.0  0.34227  0.81198  0.64610  1.0000
  C   C279      1.0  0.16954  0.62016  0.37211  1.0000
  C   C280      1.0  0.08824  0.97702  0.62149  1.0000
  N   N17       1.0  0.31123  0.75688  0.63919  1.0000
  H   H503      1.0  0.44442  0.61632  0.36760  1.0000
  H   H504      1.0  0.41829  0.76090  0.60138  1.0000
  C   C281      1.0  0.13399  0.59196  0.42196  1.0000
  C   C282      1.0  0.02284  0.72380  0.40820  1.0000
  C   C283      1.0  0.00139  0.85990  0.60841  1.0000
  H   H505      1.0  0.05340  0.97689  0.37622  1.0000
  C   C284      1.0  0.44561  0.55012  0.36653  1.0000
  C   C285      1.0  0.42469  0.78363  0.61126  1.0000
  C   C286      1.0  0.16138  0.74984  0.35958  1.0000
  H   H506      1.0  0.44474  0.52941  0.35583  1.0000
  C   C287      1.0  0.38407  0.98453  0.48842  1.0000
  H   H507      1.0  0.03043  0.92725  0.65674  1.0000
  H   H508      1.0  0.33710  0.96961  0.42751  1.0000
  C   C288      1.0  0.04834  0.87225  0.63821  1.0000
  H   H509      1.0  0.29919  0.66711  0.38864  1.0000
  C   C289      1.0  0.26879  0.51630  0.34327  1.0000
  H   H510      1.0  0.37709  0.64128  0.63105  1.0000
  H   H511      1.0  0.25436  0.93118  0.49866  1.0000
  H   H512      1.0  0.05328  0.73362  0.39696  1.0000
  H   H513      1.0  0.22163  0.61729  0.42446  1.0000
  H   H514      1.0  0.34688  0.57278  0.64904  1.0000
  N   N18       1.0  0.05042  0.88422  0.49502  1.0000
  C   C290      1.0  0.06718  0.92477  0.52852  1.0000
  C   C291      1.0  0.22214  0.60586  0.38792  1.0000
  H   H515      1.0  0.46409  0.69104  0.36072  1.0000
  H   H516      1.0  0.30587  0.98396  0.41033  1.0000
  C   C292      1.0  0.04405  0.91269  0.42794  1.0000
  C   C293      1.0  0.37426  0.56795  0.64962  1.0000
  H   H517      1.0  0.14121  0.66059  0.34349  1.0000
  H   H518      1.0  0.00132  0.77804  0.39922  1.0000
  H   H519      1.0  0.05272  0.89826  0.37056  1.0000
  H   H520      1.0  0.29406  0.81769  0.62154  1.0000
  H   H521      1.0  0.36799  0.50900  0.40028  1.0000
  H   H522      1.0  0.36125  0.74374  0.64441  1.0000
  H   H523      1.0  0.05457  0.87632  0.65623  1.0000
  C   C294      1.0  0.00025  0.77682  0.33971  1.0000
  H   H524      1.0  0.16497  0.51907  0.39229  1.0000
  S   S63       1.0  0.33857  0.68812  0.33882  1.0000
  H   H525      1.0  0.43503  0.77844  0.62854  1.0000
  N   N19       1.0  0.32488  0.83058  0.36884  1.0000
  H   H526      1.0  0.23100  0.95761  0.52980  1.0000
  C   C295      1.0  0.34910  0.75406  0.62963  1.0000
  H   H527      1.0  0.11639  0.65136  0.37388  1.0000
  H   H528      1.0  0.39432  0.81182  0.62501  1.0000
  H   H529      1.0  0.29145  0.86179  0.36720  1.0000
  H   H530      1.0  0.24997  0.64621  0.66640  1.0000
  C   C296      1.0  0.09277  0.96367  0.53226  1.0000
  H   H531      1.0  0.32580  0.66169  0.66557  1.0000
  S   S64       1.0  0.30180  0.58664  0.34949  1.0000
  H   H532      1.0  0.24565  0.95169  0.44263  1.0000
  H   H533      1.0  0.30610  0.62270  0.65072  1.0000
  C   C297      1.0  0.00886  0.86427  0.63189  1.0000
  H   H534      1.0  0.38593  0.96304  0.50053  1.0000
  H   H535      1.0  0.32985  0.94723  0.47534  1.0000
  C   C298      1.0  0.20038  0.77009  0.66128  1.0000
  C   C299      1.0  0.18192  0.95999  0.41090  1.0000
  H   H536      1.0  0.28789  0.90626  0.42604  1.0000
  H   H537      1.0  0.25486  0.92009  0.41026  1.0000
  C   C300      1.0  0.17961  0.53273  0.37384  1.0000
  H   H538      1.0  0.01388  0.80796  0.50543  1.0000
  C   C301      1.0  0.11727  0.63952  0.35752  1.0000
  C   C302      1.0  0.26777  0.82574  0.34222  1.0000
  H   H539      1.0  0.00662  0.89079  0.47381  1.0000
  C   C303      1.0  0.26074  0.98341  0.48195  1.0000
  H   H540      1.0  0.09051  0.96510  0.55164  1.0000
  C   C304      1.0  0.04758  0.95326  0.66306  1.0000
  H   H541      1.0  0.21368  0.54252  0.37279  1.0000
  C   C305      1.0  0.30493  0.96292  0.42415  1.0000
  C   C306      1.0  0.08687  0.80271  0.66296  1.0000
  C   C307      1.0  0.01276  0.76562  0.65762  1.0000
  H   H542      1.0  0.17552  0.71295  0.66283  1.0000
  H   H543      1.0  0.01286  0.96536  0.45520  1.0000
  H   H544      1.0  0.25779  0.72313  0.66561  1.0000
  H   H545      1.0  0.18686  0.95170  0.51446  1.0000
  H   H546      1.0  0.02514  0.73872  0.34420  1.0000
  H   H547      1.0  0.27675  0.51111  0.36063  1.0000
  C   C308      1.0  0.36031  0.49939  0.38311  1.0000
  C   C309      1.0  0.33908  0.97169  0.48364  1.0000
  H   H548      1.0  0.42533  0.49550  0.64031  1.0000
  C   C310      1.0  0.02440  0.84120  0.36891  1.0000
  H   H549      1.0  0.36927  0.54889  0.66587  1.0000
  C   C311      1.0  0.17814  0.74621  0.33769  1.0000
  H   H550      1.0  0.31538  0.79361  0.34364  1.0000
  H   H551      1.0  0.11694  0.97873  0.62811  1.0000
  H   H552      1.0  0.18906  0.57867  0.34874  1.0000
  H   H553      1.0  0.08084  0.98097  0.52318  1.0000
  H   H554      1.0  0.12759  0.59780  0.34562  1.0000
  C   C312      1.0  0.17633  0.98079  0.58154  1.0000
  H   H555      1.0  0.13844  0.94923  0.66330  1.0000
  C   C313      1.0  0.20662  0.73229  0.33712  1.0000
  C   C314      1.0  0.02206  0.87629  0.36810  1.0000
  H   H556      1.0  0.33610  0.97216  0.56604  1.0000
  C   C315      1.0  0.24026  0.97774  0.64324  1.0000
  H   H557      1.0  0.07648  0.95387  0.66867  1.0000
  H   H558      1.0  0.08648  0.63005  0.35103  1.0000
  C   C316      1.0  0.00512  0.80525  0.44098  1.0000
  C   C317      1.0  0.00436  0.76650  0.38311  1.0000
  H   H559      1.0  0.25658  0.51434  0.00301  1.0000
  C   C318      1.0  0.00285  0.92055  0.70060  1.0000
  Fe  Fe33      1.0  0.26319  0.71183  0.74012  1.0000
  S   S65       1.0  0.26560  0.67641  0.71423  1.0000
  S   S66       1.0  0.24096  0.75339  0.73381  1.0000
  Fe  Fe34      1.0  0.30882  0.68738  0.77510  1.0000
  S   S67       1.0  0.31620  0.65080  0.75188  1.0000
  S   S68       1.0  0.33509  0.69700  0.80982  1.0000
  Fe  Fe35      1.0  0.33147  0.69519  0.72165  1.0000
  S   S69       1.0  0.38421  0.71571  0.69172  1.0000
  Fe  Fe36      1.0  0.24989  0.63527  0.74673  1.0000
  S   S70       1.0  0.20479  0.57675  0.74987  1.0000
  S   S71       1.0  0.33038  0.73355  0.74523  1.0000
  S   S72       1.0  0.24123  0.66881  0.77228  1.0000
  Fe  Fe37      1.0  0.41702  0.57481  0.89534  1.0000
  H   H560      1.0  0.05192  0.81976  0.68666  1.0000
  Fe  Fe38      1.0  0.32622  0.55557  0.90285  1.0000
  H   H561      1.0  0.23004  0.58617  0.99839  1.0000
  S   S73       1.0  0.27882  0.57523  0.89907  1.0000
  Fe  Fe39      1.0  0.36305  0.52713  0.94101  1.0000
  C   C319      1.0  0.22249  0.50506  0.84633  1.0000
  S   S74       1.0  0.37836  0.58270  0.92421  1.0000
  S   S75       1.0  0.36603  0.55261  0.87233  1.0000
  H   H562      1.0  0.38143  0.64830  0.68445  1.0000
  H   H563      1.0  0.49533  0.53962  0.97903  1.0000
  H   H564      1.0  0.45598  0.53623  0.75525  1.0000
  H   H565      1.0  0.40965  0.52056  0.77632  1.0000
  H   H566      1.0  0.40542  0.58497  0.97490  1.0000
  C   C320      1.0  0.31391  0.66043  0.83322  1.0000
  C   C321      1.0  0.31747  0.62932  0.83120  1.0000
  C   C322      1.0  0.30750  0.60331  0.85150  1.0000
  C   C323      1.0  0.29148  0.60728  0.87341  1.0000
  C   C324      1.0  0.28589  0.63745  0.87505  1.0000
  C   C325      1.0  0.29811  0.66438  0.85517  1.0000
  H   H567      1.0  0.33022  0.62640  0.81436  1.0000
  H   H568      1.0  0.31251  0.58036  0.85033  1.0000
  H   H569      1.0  0.27363  0.64072  0.89193  1.0000
  H   H570      1.0  0.29571  0.68854  0.85686  1.0000
  C   C326      1.0  0.22505  0.55494  0.73279  1.0000
  H   H571      1.0  0.17977  0.59935  0.97429  1.0000
  C   C327      1.0  0.25070  0.57278  0.71115  1.0000
  H   H572      1.0  0.25476  0.60287  0.94364  1.0000
  H   H573      1.0  0.25754  0.60004  0.70458  1.0000
  H   H574      1.0  0.11107  0.86098  0.70501  1.0000
  C   C328      1.0  0.26613  0.55473  0.69755  1.0000
  C   C329      1.0  0.34209  0.77903  0.67757  1.0000
  H   H575      1.0  0.01198  0.97118  0.73091  1.0000
  H   H576      1.0  0.39746  0.71377  0.76438  1.0000
  H   H577      1.0  0.07330  0.71347  0.72089  1.0000
  C   C330      1.0  0.36815  0.53816  0.00118  1.0000
  H   H578      1.0  0.07663  0.79658  0.70225  1.0000
  C   C331      1.0  0.24817  0.50595  0.80374  1.0000
  C   C332      1.0  0.24797  0.52366  0.98624  1.0000
  S   S76       1.0  0.48070  0.61811  0.87910  1.0000
  S   S77       1.0  0.40630  0.52127  0.91382  1.0000
  C   C333      1.0  0.42949  0.71799  0.70209  1.0000
  H   H579      1.0  0.35610  0.56351  0.69888  1.0000
  C   C334      1.0  0.42070  0.60870  0.69162  1.0000
  H   H580      1.0  0.48795  0.49301  0.84115  1.0000
  C   C335      1.0  0.46509  0.69051  0.72422  1.0000
  C   C336      1.0  0.42808  0.68917  0.71745  1.0000
  H   H581      1.0  0.35065  0.60732  0.67533  1.0000
  H   H582      1.0  0.19447  0.50516  0.75718  1.0000
  H   H583      1.0  0.46398  0.66820  0.73596  1.0000
  H   H584      1.0  0.39862  0.66558  0.72373  1.0000
  C   C337      1.0  0.22449  0.75930  0.70611  1.0000
  H   H585      1.0  0.42421  0.53764  0.67449  1.0000
  H   H586      1.0  0.45696  0.49845  0.79128  1.0000
  C   C338      1.0  0.37940  0.66775  0.93780  1.0000
  H   H587      1.0  0.28378  0.56759  0.68022  1.0000
  C   C339      1.0  0.23208  0.79367  0.69579  1.0000
  H   H588      1.0  0.19701  0.70353  0.70240  1.0000
  H   H589      1.0  0.18343  0.54536  0.84648  1.0000
  H   H590      1.0  0.24777  0.81620  0.70505  1.0000
  H   H591      1.0  0.45555  0.68051  0.67298  1.0000
  S   S78       1.0  0.35372  0.50764  0.98075  1.0000
  C   C340      1.0  0.44765  0.71541  0.80054  1.0000
  N   N20       1.0  0.21567  0.50815  0.82047  1.0000
  H   H592      1.0  0.43387  0.67804  0.88441  1.0000
  H   H593      1.0  0.26597  0.62992  0.98424  1.0000
  C   C341      1.0  0.42800  0.63480  0.80309  1.0000
  C   C342      1.0  0.45995  0.73448  0.77428  1.0000
  H   H594      1.0  0.31334  0.55658  0.97343  1.0000
  C   C343      1.0  0.41946  0.67655  0.84779  1.0000
  C   C344      1.0  0.41122  0.65955  0.87390  1.0000
  C   C345      1.0  0.42780  0.60630  0.78878  1.0000
  C   C346      1.0  0.42485  0.74008  0.76477  1.0000
  C   C347      1.0  0.49363  0.56492  0.98000  1.0000
  H   H595      1.0  0.44751  0.73569  0.81137  1.0000
  H   H596      1.0  0.41474  0.69434  0.80254  1.0000
  C   C348      1.0  0.23304  0.50211  0.72802  1.0000
  H   H597      1.0  0.36590  0.59833  0.71632  1.0000
  H   H598      1.0  0.41545  0.75556  0.77610  1.0000
  C   C349      1.0  0.03392  0.90766  0.70938  1.0000
  H   H599      1.0  0.32122  0.80813  0.69968  1.0000
  H   H600      1.0  0.21959  0.52632  0.99090  1.0000
  H   H601      1.0  0.40284  0.64084  0.79797  1.0000
  H   H602      1.0  0.42100  0.62269  0.82222  1.0000
  H   H603      1.0  0.32685  0.61724  0.93600  1.0000
  H   H604      1.0  0.28090  0.56368  0.95454  1.0000
  H   H605      1.0  0.41026  0.57902  0.73937  1.0000
  C   C350      1.0  0.48022  0.56004  0.82761  1.0000
  H   H606      1.0  0.41201  0.69925  0.84693  1.0000
  H   H607      1.0  0.39737  0.65639  0.83819  1.0000
  H   H608      1.0  0.41332  0.63421  0.87534  1.0000
  H   H609      1.0  0.37922  0.65297  0.88153  1.0000
  C   C351      1.0  0.46540  0.69007  0.83680  1.0000
  H   H610      1.0  0.43139  0.61589  0.76942  1.0000
  H   H611      1.0  0.45351  0.60005  0.79246  1.0000
  C   C352      1.0  0.01093  0.87146  0.72580  1.0000
  H   H612      1.0  0.46063  0.53360  0.82378  1.0000
  H   H613      1.0  0.38059  0.67879  0.91899  1.0000
  C   C353      1.0  0.20366  0.73018  0.69430  1.0000
  H   H614      1.0  0.35806  0.54302  0.74042  1.0000
  H   H615      1.0  0.40790  0.50009  0.74980  1.0000
  H   H616      1.0  0.35748  0.61701  0.97605  1.0000
  C   C354      1.0  0.37971  0.58276  0.70833  1.0000
  C   C355      1.0  0.42704  0.51209  0.76390  1.0000
  C   C356      1.0  0.46986  0.57054  0.84839  1.0000
  C   C357      1.0  0.38768  0.56102  0.72866  1.0000
  H   H617      1.0  0.44293  0.55165  0.86076  1.0000
  H   H618      1.0  0.48074  0.67662  0.77879  1.0000
  S   S79       1.0  0.30775  0.50033  0.92178  1.0000
  C   C358      1.0  0.25839  0.51983  0.70626  1.0000
  C   C359      1.0  0.29358  0.53661  0.80191  1.0000
  C   C360      1.0  0.23278  0.59286  0.96033  1.0000
  H   H619      1.0  0.30464  0.55037  0.76308  1.0000
  C   C361      1.0  0.21535  0.51931  0.74087  1.0000
  H   H620      1.0  0.28614  0.57672  0.77778  1.0000
  H   H621      1.0  0.05632  0.92713  0.71946  1.0000
  C   C362      1.0  0.11672  0.85199  0.68817  1.0000
  S   S80       1.0  0.28082  0.49896  0.68973  1.0000
  H   H622      1.0  0.24240  0.53194  0.85112  1.0000
  C   C363      1.0  0.07995  0.81575  0.68636  1.0000
  C   C364      1.0  0.35075  0.80859  0.69276  1.0000
  H   H623      1.0  0.27734  0.49687  0.84843  1.0000
  Fe  Fe40      1.0  0.35210  0.49941  0.89296  1.0000
  H   H624      1.0  0.14600  0.84982  0.68816  1.0000
  C   C365      1.0  0.47945  0.54041  0.68740  1.0000
  H   H625      1.0  0.43536  0.75509  0.74629  1.0000
  C   C366      1.0  0.23734  0.49424  0.97082  1.0000
  H   H626      1.0  0.36575  0.80419  0.70824  1.0000
  H   H627      1.0  0.18746  0.60250  0.94231  1.0000
  H   H628      1.0  0.21365  0.56351  0.96106  1.0000
  C   C367      1.0  0.33163  0.62379  0.97388  1.0000
  H   H629      1.0  0.33896  0.58515  0.77842  1.0000
  H   H630      1.0  0.40014  0.54411  0.72144  1.0000
  H   H631      1.0  0.12063  0.87263  0.67300  1.0000
  H   H632      1.0  0.32157  0.75310  0.68920  1.0000
  H   H633      1.0  0.23889  0.50403  0.78552  1.0000
  H   H634      1.0  0.39796  0.58116  0.79383  1.0000
  H   H635      1.0  0.19192  0.59601  0.80108  1.0000
  H   H636      1.0  0.24724  0.49675  0.88981  1.0000
  H   H637      1.0  0.29871  0.55059  0.81759  1.0000
  H   H638      1.0  0.24777  0.56629  0.81510  1.0000
  H   H639      1.0  0.11594  0.75968  0.68583  1.0000
  C   C368      1.0  0.46773  0.74846  0.69414  1.0000
  H   H640      1.0  0.48394  0.71348  0.84567  1.0000
  H   H641      1.0  0.43939  0.59441  0.68914  1.0000
  H   H642      1.0  0.22156  0.63929  0.95623  1.0000
  H   H643      1.0  0.46178  0.56043  0.97731  1.0000
  C   C369      1.0  0.39396  0.57487  0.99363  1.0000
  H   H644      1.0  0.43866  0.62959  0.70242  1.0000
  C   C370      1.0  0.21706  0.54399  0.81304  1.0000
  C   C371      1.0  0.43716  0.52345  0.68495  1.0000
  H   H645      1.0  0.21375  0.54755  0.79379  1.0000
  C   C372      1.0  0.19279  0.58980  0.82045  1.0000
  H   H646      1.0  0.22378  0.60851  0.82496  1.0000
  C   C373      1.0  0.30649  0.56380  0.77895  1.0000
  C   C374      1.0  0.18390  0.55086  0.82692  1.0000
  H   H647      1.0  0.16873  0.59412  0.83052  1.0000
  N   N21       1.0  0.02152  0.95587  0.68387  1.0000
  C   C375      1.0  0.49613  0.52180  0.70099  1.0000
  H   H648      1.0  0.31520  0.52473  0.80172  1.0000
  H   H649      1.0  0.03376  0.86278  0.73177  1.0000
  C   C376      1.0  0.20362  0.60958  0.95828  1.0000
  C   C377      1.0  0.25506  0.60106  0.98298  1.0000
  C   C378      1.0  0.08253  0.70581  0.70431  1.0000
  C   C379      1.0  0.33509  0.63851  0.94727  1.0000
  N   N22       1.0  0.29062  0.59219  0.98498  1.0000
  C   C380      1.0  0.28471  0.55992  0.97364  1.0000
  H   H650      1.0  0.46761  0.71866  0.76274  1.0000
  H   H651      1.0  0.47492  0.66940  0.84298  1.0000
  H   H652      1.0  0.33866  0.64721  0.98313  1.0000
  H   H653      1.0  0.05154  0.90382  0.69427  1.0000
  H   H654      1.0  0.15243  0.53383  0.82229  1.0000
  H   H655      1.0  0.31439  0.65103  0.94513  1.0000
  H   H656      1.0  0.40168  0.65663  0.93846  1.0000
  H   H657      1.0  0.03873  0.74087  0.69667  1.0000
  C   C381      1.0  0.09029  0.73395  0.68271  1.0000
  H   H658      1.0  0.38911  0.69005  0.94840  1.0000
  C   C382      1.0  0.49477  0.60496  0.85333  1.0000
  C   C383      1.0  0.47106  0.66865  0.79837  1.0000
  H   H659      1.0  0.19239  0.49494  0.85810  1.0000
  H   H660      1.0  0.11157  0.70387  0.70635  1.0000
  H   H661      1.0  0.07595  0.98218  0.70145  1.0000
  H   H662      1.0  0.23068  0.50258  0.95309  1.0000
  N   N23       1.0  0.47521  0.70031  0.80991  1.0000
  H   H663      1.0  0.46892  0.77078  0.68230  1.0000
  H   H664      1.0  0.37196  0.83538  0.68221  1.0000
  H   H665      1.0  0.05781  0.67905  0.70196  1.0000
  H   H666      1.0  0.49278  0.65905  0.80485  1.0000
  H   H667      1.0  0.48762  0.76128  0.77272  1.0000
  C   C384      1.0  0.04997  0.98661  0.69563  1.0000
  H   H668      1.0  0.02607  0.71055  0.67591  1.0000
  C   C385      1.0  0.19143  0.73556  0.67197  1.0000
  C   C386      1.0  0.22044  0.79916  0.67327  1.0000
  C   C387      1.0  0.05015  0.73719  0.67917  1.0000
  H   H669      1.0  0.37228  0.77984  0.67190  1.0000
  C   C388      1.0  0.99457  0.03615  0.32568  1.0000
  H   H670      1.0  0.52688  0.46628  0.23032  1.0000
  H   H671      1.0  0.97847  0.05270  0.32252  1.0000
  H   H672      1.0  0.53316  0.48551  0.27257  1.0000
  H   H673      1.0  0.58888  0.47718  0.25089  1.0000
  H   H674      1.0  0.55427  0.48375  0.03814  1.0000
  H   H675      1.0  0.97214  0.01009  0.33674  1.0000
  C   C389      1.0  0.92703  0.07383  0.56790  1.0000
  H   H676      1.0  0.92600  0.07032  0.54888  1.0000
  H   H677      1.0  0.90179  0.08018  0.57372  1.0000
  C   C390      1.0  0.97432  0.00520  0.40287  1.0000
  H   H678      1.0  0.95808  0.04077  0.51922  1.0000
  H   H679      1.0  0.99624  0.02722  0.51108  1.0000
  H   H680      1.0  0.99969  0.99154  0.66762  1.0000
  H   H681      1.0  0.97591  0.09884  0.64339  1.0000
  H   H682      1.0  0.98949  0.99201  0.55077  1.0000
  H   H683      1.0  0.92112  0.04824  0.57886  1.0000
  H   H684      1.0  0.95954  0.05556  0.45547  1.0000
  H   H685      1.0  0.95214  0.01323  0.40998  1.0000
  H   H686      1.0  0.96746  0.00560  0.45327  1.0000
  C   C391      1.0  0.94855  0.01955  0.62327  1.0000
  C   C392      1.0  0.96251  0.05503  0.47483  1.0000
  H   H687      1.0  0.94106  0.06462  0.48232  1.0000
  C   C393      1.0  0.96914  0.10422  0.57121  1.0000
  C   C394      1.0  0.96243  0.01935  0.51174  1.0000
  H   H688      1.0  0.91493  0.04811  0.63206  1.0000
  H   H689      1.0  0.97327  0.12912  0.56033  1.0000
  H   H690      1.0  0.96766  0.10782  0.59024  1.0000
  C   C395      1.0  0.97917  0.07675  0.63749  1.0000
  C   C396      1.0  0.94471  0.04812  0.63103  1.0000
  C   C397      1.0  0.97314  0.00277  0.47211  1.0000
  H   H691      1.0  0.99811  0.13107  0.46791  1.0000
  N   N24       1.0  0.95019  0.01728  0.48686  1.0000
  H   H692      1.0  0.95995  0.01381  0.56105  1.0000
  H   H693      1.0  0.89818  0.01511  0.45100  1.0000
  H   H694      1.0  0.99025  0.99823  0.61503  1.0000
  C   C398      1.0  0.90352  0.99558  0.48782  1.0000
  H   H695      1.0  0.88770  0.00830  0.49761  1.0000
  H   H696      1.0  0.99962  0.07257  0.57883  1.0000
  C   C399      1.0  0.98718  0.01984  0.62174  1.0000
  H   H697      1.0  0.50559  0.47506  0.34347  1.0000
  H   H698      1.0  0.99994  0.08390  0.54777  1.0000
  H   H699      1.0  0.93666  0.99563  0.68091  1.0000
  C   C400      1.0  0.69710  0.83673  0.31536  1.0000
  C   C401      1.0  0.67106  0.80233  0.28319  1.0000
  Fe  Fe41      1.0  0.55853  0.65665  0.31473  1.0000
  S   S81       1.0  0.60714  0.69767  0.28609  1.0000
  H   H700      1.0  0.53484  0.64724  0.09659  1.0000
  Fe  Fe42      1.0  0.56645  0.59529  0.29752  1.0000
  S   S82       1.0  0.61593  0.63086  0.26688  1.0000
  H   H701      1.0  0.79221  0.75121  0.30463  1.0000
  Fe  Fe43      1.0  0.64319  0.66774  0.29376  1.0000
  S   S83       1.0  0.71233  0.69744  0.29588  1.0000
  Fe  Fe44      1.0  0.57563  0.65774  0.26194  1.0000
  S   S84       1.0  0.55913  0.67937  0.22866  1.0000
  C   C402      1.0  0.50697  0.79646  0.20990  1.0000
  C   C403      1.0  0.70256  0.78717  0.28336  1.0000
  H   H702      1.0  0.50455  0.60358  0.00349  1.0000
  C   C404      1.0  0.53851  0.82357  0.22338  1.0000
  H   H703      1.0  0.54458  0.51180  0.21858  1.0000
  C   C405      1.0  0.52137  0.51525  0.03974  1.0000
  C   C406      1.0  0.53959  0.65085  0.20739  1.0000
  H   H704      1.0  0.54149  0.57994  0.18560  1.0000
  H   H705      1.0  0.52882  0.61064  0.04022  1.0000
  S   S85       1.0  0.54476  0.53613  0.30722  1.0000
  H   H706      1.0  0.61883  0.83309  0.31859  1.0000
  C   C407      1.0  0.54877  0.62255  0.20542  1.0000
  H   H707      1.0  0.51921  0.53642  0.07261  1.0000
  H   H708      1.0  0.72402  0.80181  0.24509  1.0000
  C   C408      1.0  0.50855  0.70491  0.30351  1.0000
  H   H709      1.0  0.56844  0.61782  0.21719  1.0000
  H   H710      1.0  0.52989  0.69929  0.29290  1.0000
  H   H711      1.0  0.53095  0.52562  0.02036  1.0000
  H   H712      1.0  0.99780  0.75217  0.29582  1.0000
  H   H713      1.0  0.52998  0.59110  0.08485  1.0000
  H   H714      1.0  0.52223  0.82801  0.23890  1.0000
  H   H715      1.0  0.73263  0.76643  0.25990  1.0000
  H   H716      1.0  0.68106  0.75699  0.25398  1.0000
  C   C409      1.0  0.59179  0.80491  0.28971  1.0000
  C   C410      1.0  0.63662  0.77559  0.32438  1.0000
  H   H717      1.0  0.58456  0.52747  0.04613  1.0000
  S   S86       1.0  0.52385  0.61886  0.29020  1.0000
  H   H718      1.0  0.68471  0.82702  0.26950  1.0000
  H   H719      1.0  0.56052  0.65558  0.06664  1.0000
  C   C411      1.0  0.71039  0.77761  0.25904  1.0000
  H   H720      1.0  0.55082  0.56872  0.04775  1.0000
  C   C412      1.0  0.51986  0.54460  0.05323  1.0000
  H   H721      1.0  0.55695  0.84960  0.21134  1.0000
  H   H722      1.0  0.52483  0.79389  0.19430  1.0000
  H   H723      1.0  0.69035  0.76254  0.29671  1.0000
  H   H724      1.0  0.51154  0.51367  0.18880  1.0000
  H   H725      1.0  0.64345  0.78214  0.27630  1.0000
  C   C413      1.0  0.53344  0.60111  0.18762  1.0000
  H   H726      1.0  0.60956  0.51425  0.26728  1.0000
  H   H727      1.0  0.50848  0.67945  0.19285  1.0000
  H   H728      1.0  0.60148  0.80796  0.27031  1.0000
  N   N25       1.0  0.65805  0.81010  0.30679  1.0000
  H   H729      1.0  0.73330  0.80694  0.28740  1.0000
  C   C414      1.0  0.50433  0.57722  0.00403  1.0000
  S   S87       1.0  0.59703  0.62991  0.32467  1.0000
  H   H730      1.0  0.98429  0.78477  0.32607  1.0000
  H   H731      1.0  0.64840  0.85372  0.29048  1.0000
  H   H732      1.0  0.56024  0.81384  0.22979  1.0000
  C   C415      1.0  0.50916  0.60149  0.07796  1.0000
  C   C416      1.0  0.51488  0.65728  0.19174  1.0000
  C   C417      1.0  0.72696  0.72432  0.31854  1.0000
  C   C418      1.0  0.63024  0.82707  0.30204  1.0000
  H   H733      1.0  0.55614  0.53117  0.25729  1.0000
  H   H734      1.0  0.61949  0.75224  0.31521  1.0000
  C   C419      1.0  0.76885  0.74959  0.31818  1.0000
  H   H735      1.0  0.71457  0.86079  0.30131  1.0000
  H   H736      1.0  0.57254  0.84675  0.28572  1.0000
  C   C420      1.0  0.52986  0.64193  0.07807  1.0000
  H   H737      1.0  0.50478  0.74995  0.23003  1.0000
  H   H738      1.0  0.53328  0.80291  0.28203  1.0000
  C   C421      1.0  0.59265  0.50445  0.25193  1.0000
  C   C422      1.0  0.55300  0.50398  0.04853  1.0000
  H   H739      1.0  0.71841  0.82498  0.31859  1.0000
  C   C423      1.0  0.55886  0.81757  0.29245  1.0000
  H   H740      1.0  0.54529  0.81195  0.31146  1.0000
  H   H741      1.0  0.50955  0.65324  0.07161  1.0000
  H   H742      1.0  0.57714  0.77596  0.29712  1.0000
  C   C424      1.0  0.50732  0.60684  0.17264  1.0000
  H   H743      1.0  0.51593  0.74267  0.15120  1.0000
  H   H744      1.0  0.61165  0.52300  0.23539  1.0000
  H   H745      1.0  0.53617  0.58126  0.00613  1.0000
  C   C425      1.0  0.55021  0.50352  0.25557  1.0000
  H   H746      1.0  0.50221  0.54109  0.22348  1.0000
  C   C426      1.0  0.69692  0.72230  0.33614  1.0000
  H   H747      1.0  0.91530  0.74863  0.33348  1.0000
  H   H748      1.0  0.66038  0.77002  0.33237  1.0000
  H   H749      1.0  0.74384  0.90372  0.33006  1.0000
  H   H750      1.0  0.81235  0.79425  0.33361  1.0000
  C   C427      1.0  0.78032  0.77385  0.33463  1.0000
  C   C428      1.0  0.52583  0.49099  0.23426  1.0000
  H   H751      1.0  0.54381  0.49181  0.06767  1.0000
  H   H752      1.0  0.66463  0.70276  0.33670  1.0000
  Fe  Fe45      1.0  0.83850  0.85320  0.62151  1.0000
  S   S88       1.0  0.88480  0.83505  0.61056  1.0000
  S   S89       1.0  0.76986  0.81608  0.62663  1.0000
  Fe  Fe46      1.0  0.90306  0.93133  0.61453  1.0000
  S   S90       1.0  0.95572  0.92066  0.60279  1.0000
  Fe  Fe47      1.0  0.91086  0.88261  0.58162  1.0000
  S   S91       1.0  0.93277  0.87481  0.54606  1.0000
  Fe  Fe48      1.0  0.92601  0.87391  0.63255  1.0000
  H   H753      1.0  0.50399  0.59160  0.34520  1.0000
  S   S92       1.0  0.86075  0.89748  0.59048  1.0000
  S   S93       1.0  0.87700  0.88793  0.64666  1.0000
  Fe  Fe49      1.0  0.87875  0.81014  0.41257  1.0000
  C   C429      1.0  0.77902  0.80695  0.56701  1.0000
  Fe  Fe50      1.0  0.85295  0.86353  0.42909  1.0000
  H   H754      1.0  0.53524  0.71609  0.66640  1.0000
  S   S94       1.0  0.83403  0.88272  0.46091  1.0000
  Fe  Fe51      1.0  0.82130  0.82932  0.38522  1.0000
  S   S95       1.0  0.81664  0.80668  0.42342  1.0000
  S   S96       1.0  0.91516  0.86526  0.42143  1.0000
  H   H755      1.0  0.91214  0.95911  0.66432  1.0000
  H   H756      1.0  0.86080  0.79974  0.55628  1.0000
  C   C430      1.0  0.90298  0.87530  0.52331  1.0000
  C   C431      1.0  0.90771  0.86173  0.50270  1.0000
  C   C432      1.0  0.88508  0.86253  0.48400  1.0000
  C   C433      1.0  0.85848  0.87782  0.48545  1.0000
  C   C434      1.0  0.85274  0.89053  0.50633  1.0000
  C   C435      1.0  0.87494  0.88920  0.52529  1.0000
  C   C436      1.0  0.75303  0.77822  0.64845  1.0000
  H   H757      1.0  0.88801  0.85094  0.46858  1.0000
  H   H758      1.0  0.83165  0.90189  0.50769  1.0000
  H   H759      1.0  0.87106  0.89975  0.54110  1.0000
  C   C437      1.0  0.95794  0.98987  0.55391  1.0000
  H   H760      1.0  0.75503  0.78654  0.58126  1.0000
  H   H761      1.0  0.75737  0.84543  0.57336  1.0000
  C   C438      1.0  0.76296  0.83305  0.55822  1.0000
  H   H762      1.0  0.73319  0.81879  0.55089  1.0000
  H   H763      1.0  0.97489  0.81683  0.49263  1.0000
  H   H764      1.0  0.93631  0.80413  0.53318  1.0000
  C   C439      1.0  0.93123  0.76954  0.43916  1.0000
  H   H765      1.0  0.92832  0.84998  0.50116  1.0000
  H   H766      1.0  0.55153  0.58550  0.37224  1.0000
  H   H767      1.0  0.60966  0.78123  0.64795  1.0000
  C   C440      1.0  0.83960  0.77237  0.51194  1.0000
  S   S97       1.0  0.96923  0.86106  0.65297  1.0000
  C   C441      1.0  0.76066  0.73039  0.57074  1.0000
  H   H768      1.0  0.87422  0.77495  0.47869  1.0000
  S   S98       1.0  0.88110  0.82846  0.37371  1.0000
  H   H769      1.0  0.73778  0.68226  0.55353  1.0000
  H   H770      1.0  0.80776  0.82219  0.57502  1.0000
  H   H771      1.0  0.85788  0.69444  0.35918  1.0000
  C   C442      1.0  0.95916  0.79421  0.52945  1.0000
  H   H772      1.0  0.90229  0.71655  0.45982  1.0000
  H   H773      1.0  0.96848  0.82372  0.42089  1.0000
  H   H774      1.0  0.81547  0.81210  0.53441  1.0000
  C   C443      1.0  0.70843  0.74645  0.35255  1.0000
  S   S99       1.0  0.88586  0.76201  0.42663  1.0000
  C   C444      1.0  0.96309  0.96339  0.47994  1.0000
  C   C445      1.0  0.93518  0.74546  0.36899  1.0000
  C   C446      1.0  0.96060  0.97553  0.39087  1.0000
  H   H775      1.0  0.77726  0.68593  0.57179  1.0000
  H   H776      1.0  0.94235  0.76663  0.52515  1.0000
  S   S100      1.0  0.52356  0.67038  0.34217  1.0000
  H   H777      1.0  0.96645  0.72409  0.47639  1.0000
  H   H778      1.0  0.68757  0.66853  0.59007  1.0000
  C   C447      1.0  0.69767  0.72002  0.66725  1.0000
  C   C448      1.0  0.71359  0.74924  0.64870  1.0000
  C   C449      1.0  0.83943  0.97126  0.46640  1.0000
  H   H779      1.0  0.99523  0.74704  0.64529  1.0000
  H   H780      1.0  0.97889  0.96126  0.49560  1.0000
  C   C450      1.0  0.69158  0.84960  0.33912  1.0000
  N   N26       1.0  0.79800  0.75910  0.55383  1.0000
  C   C451      1.0  0.93079  0.74156  0.45485  1.0000
  H   H781      1.0  0.97026  0.81881  0.35083  1.0000
  H   H782      1.0  0.93190  0.71839  0.36803  1.0000
  H   H783      1.0  0.75423  0.90329  0.66412  1.0000
  H   H784      1.0  0.62083  0.74721  0.66252  1.0000
  H   H785      1.0  0.66231  0.78763  0.64497  1.0000
  C   C452      1.0  0.63283  0.77653  0.65738  1.0000
  H   H786      1.0  0.76371  0.73548  0.58950  1.0000
  H   H787      1.0  0.91084  0.74994  0.58566  1.0000
  C   C453      1.0  0.51909  0.56375  0.37333  1.0000
  H   H788      1.0  0.56326  0.69814  0.64973  1.0000
  H   H789      1.0  0.62647  0.75603  0.37602  1.0000
  C   C454      1.0  0.89375  0.76592  0.58501  1.0000
  C   C455      1.0  0.80449  0.74485  0.53160  1.0000
  H   H790      1.0  0.81120  0.72204  0.53596  1.0000
  H   H791      1.0  0.86157  0.73588  0.50020  1.0000
  H   H792      1.0  0.96068  0.71504  0.40504  1.0000
  C   C456      1.0  0.78867  0.78971  0.54635  1.0000
  H   H793      1.0  0.89152  0.96836  0.49819  1.0000
  C   C457      1.0  0.99167  0.81872  0.50840  1.0000
  H   H794      1.0  0.93598  0.96107  0.52499  1.0000
  C   C458      1.0  0.83633  0.77357  0.56636  1.0000
  H   H795      1.0  0.53000  0.71253  0.63520  1.0000
  Fe  Fe52      1.0  0.91217  0.88391  0.38364  1.0000
  H   H796      1.0  0.92820  0.74572  0.66243  1.0000
  H   H797      1.0  0.59541  0.71997  0.36050  1.0000
  H   H798      1.0  0.78613  0.85476  0.54427  1.0000
  H   H799      1.0  0.72865  0.88712  0.36161  1.0000
  C   C459      1.0  0.90598  0.75050  0.35203  1.0000
  H   H800      1.0  0.93846  0.96602  0.56757  1.0000
  H   H801      1.0  0.77523  0.73379  0.52324  1.0000
  S   S101      1.0  0.97229  0.92969  0.36471  1.0000
  H   H802      1.0  0.73160  0.73150  0.56691  1.0000
  H   H803      1.0  0.92199  0.74389  0.38758  1.0000
  H   H804      1.0  0.91571  0.79385  0.57645  1.0000
  H   H805      1.0  0.69508  0.74954  0.63469  1.0000
  H   H806      1.0  0.84967  0.72314  0.37791  1.0000
  H   H807      1.0  0.92805  0.96088  0.38873  1.0000
  H   H808      1.0  0.95936  0.80659  0.38231  1.0000
  H   H809      1.0  0.82617  0.94517  0.47850  1.0000
  C   C460      1.0  0.74985  0.77287  0.35147  1.0000
  C   C461      1.0  0.85674  0.74897  0.57115  1.0000
  H   H810      1.0  0.97121  0.85387  0.60327  1.0000
  N   N27       1.0  0.98029  0.77389  0.36449  1.0000
  H   H811      1.0  0.70855  0.63743  0.59011  1.0000
  H   H812      1.0  0.82967  0.79123  0.50299  1.0000
  H   H813      1.0  0.86866  0.78778  0.51948  1.0000
  H   H814      1.0  0.76202  0.78066  0.53574  1.0000
  C   C462      1.0  0.71634  0.66576  0.59104  1.0000
  S   S102      1.0  0.76105  0.80698  0.36910  1.0000
  H   H815      1.0  0.72754  0.67215  0.60846  1.0000
  C   C463      1.0  0.84969  0.75416  0.49263  1.0000
  H   H816      1.0  0.90626  0.77666  0.35222  1.0000
  H   H817      1.0  0.68497  0.74521  0.36583  1.0000
  C   C464      1.0  0.74998  0.69058  0.57042  1.0000
  H   H818      1.0  0.97689  0.94825  0.65888  1.0000
  H   H819      1.0  0.82895  0.77994  0.58396  1.0000
  S   S103      1.0  0.85262  0.88661  0.39177  1.0000
  H   H820      1.0  0.88269  0.76619  0.60361  1.0000
  H   H821      1.0  0.82173  0.73884  0.48400  1.0000
  H   H822      1.0  0.83439  0.72315  0.58215  1.0000
  H   H823      1.0  0.86839  0.74401  0.55416  1.0000
  H   H824      1.0  0.50016  0.64522  0.64635  1.0000
  C   C465      1.0  0.73286  0.87962  0.34391  1.0000
  H   H825      1.0  0.92933  0.94555  0.48439  1.0000
  H   H826      1.0  0.89704  0.97199  0.45480  1.0000
  S   S104      1.0  0.90466  0.98480  0.61479  1.0000
  H   H827      1.0  0.50798  0.55075  0.39224  1.0000
  H   H828      1.0  0.57080  0.73899  0.37870  1.0000
  C   C466      1.0  0.96812  0.80190  0.43281  1.0000
  C   C467      1.0  0.59896  0.74523  0.36629  1.0000
  C   C468      1.0  0.77743  0.77729  0.66618  1.0000
  C   C469      1.0  0.86084  0.72158  0.35961  1.0000
  H   H829      1.0  0.82763  0.98863  0.47366  1.0000
  C   C470      1.0  0.53360  0.69952  0.65229  1.0000
  C   C471      1.0  0.96705  0.74576  0.46414  1.0000
  C   C472      1.0  0.98912  0.96553  0.38098  1.0000
  H   H830      1.0  0.97434  0.79321  0.54560  1.0000
  H   H831      1.0  0.96318  0.95041  0.44391  1.0000
  H   H832      1.0  0.99835  0.87378  0.38256  1.0000
  H   H833      1.0  0.66893  0.86023  0.33908  1.0000
  H   H834      1.0  0.66752  0.69753  0.66713  1.0000
  H   H835      1.0  0.84057  0.72576  0.34724  1.0000
  H   H836      1.0  0.82853  0.96590  0.44880  1.0000
  H   H837      1.0  0.98705  0.70999  0.37910  1.0000
  H   H838      1.0  0.51934  0.54380  0.36230  1.0000
  H   H839      1.0  0.90555  0.98119  0.53563  1.0000
  H   H840      1.0  0.68136  0.82711  0.35416  1.0000
  H   H841      1.0  0.80814  0.79952  0.66589  1.0000
  C   C473      1.0  0.93784  0.98553  0.53099  1.0000
  H   H842      1.0  0.57362  0.76445  0.33849  1.0000
  H   H843      1.0  0.79634  0.89469  0.65451  1.0000
  H   H844      1.0  0.99084  0.86764  0.51516  1.0000
  C   C474      1.0  0.97853  0.94938  0.45998  1.0000
  H   H845      1.0  0.97022  0.92095  0.46591  1.0000
  H   H846      1.0  0.61290  0.79845  0.35161  1.0000
  H   H847      1.0  0.73249  0.83803  0.66576  1.0000
  C   C475      1.0  0.60437  0.77288  0.34492  1.0000
  C   C476      1.0  0.99093  0.72673  0.39322  1.0000
  C   C477      1.0  0.98135  0.80955  0.36660  1.0000
  H   H848      1.0  0.75710  0.87061  0.34414  1.0000
  C   C478      1.0  0.88700  0.98958  0.46338  1.0000
  H   H849      1.0  0.97203  0.71900  0.33734  1.0000
  Fe  Fe53      1.0  0.54595  0.61601  0.70152  1.0000
  S   S105      1.0  0.58697  0.60110  0.72250  1.0000
  H   H850      1.0  0.57430  0.79485  0.74658  1.0000
  H   H851      1.0  0.67604  0.73555  0.72886  1.0000
  S   S106      1.0  0.60037  0.66827  0.75124  1.0000
  Fe  Fe54      1.0  0.62945  0.66038  0.71779  1.0000
  S   S107      1.0  0.69945  0.68516  0.71030  1.0000
  Fe  Fe55      1.0  0.55425  0.61027  0.75370  1.0000
  S   S108      1.0  0.52814  0.56871  0.78644  1.0000
  S   S109      1.0  0.59104  0.67468  0.69395  1.0000
  C   C479      1.0  0.54047  0.61840  0.81637  1.0000
  H   H852      1.0  0.56815  0.63664  0.80421  1.0000
  H   H853      1.0  0.55010  0.65518  0.84151  1.0000
  H   H854      1.0  0.96935  0.72406  0.68684  1.0000
  H   H855      1.0  0.95191  0.95575  0.70978  1.0000
  C   C480      1.0  0.66684  0.78381  0.69520  1.0000
  H   H856      1.0  0.64534  0.75597  0.70420  1.0000
  C   C481      1.0  0.71552  0.84605  0.70169  1.0000
  H   H857      1.0  0.52911  0.73596  0.78403  1.0000
  H   H858      1.0  0.54691  0.71360  0.83370  1.0000
  C   C482      1.0  0.91984  0.96594  0.68221  1.0000
  C   C483      1.0  0.50424  0.75073  0.70218  1.0000
  H   H859      1.0  0.52889  0.53481  0.70290  1.0000
  H   H860      1.0  0.66068  0.85938  0.72916  1.0000
  C   C484      1.0  0.94642  0.94934  0.69166  1.0000
  H   H861      1.0  0.51608  0.58579  0.96532  1.0000
  H   H862      1.0  0.89028  0.95541  0.69443  1.0000
  H   H863      1.0  0.73708  0.79252  0.71123  1.0000
  C   C485      1.0  0.59661  0.75382  0.80789  1.0000
  C   C486      1.0  0.63674  0.83156  0.72825  1.0000
  H   H864      1.0  0.60982  0.82260  0.76538  1.0000
  S   S110      1.0  0.51065  0.58513  0.67395  1.0000
  C   C487      1.0  0.55347  0.72120  0.81401  1.0000
  H   H865      1.0  0.59727  0.77688  0.81572  1.0000
  H   H866      1.0  0.73238  0.86213  0.71531  1.0000
  C   C488      1.0  0.65548  0.80546  0.73259  1.0000
  H   H867      1.0  0.66800  0.75410  0.75441  1.0000
  C   C489      1.0  0.77436  0.89158  0.67018  1.0000
  H   H868      1.0  0.53344  0.77496  0.69675  1.0000
  H   H869      1.0  0.74647  0.74753  0.73914  1.0000
  H   H870      1.0  0.66913  0.81090  0.74956  1.0000
  C   C490      1.0  0.76142  0.74792  0.68477  1.0000
  Fe  Fe56      1.0  0.55859  0.67794  0.72762  1.0000
  H   H871      1.0  0.60522  0.76150  0.78823  1.0000
  N   N28       1.0  0.68753  0.80758  0.71321  1.0000
  C   C491      1.0  0.60002  0.82197  0.74731  1.0000
  H   H872      1.0  0.55543  0.69917  0.80616  1.0000
  C   C492      1.0  0.51985  0.72950  0.80373  1.0000
  H   H873      1.0  0.70496  0.71869  0.76251  1.0000
  C   C493      1.0  0.72211  0.74648  0.75251  1.0000
  S   S111      1.0  0.50952  0.62059  0.73308  1.0000
  C   C494      1.0  0.72102  0.71973  0.68566  1.0000
  C   C495      1.0  0.71479  0.79398  0.72486  1.0000
  H   H874      1.0  0.73712  0.76510  0.76523  1.0000
  H   H875      1.0  0.77990  0.74744  0.69875  1.0000
  H   H876      1.0  0.58798  0.84162  0.74413  1.0000
  H   H877      1.0  0.52295  0.75464  0.80975  1.0000
  H   H878      1.0  0.65540  0.82416  0.67298  1.0000
  H   H879      1.0  0.62560  0.83141  0.71067  1.0000
  C   C496      1.0  0.98736  0.96244  0.67443  1.0000
  C   C497      1.0  0.53031  0.62885  0.83742  1.0000
  H   H880      1.0  0.92197  0.74967  0.69349  1.0000
  H   H881      1.0  0.62007  0.74711  0.81530  1.0000
  C   C498      1.0  0.51552  0.58374  0.81165  1.0000
  H   H882      1.0  0.69048  0.78102  0.68345  1.0000
  H   H883      1.0  0.50182  0.65075  0.67730  1.0000
  H   H884      1.0  0.92780  0.91968  0.69334  1.0000
  C   C499      1.0  0.69172  0.75608  0.74023  1.0000
  H   H885      1.0  0.73414  0.81300  0.73643  1.0000
  H   H886      1.0  0.62914  0.77767  0.73667  1.0000
  H   H887      1.0  0.79272  0.90662  0.68369  1.0000
  C   C500      1.0  0.94444  0.75982  0.67687  1.0000
  C   C501      1.0  0.50305  0.72169  0.71708  1.0000
  H   H888      1.0  0.69735  0.85914  0.69475  1.0000
  S   S112      1.0  0.54854  0.72616  0.72831  1.0000
  H   H889      1.0  0.76996  0.84160  0.68577  1.0000
  C   C502      1.0  0.98163  0.75332  0.68089  1.0000
  H   H890      1.0  0.98016  0.89905  0.69173  1.0000
  H   H891      1.0  0.60960  0.78658  0.68974  1.0000
  C   C503      1.0  0.74816  0.85178  0.68041  1.0000
  H   H892      1.0  0.98441  0.92096  0.71673  1.0000
  C   C504      1.0  0.64043  0.79496  0.67943  1.0000
  H   H893      1.0  0.98896  0.85078  0.71616  1.0000
  H   H894      1.0  0.99341  0.87353  0.74180  1.0000
  H   H895      1.0  0.99621  0.76743  0.69560  1.0000
  H   H896      1.0  0.95487  0.78897  0.67200  1.0000
