data_image0
_chemical_formula_structural       FeS2FeS2FeSFeS3H2C4HCHC8H4C3H5C4HNC5HC4H26C4NC5HC2HC3H11CH10C2H5CHCH2C2HCH4CNH7CHCH2FeS2FeS2FeSFeS4C3HC2HCNHC6H8C5H2CHCH5CH3C3NH2CH4CH13CH2CHC2HC2H3CHCNC12H25CH3CHCH3CHCH3CHCH6C2H4FeS2FeS2FeSFeS3H3CHCH4C2HCH3CH2CHC6H4CHC2H4C3H2CH7NH4CH5C4HC2H3CH3CH2NH3C3HCH4C2H3C2H2CH4CH2CH5CH2CH5CH2SHCH2FeS2FeS2FeSFeS3H2CHCH5CH2C3H3C3HC6H4C2H2NC7HC2HCH22CHCH4C2H2C4H2NH3CHCHCH5CH3CHNHCH2CH3CH2CSH2FeS2FeS2FeSFeSH2FeSNC6H4CH7CNC11H26CHC2H3C3H2CH6C2H7SCH2CHSCNCHC2H2CH5C2HSCH2CSH3CH2CHCSHCH4C2H3CHC2HCH3FeSCFeS2FeSHSHSFeSC7H4FeC2H3CHSCHCFeHNC9H2CH9CH4SH3CH3CH6SHSH3CH5CHCH5NS2FeSFeS2HC2H4CH3C2HC6H4C2H2SHCH4CH3C2H3NCSHCSCH3CNCH3CH2CH2CH5FeCH2FeSCHCH2C2H3NC6HCHCH14CH3CH8CSCHFeCHC3HCH4CH5CSCHNHCH3CH2CH3CH3S2FeSHSCHCFeSCS2CH6C6H4C2H2CHFeHC2H3CH4CHCHCH3SH5CH3CH2C2HFeHC2H2CHSHNH2CH5C2SFeC2H11CH4CHCHC2HC2HCH5CHCH2CNHCH2CH2CHCH5CHCHCSFeCSCFeHSHCFeS2CFeS2FeS2FeSFeCS2CFeH3C6H10C5H3CH2CH2CNC9H2CH8SHCH7CH2SH5NC10H19CH5CH2CH3C2H6CHCFeCSHCSHFeS2FeS2FeSFeS3HC2H2C6H8C6H3CNC3H2C2H3C2HNH6CH6CH5CH2CH3NC10H22CH3FeH3CH3SC2H3CHCH4CH5C2H2CH2CH2CHC2HCHC2H7CS2CFeS2FeSHFeSFeS3C3H3C2H2C7H8CHC2H5CH2SH4CH3CSHC4H2CH2NH2C2H2CNCHC4H2CH3FeH8C2FeCHCSCFeHC2H5CH3CHS2FeS2FeS2FeHFeS3HC2H3C2H3C6H4C6H4CH3C2H2CH3CHC3HCH6CNH2C2H4CH4CFeCHC2HNC8H14CH7C2H8CH2C2HSCHC2H2SNH6FeCHSHCH2
_chemical_formula_sum              "Fe64 S128 H1024 C576 N32"
_cell_length_a       44.4081
_cell_length_b       44.2789
_cell_length_c       37.4046
_cell_angle_alpha    89.9692
_cell_angle_beta     90.1437
_cell_angle_gamma    90.0501

_space_group_name_H-M_alt    "P 1"
_space_group_IT_number       1

loop_
  _space_group_symop_operation_xyz
  'x, y, z'

loop_
  _atom_site_type_symbol
  _atom_site_label
  _atom_site_symmetry_multiplicity
  _atom_site_fract_x
  _atom_site_fract_y
  _atom_site_fract_z
  _atom_site_occupancy
  Fe  Fe1       1.0  0.16905  0.32817  0.21551  1.0000
  S   S1        1.0  0.13703  0.32754  0.16866  1.0000
  S   S2        1.0  0.18085  0.36754  0.25306  1.0000
  Fe  Fe2       1.0  0.17936  0.25890  0.21371  1.0000
  S   S3        1.0  0.14643  0.25375  0.16785  1.0000
  S   S4        1.0  0.19992  0.21632  0.24066  1.0000
  Fe  Fe3       1.0  0.16894  0.29436  0.14307  1.0000
  S   S5        1.0  0.18499  0.29046  0.08440  1.0000
  Fe  Fe4       1.0  0.11636  0.28713  0.19620  1.0000
  S   S6        1.0  0.06473  0.28394  0.19405  1.0000
  S   S7        1.0  0.20328  0.29814  0.18802  1.0000
  S   S8        1.0  0.14697  0.28902  0.24393  1.0000
  H   H1        1.0  0.18628  0.41165  0.30891  1.0000
  H   H2        1.0  0.20601  0.35217  0.00961  1.0000
  C   C1        1.0  0.02368  0.28454  0.29225  1.0000
  C   C2        1.0  0.04594  0.28377  0.26534  1.0000
  C   C3        1.0  0.03764  0.28422  0.22924  1.0000
  C   C4        1.0  0.00677  0.28489  0.22052  1.0000
  H   H3        1.0  0.31145  0.20923  0.23049  1.0000
  C   C5        1.0  0.27705  0.19851  0.35822  1.0000
  H   H4        1.0  0.06950  0.28245  0.27253  1.0000
  C   C6        1.0  0.25652  0.13579  0.45275  1.0000
  C   C7        1.0  0.13384  0.32044  0.99969  1.0000
  C   C8        1.0  0.23628  0.19904  0.24583  1.0000
  C   C9        1.0  0.26302  0.21281  0.23447  1.0000
  C   C10       1.0  0.29111  0.19823  0.23956  1.0000
  C   C11       1.0  0.29308  0.16958  0.25593  1.0000
  C   C12       1.0  0.26637  0.15580  0.26729  1.0000
  C   C13       1.0  0.23831  0.17047  0.26244  1.0000
  H   H5        1.0  0.26204  0.23474  0.22173  1.0000
  H   H6        1.0  0.06430  0.13714  0.11528  1.0000
  H   H7        1.0  0.26723  0.13367  0.27933  1.0000
  H   H8        1.0  0.21790  0.15946  0.27130  1.0000
  C   C14       1.0  0.17027  0.29785  0.04068  1.0000
  C   C15       1.0  0.18414  0.28420  0.01092  1.0000
  C   C16       1.0  0.14505  0.31612  0.03475  1.0000
  H   H9        1.0  0.20371  0.27007  0.01505  1.0000
  H   H10       1.0  0.13428  0.32701  0.05720  1.0000
  H   H11       1.0  0.13794  0.46290  0.20623  1.0000
  H   H12       1.0  0.25381  0.14013  0.34445  1.0000
  H   H13       1.0  0.23856  0.08650  0.33703  1.0000
  C   C17       1.0  0.99280  0.28544  0.28356  1.0000
  C   C18       1.0  0.15599  0.42086  0.22625  1.0000
  C   C19       1.0  0.16976  0.40617  0.25506  1.0000
  C   C20       1.0  0.29209  0.13182  0.38080  1.0000
  H   H14       1.0  0.15178  0.40856  0.20178  1.0000
  N   N1        1.0  0.06336  0.39399  0.27487  1.0000
  C   C21       1.0  0.03521  0.37484  0.27646  1.0000
  C   C22       1.0  0.08891  0.37912  0.29538  1.0000
  C   C23       1.0  0.05647  0.42369  0.29300  1.0000
  C   C24       1.0  0.07264  0.40076  0.23691  1.0000
  C   C25       1.0  0.07484  0.37365  0.21100  1.0000
  H   H15       1.0  0.08556  0.16391  0.14144  1.0000
  C   C26       1.0  0.08317  0.44633  0.29553  1.0000
  C   C27       1.0  0.08983  0.34411  0.29615  1.0000
  C   C28       1.0  0.11750  0.33268  0.31641  1.0000
  C   C29       1.0  0.08070  0.38459  0.17287  1.0000
  H   H16       1.0  0.24747  0.17422  0.39436  1.0000
  H   H17       1.0  0.24287  0.12261  0.38515  1.0000
  H   H18       1.0  0.02924  0.37010  0.30487  1.0000
  H   H19       1.0  0.03906  0.35223  0.26447  1.0000
  H   H20       1.0  0.11117  0.38710  0.28535  1.0000
  H   H21       1.0  0.08835  0.38588  0.32409  1.0000
  H   H22       1.0  0.04792  0.41953  0.32059  1.0000
  H   H23       1.0  0.03826  0.43598  0.27864  1.0000
  H   H24       1.0  0.05729  0.41776  0.22471  1.0000
  H   H25       1.0  0.09512  0.41178  0.23651  1.0000
  H   H26       1.0  0.05382  0.36016  0.21016  1.0000
  H   H27       1.0  0.09387  0.35889  0.21881  1.0000
  H   H28       1.0  0.09998  0.16495  0.07704  1.0000
  H   H29       1.0  0.27037  0.20130  0.41541  1.0000
  H   H30       1.0  0.08981  0.45414  0.26847  1.0000
  H   H31       1.0  0.10316  0.43607  0.30858  1.0000
  H   H32       1.0  0.06984  0.33501  0.31033  1.0000
  H   H33       1.0  0.09034  0.33450  0.26889  1.0000
  H   H34       1.0  0.11737  0.30759  0.31688  1.0000
  H   H35       1.0  0.13848  0.34030  0.30310  1.0000
  H   H36       1.0  0.11744  0.34097  0.34442  1.0000
  H   H37       1.0  0.06222  0.39956  0.16357  1.0000
  H   H38       1.0  0.10244  0.39695  0.17140  1.0000
  H   H39       1.0  0.08180  0.36493  0.15459  1.0000
  H   H40       1.0  0.23080  0.19843  0.33827  1.0000
  H   H41       1.0  0.19236  0.21815  0.04797  1.0000
  C   C30       1.0  0.00679  0.38840  0.25825  1.0000
  C   C31       1.0  0.07449  0.47434  0.31698  1.0000
  C   C32       1.0  0.17551  0.42274  0.28650  1.0000
  C   C33       1.0  0.26081  0.12330  0.36481  1.0000
  N   N2        1.0  0.09938  0.22829  0.06112  1.0000
  C   C34       1.0  0.09221  0.21461  0.02506  1.0000
  C   C35       1.0  0.08390  0.21101  0.09091  1.0000
  C   C36       1.0  0.08712  0.26013  0.06116  1.0000
  C   C37       1.0  0.13281  0.22994  0.06767  1.0000
  C   C38       1.0  0.15008  0.19968  0.06817  1.0000
  H   H42       1.0  0.25453  0.11309  0.44039  1.0000
  C   C39       1.0  0.09018  0.27782  0.09688  1.0000
  C   C40       1.0  0.06831  0.16157  0.12003  1.0000
  H   H43       1.0  0.06167  0.17264  0.06472  1.0000
  C   C41       1.0  0.18399  0.20512  0.07133  1.0000
  C   C42       1.0  0.24921  0.21480  0.34384  1.0000
  C   C43       1.0  0.07176  0.30693  0.09590  1.0000
  H   H44       1.0  0.03042  0.28416  0.32006  1.0000
  H   H45       1.0  0.09963  0.19075  0.02366  1.0000
  H   H46       1.0  0.09620  0.21437  0.11667  1.0000
  H   H47       1.0  0.06085  0.22015  0.09575  1.0000
  H   H48       1.0  0.06285  0.25989  0.05340  1.0000
  H   H49       1.0  0.09872  0.27429  0.04097  1.0000
  H   H50       1.0  0.14357  0.24496  0.04784  1.0000
  H   H51       1.0  0.13758  0.24071  0.09382  1.0000
  H   H52       1.0  0.14610  0.18648  0.04345  1.0000
  H   H53       1.0  0.14331  0.18620  0.09184  1.0000
  H   H54       1.0  0.25484  0.22639  0.31835  1.0000
  C   C44       1.0  0.16771  0.45359  0.28917  1.0000
  H   H55       1.0  0.11403  0.28426  0.10161  1.0000
  H   H56       1.0  0.08234  0.26451  0.12015  1.0000
  H   H57       1.0  0.27655  0.09336  0.32292  1.0000
  H   H58       1.0  0.26942  0.07471  0.36524  1.0000
  H   H59       1.0  0.24650  0.35330  0.00700  1.0000
  H   H60       1.0  0.04692  0.17198  0.12922  1.0000
  H   H61       1.0  0.19603  0.18317  0.07233  1.0000
  H   H62       1.0  0.17240  0.46598  0.31346  1.0000
  H   H63       1.0  0.18930  0.21788  0.09617  1.0000
  H   H64       1.0  0.27279  0.00446  0.37770  1.0000
  C   C45       1.0  0.07915  0.17656  0.08554  1.0000
  C   C46       1.0  0.27082  0.18307  0.39486  1.0000
  H   H65       1.0  0.29056  0.01411  0.33570  1.0000
  H   H66       1.0  0.04741  0.30175  0.09288  1.0000
  H   H67       1.0  0.07491  0.31925  0.12146  1.0000
  H   H68       1.0  0.07919  0.32170  0.07360  1.0000
  H   H69       1.0  0.00001  0.28502  0.19272  1.0000
  C   C47       1.0  0.14830  0.45173  0.22884  1.0000
  H   H70       1.0  0.06732  0.21402  0.02108  1.0000
  C   C48       1.0  0.28179  0.99523  0.35226  1.0000
  H   H71       1.0  0.24120  0.23199  0.36322  1.0000
  H   H72       1.0  0.99741  0.40684  0.27492  1.0000
  C   C49       1.0  0.15422  0.46836  0.26020  1.0000
  C   C50       1.0  0.22551  0.35043  0.99115  1.0000
  H   H73       1.0  0.01189  0.39750  0.23135  1.0000
  C   C51       1.0  0.26152  0.09252  0.34649  1.0000
  H   H74       1.0  0.28450  0.18198  0.33780  1.0000
  H   H75       1.0  0.06842  0.46812  0.34481  1.0000
  H   H76       1.0  0.23768  0.15032  0.44376  1.0000
  H   H77       1.0  0.26307  0.98423  0.33742  1.0000
  C   C52       1.0  0.28760  0.14960  0.44379  1.0000
  N   N3        1.0  0.29309  0.15889  0.40546  1.0000
  H   H78       1.0  0.30120  0.11162  0.39481  1.0000
  H   H79       1.0  0.29141  0.16927  0.46188  1.0000
  H   H80       1.0  0.09760  0.25395  0.98883  1.0000
  H   H81       1.0  0.29524  0.21558  0.36126  1.0000
  H   H82       1.0  0.30394  0.13188  0.45214  1.0000
  H   H83       1.0  0.30730  0.13510  0.35743  1.0000
  H   H84       1.0  0.98976  0.34693  0.23470  1.0000
  C   C53       1.0  0.98448  0.28542  0.24744  1.0000
  H   H85       1.0  0.13110  0.23135  0.99376  1.0000
  C   C54       1.0  0.10618  0.23058  0.99192  1.0000
  H   H86       1.0  0.11433  0.33464  0.99557  1.0000
  H   H87       1.0  0.31482  0.99544  0.13525  1.0000
  Fe  Fe5       1.0  0.17947  0.26132  0.81329  1.0000
  S   S9        1.0  0.13641  0.25356  0.84439  1.0000
  S   S10       1.0  0.21235  0.22068  0.80976  1.0000
  Fe  Fe6       1.0  0.16042  0.32740  0.79588  1.0000
  S   S11       1.0  0.11654  0.32314  0.82505  1.0000
  S   S12       1.0  0.17303  0.36692  0.75913  1.0000
  Fe  Fe7       1.0  0.14394  0.29962  0.86838  1.0000
  S   S13       1.0  0.13230  0.31314  0.92637  1.0000
  Fe  Fe8       1.0  0.11249  0.27743  0.79921  1.0000
  S   S14       1.0  0.07486  0.25685  0.76494  1.0000
  S   S15       1.0  0.18844  0.30645  0.84022  1.0000
  S   S16       1.0  0.15505  0.28285  0.76744  1.0000
  S   S17       1.0  0.29364  0.14597  0.69761  1.0000
  C   C55       1.0  0.03586  0.26607  0.76433  1.0000
  C   C56       1.0  0.02284  0.28486  0.79005  1.0000
  C   C57       1.0  0.09829  0.21385  0.95741  1.0000
  H   H88       1.0  0.10332  0.40188  0.86787  1.0000
  C   C58       1.0  0.16052  0.38646  0.89185  1.0000
  C   C59       1.0  0.01738  0.25390  0.73727  1.0000
  H   H89       1.0  0.03666  0.29416  0.81121  1.0000
  C   C60       1.0  0.22381  0.37461  0.96205  1.0000
  N   N4        1.0  0.19080  0.39283  0.90874  1.0000
  H   H90       1.0  0.02714  0.23914  0.71740  1.0000
  C   C61       1.0  0.23515  0.20068  0.77800  1.0000
  C   C62       1.0  0.23927  0.21049  0.74271  1.0000
  C   C63       1.0  0.25677  0.19325  0.71856  1.0000
  C   C64       1.0  0.27110  0.16628  0.72933  1.0000
  C   C65       1.0  0.26720  0.15665  0.76468  1.0000
  C   C66       1.0  0.24938  0.17366  0.78869  1.0000
  H   H91       1.0  0.22891  0.23133  0.73394  1.0000
  H   H92       1.0  0.25950  0.20106  0.69135  1.0000
  H   H93       1.0  0.24646  0.16570  0.81581  1.0000
  H   H94       1.0  0.24344  0.37137  0.94421  1.0000
  H   H95       1.0  0.08232  0.43624  0.81490  1.0000
  H   H96       1.0  0.13105  0.38117  0.93914  1.0000
  H   H97       1.0  0.18376  0.27757  0.95345  1.0000
  H   H98       1.0  0.17823  0.42970  0.94357  1.0000
  C   C67       1.0  0.05965  0.44048  0.82640  1.0000
  C   C68       1.0  0.13238  0.39481  0.91434  1.0000
  C   C69       1.0  0.17680  0.42476  0.73220  1.0000
  C   C70       1.0  0.16580  0.40655  0.76015  1.0000
  C   C71       1.0  0.15024  0.42041  0.78818  1.0000
  H   H99       1.0  0.18875  0.41434  0.71026  1.0000
  H   H100      1.0  0.14092  0.40665  0.80924  1.0000
  C   C72       1.0  0.19366  0.42523  0.92076  1.0000
  H   H101      1.0  0.25699  0.40030  0.82899  1.0000
  C   C73       1.0  0.10340  0.38894  0.89330  1.0000
  H   H102      1.0  0.15888  0.36209  0.88464  1.0000
  H   H103      1.0  0.18986  0.34865  0.93348  1.0000
  H   H104      1.0  0.10109  0.36449  0.88727  1.0000
  H   H105      1.0  0.08366  0.39593  0.90945  1.0000
  H   H106      1.0  0.27759  0.13586  0.77343  1.0000
  C   C74       1.0  0.01673  0.42961  0.64869  1.0000
  H   H107      1.0  0.22172  0.36007  0.88586  1.0000
  H   H108      1.0  0.13255  0.41908  0.92161  1.0000
  H   H109      1.0  0.10743  0.19051  0.95796  1.0000
  C   C75       1.0  0.21049  0.38940  0.84274  1.0000
  C   C76       1.0  0.02431  0.34821  0.71791  1.0000
  C   C77       1.0  0.04306  0.46454  0.80463  1.0000
  N   N5        1.0  0.00207  0.34868  0.68726  1.0000
  H   H110      1.0  0.07349  0.21299  0.95354  1.0000
  H   H111      1.0  0.02018  0.46672  0.81617  1.0000
  C   C78       1.0  0.05800  0.34426  0.70796  1.0000
  H   H112      1.0  0.00455  0.30001  0.68624  1.0000
  H   H113      1.0  0.10833  0.22596  0.93427  1.0000
  H   H114      1.0  0.21659  0.42955  0.93165  1.0000
  H   H115      1.0  0.25421  0.15328  0.50728  1.0000
  C   C79       1.0  0.07810  0.34657  0.74110  1.0000
  H   H116      1.0  0.04138  0.45596  0.77690  1.0000
  H   H117      1.0  0.01844  0.32948  0.73650  1.0000
  H   H118      1.0  0.02283  0.36900  0.73426  1.0000
  H   H119      1.0  0.99134  0.37372  0.63936  1.0000
  H   H120      1.0  0.04055  0.42597  0.64072  1.0000
  H   H121      1.0  0.23418  0.38728  0.79220  1.0000
  H   H122      1.0  0.17576  0.37789  0.96121  1.0000
  H   H123      1.0  0.03029  0.37069  0.64792  1.0000
  H   H124      1.0  0.20230  0.41235  0.83649  1.0000
  H   H125      1.0  0.02254  0.40902  0.70005  1.0000
  H   H126      1.0  0.16761  0.44603  0.87635  1.0000
  H   H127      1.0  0.06208  0.32163  0.69617  1.0000
  H   H128      1.0  0.06544  0.36187  0.68884  1.0000
  C   C80       1.0  0.17285  0.28839  0.97587  1.0000
  H   H129      1.0  0.15795  0.39866  0.86628  1.0000
  H   H130      1.0  0.02782  0.31783  0.65403  1.0000
  C   C81       1.0  0.18862  0.44971  0.89176  1.0000
  H   H131      1.0  0.21238  0.11329  0.67521  1.0000
  C   C82       1.0  0.19352  0.37271  0.94128  1.0000
  C   C83       1.0  0.14757  0.30658  0.96998  1.0000
  H   H132      1.0  0.09000  0.47981  0.74625  1.0000
  C   C84       1.0  0.00543  0.31924  0.66717  1.0000
  C   C85       1.0  0.00822  0.37404  0.66137  1.0000
  H   H133      1.0  0.10202  0.34299  0.73349  1.0000
  H   H134      1.0  0.07616  0.36923  0.75363  1.0000
  H   H135      1.0  0.07183  0.32898  0.76093  1.0000
  C   C86       1.0  0.23913  0.38404  0.82110  1.0000
  H   H136      1.0  0.13601  0.46271  0.81150  1.0000
  C   C87       1.0  0.00724  0.40641  0.67679  1.0000
  N   N6        1.0  0.15063  0.17223  0.72549  1.0000
  C   C88       1.0  0.15640  0.20573  0.72166  1.0000
  C   C89       1.0  0.14706  0.16392  0.76453  1.0000
  C   C90       1.0  0.17808  0.15588  0.71152  1.0000
  C   C91       1.0  0.12372  0.16203  0.70391  1.0000
  C   C92       1.0  0.09350  0.17832  0.71128  1.0000
  C   C93       1.0  0.16273  0.21717  0.68314  1.0000
  C   C94       1.0  0.17851  0.12104  0.71657  1.0000
  C   C95       1.0  0.13138  0.18720  0.78920  1.0000
  C   C96       1.0  0.12433  0.17343  0.82573  1.0000
  C   C97       1.0  0.06954  0.16925  0.68390  1.0000
  C   C98       1.0  0.16486  0.25158  0.68185  1.0000
  C   C99       1.0  0.20836  0.10770  0.70377  1.0000
  H   H137      1.0  0.17592  0.21237  0.73866  1.0000
  H   H138      1.0  0.13738  0.21926  0.73219  1.0000
  H   H139      1.0  0.13495  0.14199  0.76712  1.0000
  H   H140      1.0  0.16961  0.16036  0.77720  1.0000
  H   H141      1.0  0.19875  0.16499  0.72452  1.0000
  H   H142      1.0  0.18089  0.15974  0.68234  1.0000
  H   H143      1.0  0.12859  0.16365  0.67481  1.0000
  H   H144      1.0  0.11921  0.13766  0.70868  1.0000
  H   H145      1.0  0.09564  0.20322  0.70997  1.0000
  H   H146      1.0  0.08479  0.17166  0.73790  1.0000
  H   H147      1.0  0.18455  0.20834  0.67325  1.0000
  H   H148      1.0  0.14455  0.21031  0.66448  1.0000
  H   H149      1.0  0.16026  0.11023  0.70081  1.0000
  H   H150      1.0  0.17584  0.11459  0.74504  1.0000
  H   H151      1.0  0.14670  0.20666  0.79351  1.0000
  H   H152      1.0  0.11019  0.19610  0.77784  1.0000
  H   H153      1.0  0.14547  0.16648  0.83941  1.0000
  H   H154      1.0  0.11273  0.19036  0.84268  1.0000
  H   H155      1.0  0.10922  0.15358  0.82282  1.0000
  H   H156      1.0  0.04797  0.18070  0.69039  1.0000
  H   H157      1.0  0.07642  0.17621  0.65658  1.0000
  H   H158      1.0  0.06572  0.14445  0.68445  1.0000
  H   H159      1.0  0.14330  0.26198  0.69047  1.0000
  H   H160      1.0  0.18345  0.25969  0.69933  1.0000
  H   H161      1.0  0.16961  0.25904  0.65407  1.0000
  C   C100      1.0  0.99173  0.29127  0.78871  1.0000
  H   H162      1.0  0.22738  0.11654  0.72003  1.0000
  H   H163      1.0  0.20790  0.08273  0.70663  1.0000
  H   H164      1.0  0.20803  0.45008  0.87314  1.0000
  C   C101      1.0  0.17296  0.45642  0.73256  1.0000
  H   H165      1.0  0.24736  0.36057  0.82501  1.0000
  C   C102      1.0  0.21606  0.38455  0.88335  1.0000
  H   H166      1.0  0.06212  0.44768  0.85471  1.0000
  H   H167      1.0  0.22581  0.32758  0.97895  1.0000
  H   H168      1.0  0.22601  0.39687  0.97545  1.0000
  C   C103      1.0  0.25315  0.13126  0.49310  1.0000
  H   H169      1.0  0.04677  0.41896  0.82572  1.0000
  C   C104      1.0  0.14716  0.45216  0.78910  1.0000
  H   H170      1.0  0.23708  0.39687  0.89062  1.0000
  H   H171      1.0  0.19334  0.37310  0.83306  1.0000
  H   H172      1.0  0.10086  0.47928  0.68127  1.0000
  C   C105      1.0  0.98629  0.26058  0.73572  1.0000
  H   H173      1.0  0.30419  0.24446  0.69461  1.0000
  C   C106      1.0  0.15860  0.47041  0.76136  1.0000
  H   H174      1.0  0.27122  0.11624  0.50353  1.0000
  H   H175      1.0  0.18197  0.47007  0.71109  1.0000
  H   H176      1.0  0.01462  0.45274  0.65990  1.0000
  H   H177      1.0  0.16693  0.48260  0.92666  1.0000
  H   H178      1.0  0.23105  0.12058  0.49890  1.0000
  H   H179      1.0  0.06392  0.46474  0.69115  1.0000
  C   C107      1.0  0.98502  0.28088  0.62269  1.0000
  C   C108      1.0  0.18658  0.48115  0.90843  1.0000
  H   H180      1.0  0.98525  0.32873  0.61444  1.0000
  H   H181      1.0  0.00783  0.27723  0.61139  1.0000
  H   H182      1.0  0.00206  0.42806  0.62465  1.0000
  H   H183      1.0  0.98387  0.41212  0.68474  1.0000
  Fe  Fe9       1.0  0.16276  0.61603  0.29640  1.0000
  S   S18       1.0  0.18157  0.57585  0.32607  1.0000
  S   S19       1.0  0.18507  0.65908  0.27300  1.0000
  Fe  Fe10      1.0  0.09622  0.59577  0.31210  1.0000
  S   S20       1.0  0.11088  0.55528  0.34386  1.0000
  S   S21       1.0  0.04715  0.61132  0.30949  1.0000
  Fe  Fe11      1.0  0.14650  0.58532  0.36897  1.0000
  S   S22       1.0  0.15275  0.60069  0.42766  1.0000
  Fe  Fe12      1.0  0.14447  0.54837  0.29904  1.0000
  S   S23       1.0  0.14374  0.50722  0.26156  1.0000
  S   S24       1.0  0.12929  0.62618  0.33964  1.0000
  S   S25       1.0  0.12804  0.58835  0.26671  1.0000
  H   H184      1.0  0.21064  0.67455  0.34019  1.0000
  H   H185      1.0  0.16681  0.72356  0.36159  1.0000
  H   H186      1.0  0.07384  0.58935  0.44786  1.0000
  C   C109      1.0  0.02613  0.58373  0.24735  1.0000
  H   H187      1.0  0.15713  0.69016  0.33622  1.0000
  C   C110      1.0  0.18142  0.68115  0.38591  1.0000
  H   H188      1.0  0.22003  0.70521  0.36873  1.0000
  H   H189      1.0  0.16829  0.54114  0.45818  1.0000
  H   H190      1.0  0.28464  0.90275  0.10698  1.0000
  H   H191      1.0  0.25577  0.55947  0.41422  1.0000
  C   C111      1.0  0.30664  0.97215  0.35963  1.0000
  C   C112      1.0  0.23776  0.57539  0.40591  1.0000
  H   H192      1.0  0.00019  0.56483  0.33301  1.0000
  C   C113      1.0  0.01966  0.60230  0.27656  1.0000
  H   H193      1.0  0.25455  0.73985  0.23395  1.0000
  H   H194      1.0  0.12316  0.62052  0.17962  1.0000
  H   H195      1.0  0.03046  0.67854  0.18526  1.0000
  C   C114      1.0  0.00372  0.57767  0.22154  1.0000
  H   H196      1.0  0.04846  0.57428  0.24446  1.0000
  H   H197      1.0  0.26594  0.66757  0.43268  1.0000
  C   C115      1.0  0.15927  0.69969  0.36356  1.0000
  H   H198      1.0  0.17212  0.65806  0.38835  1.0000
  C   C116      1.0  0.22181  0.67368  0.26268  1.0000
  C   C117      1.0  0.24808  0.65640  0.26584  1.0000
  C   C118      1.0  0.27651  0.66918  0.25762  1.0000
  C   C119      1.0  0.27931  0.69938  0.24597  1.0000
  C   C120      1.0  0.25300  0.71664  0.24279  1.0000
  C   C121      1.0  0.22458  0.70388  0.25109  1.0000
  H   H199      1.0  0.24651  0.63312  0.27439  1.0000
  H   H200      1.0  0.17985  0.66043  0.18432  1.0000
  H   H201      1.0  0.30592  0.94356  0.15883  1.0000
  H   H202      1.0  0.20455  0.71759  0.24845  1.0000
  C   C122      1.0  0.16780  0.63846  0.18266  1.0000
  H   H203      1.0  0.02677  0.64371  0.13492  1.0000
  C   C123      1.0  0.02010  0.63572  0.16191  1.0000
  C   C124      1.0  0.07626  0.56632  0.45935  1.0000
  H   H204      1.0  0.25450  0.88548  0.15851  1.0000
  H   H205      1.0  0.02624  0.53838  0.31287  1.0000
  H   H206      1.0  0.10052  0.56024  0.45995  1.0000
  H   H207      1.0  0.09435  0.70764  0.33114  1.0000
  C   C125      1.0  0.07007  0.64838  0.19186  1.0000
  C   C126      1.0  0.22744  0.62895  0.38342  1.0000
  C   C127      1.0  0.27689  0.69808  0.35972  1.0000
  H   H208      1.0  0.26464  0.84782  0.14359  1.0000
  H   H209      1.0  0.31465  0.88842  0.41222  1.0000
  C   C128      1.0  0.24207  0.67144  0.42471  1.0000
  H   H210      1.0  0.06444  0.55010  0.44154  1.0000
  H   H211      1.0  0.20656  0.62444  0.39855  1.0000
  H   H212      1.0  0.22997  0.63199  0.45792  1.0000
  H   H213      1.0  0.99167  0.49613  0.33432  1.0000
  H   H214      1.0  0.13687  0.68144  0.21669  1.0000
  H   H215      1.0  0.13674  0.69915  0.37636  1.0000
  H   H216      1.0  0.05779  0.70224  0.31112  1.0000
  N   N7        1.0  0.23674  0.66163  0.38644  1.0000
  H   H217      1.0  0.98787  0.51030  0.27278  1.0000
  H   H218      1.0  0.02539  0.64843  0.21695  1.0000
  H   H219      1.0  0.09398  0.49007  0.31796  1.0000
  H   H220      1.0  0.26313  0.65496  0.33837  1.0000
  C   C129      1.0  0.16026  0.58756  0.47202  1.0000
  H   H221      1.0  0.22199  0.57829  0.42868  1.0000
  H   H222      1.0  0.09645  0.71642  0.26637  1.0000
  H   H223      1.0  0.05533  0.48626  0.30409  1.0000
  H   H224      1.0  0.12617  0.64688  0.23604  1.0000
  H   H225      1.0  0.18236  0.69183  0.41270  1.0000
  C   C130      1.0  0.03564  0.65454  0.19084  1.0000
  C   C131      1.0  0.08602  0.70265  0.19601  1.0000
  C   C132      1.0  0.99038  0.61407  0.28005  1.0000
  C   C133      1.0  0.08104  0.69311  0.31280  1.0000
  H   H226      1.0  0.26286  0.70954  0.33912  1.0000
  C   C134      1.0  0.29985  0.72997  0.00286  1.0000
  C   C135      1.0  0.26561  0.66524  0.36543  1.0000
  H   H227      1.0  0.08008  0.66999  0.32421  1.0000
  H   H228      1.0  0.23883  0.69630  0.42716  1.0000
  H   H229      1.0  0.17584  0.62618  0.15864  1.0000
  C   C136      1.0  0.25169  0.60567  0.39531  1.0000
  H   H230      1.0  0.26507  0.61403  0.41833  1.0000
  H   H231      1.0  0.10268  0.71821  0.20849  1.0000
  H   H232      1.0  0.05393  0.68004  0.25068  1.0000
  C   C137      1.0  0.21308  0.68111  0.36877  1.0000
  H   H233      1.0  0.11920  0.68454  0.27914  1.0000
  H   H234      1.0  0.22542  0.56529  0.38304  1.0000
  N   N8        1.0  0.08901  0.67133  0.21163  1.0000
  H   H235      1.0  0.17345  0.62469  0.20659  1.0000
  H   H236      1.0  0.12894  0.65449  0.15439  1.0000
  H   H237      1.0  0.30236  0.92628  0.27476  1.0000
  C   C138      1.0  0.09573  0.69273  0.27588  1.0000
  C   C139      1.0  0.22270  0.65573  0.45405  1.0000
  C   C140      1.0  0.09067  0.70572  0.15519  1.0000
  H   H238      1.0  0.26756  0.60158  0.37288  1.0000
  C   C141      1.0  0.30934  0.69868  0.34612  1.0000
  H   H239      1.0  0.22137  0.62353  0.35520  1.0000
  H   H240      1.0  0.09974  0.75420  0.15655  1.0000
  H   H241      1.0  0.29653  0.65544  0.26007  1.0000
  H   H242      1.0  0.00907  0.56368  0.19872  1.0000
  C   C142      1.0  0.07774  0.67226  0.24969  1.0000
  C   C143      1.0  0.27109  0.86688  0.16136  1.0000
  H   H243      1.0  0.11433  0.70061  0.14820  1.0000
  H   H244      1.0  0.29096  0.89214  0.04378  1.0000
  H   H245      1.0  0.07531  0.69075  0.13994  1.0000
  C   C144      1.0  0.08446  0.73804  0.14278  1.0000
  C   C145      1.0  0.12177  0.66162  0.21252  1.0000
  H   H246      1.0  0.07771  0.64578  0.16384  1.0000
  H   H247      1.0  0.07774  0.64904  0.26118  1.0000
  C   C146      1.0  0.00882  0.54132  0.33386  1.0000
  H   H248      1.0  0.08837  0.73980  0.11353  1.0000
  H   H249      1.0  0.06371  0.71256  0.20276  1.0000
  H   H250      1.0  0.27058  0.85878  0.18948  1.0000
  H   H251      1.0  0.07315  0.62561  0.20418  1.0000
  C   C147      1.0  0.13378  0.64327  0.18014  1.0000
  H   H252      1.0  0.06071  0.74436  0.14826  1.0000
  H   H253      1.0  0.19847  0.65508  0.44726  1.0000
  C   C148      1.0  0.98287  0.51913  0.32865  1.0000
  H   H254      1.0  0.01952  0.53768  0.36037  1.0000
  H   H255      1.0  0.98507  0.62830  0.30267  1.0000
  H   H256      1.0  0.99526  0.63789  0.16447  1.0000
  H   H257      1.0  0.27588  0.71124  0.38493  1.0000
  H   H258      1.0  0.02608  0.61149  0.16456  1.0000
  C   C149      1.0  0.16723  0.55743  0.47968  1.0000
  H   H259      1.0  0.28427  0.65263  0.37858  1.0000
  H   H260      1.0  0.27611  0.72945  0.01210  1.0000
  C   C150      1.0  0.30277  0.87799  0.15241  1.0000
  H   H261      1.0  0.31136  0.68560  0.32090  1.0000
  H   H262      1.0  0.29640  0.95323  0.37486  1.0000
  H   H263      1.0  0.30884  0.89574  0.17185  1.0000
  H   H264      1.0  0.30250  0.93105  0.04107  1.0000
  H   H265      1.0  0.30952  0.94773  0.09530  1.0000
  C   C151      1.0  0.30489  0.88880  0.11301  1.0000
  H   H266      1.0  0.30215  0.86770  0.09701  1.0000
  H   H267      1.0  0.31227  0.74695  0.01908  1.0000
  S   S26       1.0  0.31139  0.79768  0.18745  1.0000
  H   H268      1.0  0.31447  0.96363  0.33356  1.0000
  C   C152      1.0  0.31014  0.90741  0.03778  1.0000
  H   H269      1.0  0.31039  0.70755  0.00744  1.0000
  H   H270      1.0  0.31207  0.82800  0.01802  1.0000
  Fe  Fe13      1.0  0.15930  0.54732  0.72161  1.0000
  S   S27       1.0  0.13747  0.59067  0.73988  1.0000
  S   S28       1.0  0.15560  0.51045  0.76495  1.0000
  Fe  Fe14      1.0  0.16710  0.57248  0.64439  1.0000
  S   S29       1.0  0.14483  0.61644  0.65842  1.0000
  S   S30       1.0  0.18068  0.55626  0.58805  1.0000
  Fe  Fe15      1.0  0.17380  0.61537  0.70881  1.0000
  S   S31       1.0  0.19420  0.66051  0.73024  1.0000
  Fe  Fe16      1.0  0.11084  0.58850  0.68896  1.0000
  S   S32       1.0  0.05974  0.58557  0.68061  1.0000
  S   S33       1.0  0.19748  0.57195  0.69358  1.0000
  S   S34       1.0  0.13153  0.54470  0.67170  1.0000
  H   H271      1.0  0.99755  0.56756  0.68172  1.0000
  H   H272      1.0  0.01497  0.55455  0.78223  1.0000
  C   C153      1.0  0.06948  0.56378  0.82044  1.0000
  H   H273      1.0  0.06703  0.56239  0.76264  1.0000
  C   C154      1.0  0.27020  0.69561  0.88066  1.0000
  H   H274      1.0  0.28225  0.77041  0.90254  1.0000
  H   H275      1.0  0.24734  0.75210  0.90883  1.0000
  H   H276      1.0  0.22296  0.71169  0.88620  1.0000
  H   H277      1.0  0.17900  0.52506  0.52069  1.0000
  H   H278      1.0  0.22414  0.67649  0.83430  1.0000
  C   C155      1.0  0.06293  0.56480  0.49697  1.0000
  H   H279      1.0  0.01391  0.63370  0.78658  1.0000
  H   H280      1.0  0.24987  0.67185  0.49883  1.0000
  C   C156      1.0  0.07074  0.54590  0.78470  1.0000
  C   C157      1.0  0.03017  0.59386  0.71110  1.0000
  C   C158      1.0  0.03457  0.61240  0.74090  1.0000
  H   H281      1.0  0.05652  0.62216  0.74587  1.0000
  H   H282      1.0  0.09707  0.51689  0.72826  1.0000
  H   H283      1.0  0.08417  0.49117  0.80344  1.0000
  C   C159      1.0  0.30463  0.70079  0.66706  1.0000
  C   C160      1.0  0.00129  0.58179  0.70479  1.0000
  C   C161      1.0  0.09300  0.58897  0.82111  1.0000
  H   H284      1.0  0.19853  0.66409  0.86855  1.0000
  C   C162      1.0  0.22818  0.67920  0.74494  1.0000
  C   C163      1.0  0.22723  0.71029  0.75331  1.0000
  C   C164      1.0  0.25329  0.72623  0.76465  1.0000
  C   C165      1.0  0.28097  0.71133  0.76819  1.0000
  C   C166      1.0  0.28191  0.68019  0.76019  1.0000
  C   C167      1.0  0.25588  0.66429  0.74862  1.0000
  H   H285      1.0  0.20611  0.72225  0.75065  1.0000
  H   H286      1.0  0.25192  0.75012  0.77032  1.0000
  H   H287      1.0  0.25734  0.80651  0.86085  1.0000
  H   H288      1.0  0.25725  0.64046  0.74246  1.0000
  C   C168      1.0  0.16483  0.59918  0.53618  1.0000
  C   C169      1.0  0.17193  0.56905  0.54383  1.0000
  H   H289      1.0  0.09142  0.50872  0.61576  1.0000
  H   H290      1.0  0.16431  0.61554  0.55763  1.0000
  N   N9        1.0  0.06749  0.58846  0.56032  1.0000
  C   C170      1.0  0.03506  0.59858  0.56135  1.0000
  C   C171      1.0  0.07789  0.58848  0.52191  1.0000
  C   C172      1.0  0.06949  0.55733  0.57659  1.0000
  C   C173      1.0  0.08752  0.60947  0.58145  1.0000
  C   C174      1.0  0.08568  0.64338  0.57110  1.0000
  C   C175      1.0  0.02160  0.60371  0.59915  1.0000
  C   C176      1.0  0.10069  0.54181  0.57416  1.0000
  H   H291      1.0  0.07366  0.61087  0.50939  1.0000
  C   C177      1.0  0.24374  0.78765  0.84975  1.0000
  C   C178      1.0  0.10606  0.66258  0.59494  1.0000
  H   H292      1.0  0.15398  0.63175  0.49504  1.0000
  C   C179      1.0  0.07811  0.48537  0.69124  1.0000
  H   H293      1.0  0.04715  0.57456  0.82423  1.0000
  H   H294      1.0  0.03192  0.61962  0.54546  1.0000
  H   H295      1.0  0.29603  0.71075  0.64177  1.0000
  H   H296      1.0  0.23325  0.68157  0.91589  1.0000
  H   H297      1.0  0.05224  0.54204  0.56478  1.0000
  H   H298      1.0  0.06408  0.55824  0.60562  1.0000
  H   H299      1.0  0.08314  0.60729  0.61063  1.0000
  H   H300      1.0  0.11152  0.60283  0.57840  1.0000
  H   H301      1.0  0.06248  0.65222  0.57399  1.0000
  H   H302      1.0  0.09310  0.64689  0.54310  1.0000
  H   H303      1.0  0.08429  0.49548  0.57067  1.0000
  H   H304      1.0  0.03462  0.62071  0.61452  1.0000
  H   H305      1.0  0.11709  0.55414  0.59105  1.0000
  H   H306      1.0  0.10934  0.54105  0.54643  1.0000
  H   H307      1.0  0.02126  0.58232  0.61458  1.0000
  H   H308      1.0  0.22180  0.78664  0.86390  1.0000
  H   H309      1.0  0.28129  0.67395  0.88776  1.0000
  H   H310      1.0  0.23460  0.64585  0.86388  1.0000
  H   H311      1.0  0.30303  0.66822  0.76269  1.0000
  H   H312      1.0  0.09913  0.66056  0.62339  1.0000
  H   H313      1.0  0.12992  0.65545  0.59218  1.0000
  H   H314      1.0  0.10433  0.68668  0.58698  1.0000
  C   C180      1.0  0.22266  0.66785  0.86218  1.0000
  H   H315      1.0  0.08899  0.60518  0.79892  1.0000
  C   C181      1.0  0.08075  0.49800  0.72907  1.0000
  H   H316      1.0  0.26067  0.71506  0.94945  1.0000
  H   H317      1.0  0.24560  0.74000  0.84184  1.0000
  H   H318      1.0  0.09155  0.60150  0.84676  1.0000
  H   H319      1.0  0.09446  0.53821  0.78161  1.0000
  C   C182      1.0  0.17324  0.54835  0.51525  1.0000
  C   C183      1.0  0.01787  0.53063  0.79084  1.0000
  H   H320      1.0  0.04263  0.52823  0.72498  1.0000
  H   H321      1.0  0.29321  0.69246  0.94556  1.0000
  C   C184      1.0  0.23623  0.69061  0.88842  1.0000
  C   C185      1.0  0.15921  0.60835  0.50054  1.0000
  C   C186      1.0  0.22594  0.67162  0.49010  1.0000
  C   C187      1.0  0.01032  0.61897  0.76390  1.0000
  H   H322      1.0  0.02037  0.58155  0.54813  1.0000
  H   H323      1.0  0.06643  0.54148  0.50693  1.0000
  N   N10       1.0  0.04911  0.51961  0.78125  1.0000
  H   H324      1.0  0.23936  0.79238  0.82103  1.0000
  H   H325      1.0  0.01491  0.53081  0.82041  1.0000
  H   H326      1.0  0.98822  0.63710  0.58272  1.0000
  C   C188      1.0  0.04987  0.50934  0.74278  1.0000
  H   H327      1.0  0.21255  0.65933  0.51055  1.0000
  C   C189      1.0  0.26852  0.75094  0.89301  1.0000
  H   H328      1.0  0.11605  0.57945  0.81867  1.0000
  C   C190      1.0  0.26043  0.75762  0.85340  1.0000
  H   H329      1.0  0.05721  0.50297  0.83483  1.0000
  H   H330      1.0  0.10270  0.58546  0.52040  1.0000
  H   H331      1.0  0.06817  0.50255  0.67306  1.0000
  H   H332      1.0  0.07404  0.54885  0.84360  1.0000
  H   H333      1.0  0.03838  0.56899  0.49463  1.0000
  C   C191      1.0  0.09944  0.50932  0.58773  1.0000
  H   H334      1.0  0.27350  0.69782  0.85120  1.0000
  H   H335      1.0  0.28505  0.69641  0.68476  1.0000
  H   H336      1.0  0.28102  0.75877  0.83695  1.0000
  C   C192      1.0  0.28432  0.71543  0.93967  1.0000
  H   H337      1.0  0.18372  0.49828  0.88695  1.0000
  N   N11       1.0  0.28492  0.72164  0.90003  1.0000
  H   H338      1.0  0.12241  0.49939  0.58692  1.0000
  C   C193      1.0  0.05957  0.49528  0.80671  1.0000
  H   H339      1.0  0.98876  0.51999  0.74509  1.0000
  H   H340      1.0  0.99256  0.48909  0.77566  1.0000
  C   C194      1.0  0.98917  0.61505  0.59686  1.0000
  H   H341      1.0  0.20748  0.48654  0.92354  1.0000
  H   H342      1.0  0.21741  0.69515  0.48840  1.0000
  H   H343      1.0  0.29168  0.76153  0.96053  1.0000
  C   C195      1.0  0.99056  0.51390  0.77387  1.0000
  H   H344      1.0  0.03346  0.49102  0.73762  1.0000
  H   H345      1.0  0.29799  0.90742  0.98146  1.0000
  C   C196      1.0  0.30150  0.73861  0.96336  1.0000
  S   S35       1.0  0.31505  0.73026  0.78195  1.0000
  H   H346      1.0  0.31384  0.74315  0.69261  1.0000
  H   H347      1.0  0.31580  0.67889  0.66131  1.0000
  Fe  Fe17      1.0  0.36366  0.07373  0.35563  1.0000
  S   S36       1.0  0.38057  0.11856  0.33578  1.0000
  S   S37       1.0  0.34283  0.06455  0.41083  1.0000
  Fe  Fe18      1.0  0.37310  0.04349  0.28223  1.0000
  S   S38       1.0  0.38954  0.08702  0.25776  1.0000
  S   S39       1.0  0.38056  0.00210  0.24672  1.0000
  Fe  Fe19      1.0  0.41687  0.09200  0.30762  1.0000
  S   S40       1.0  0.46658  0.10517  0.30965  1.0000
  Fe  Fe20      1.0  0.35161  0.11032  0.28707  1.0000
  S   S41       1.0  0.40216  0.04779  0.33137  1.0000
  H   H348      1.0  0.47245  0.00643  0.30729  1.0000
  H   H349      1.0  0.38446  0.17248  0.38294  1.0000
  Fe  Fe21      1.0  0.61492  0.09235  0.18881  1.0000
  S   S42       1.0  0.56341  0.09251  0.18445  1.0000
  N   N12       1.0  0.57071  0.06413  0.05780  1.0000
  C   C197      1.0  0.49333  0.10036  0.27482  1.0000
  C   C198      1.0  0.48467  0.09253  0.24005  1.0000
  C   C199      1.0  0.50642  0.09032  0.21279  1.0000
  C   C200      1.0  0.53712  0.09546  0.21998  1.0000
  C   C201      1.0  0.54587  0.10281  0.25487  1.0000
  C   C202      1.0  0.52405  0.10536  0.28206  1.0000
  H   H350      1.0  0.46121  0.08830  0.23413  1.0000
  H   H351      1.0  0.49940  0.08458  0.18595  1.0000
  H   H352      1.0  0.56940  0.10684  0.26083  1.0000
  H   H353      1.0  0.53104  0.11135  0.30887  1.0000
  C   C203      1.0  0.35506  0.07415  0.45501  1.0000
  H   H354      1.0  0.38737  0.14831  0.21576  1.0000
  H   H355      1.0  0.55658  0.10970  0.04527  1.0000
  H   H356      1.0  0.34871  0.15070  0.44817  1.0000
  H   H357      1.0  0.39654  0.09552  0.43952  1.0000
  H   H358      1.0  0.38213  0.19077  0.42608  1.0000
  H   H359      1.0  0.35571  0.18604  0.31930  1.0000
  H   H360      1.0  0.58339  0.04271  0.25626  1.0000
  C   C204      1.0  0.57741  0.09740  0.05342  1.0000
  N   N13       1.0  0.43255  0.18791  0.25024  1.0000
  C   C205      1.0  0.45717  0.18631  0.27811  1.0000
  C   C206      1.0  0.40196  0.18798  0.26806  1.0000
  C   C207      1.0  0.43479  0.15969  0.22760  1.0000
  C   C208      1.0  0.43619  0.21480  0.22580  1.0000
  C   C209      1.0  0.43756  0.24627  0.24366  1.0000
  C   C210      1.0  0.48990  0.18420  0.26387  1.0000
  C   C211      1.0  0.40836  0.15387  0.20109  1.0000
  C   C212      1.0  0.39915  0.20491  0.30432  1.0000
  C   C213      1.0  0.36625  0.20851  0.31542  1.0000
  C   C214      1.0  0.44603  0.27065  0.21650  1.0000
  C   C215      1.0  0.51261  0.18466  0.29463  1.0000
  H   H361      1.0  0.61381  0.10510  0.09228  1.0000
  H   H362      1.0  0.45331  0.16641  0.29574  1.0000
  H   H363      1.0  0.45653  0.20596  0.29639  1.0000
  H   H364      1.0  0.38447  0.19683  0.24935  1.0000
  H   H365      1.0  0.39482  0.16440  0.27429  1.0000
  H   H366      1.0  0.43650  0.13935  0.24510  1.0000
  H   H367      1.0  0.45574  0.16000  0.21134  1.0000
  H   H368      1.0  0.45656  0.21208  0.20880  1.0000
  H   H369      1.0  0.41711  0.21611  0.20661  1.0000
  H   H370      1.0  0.45444  0.24724  0.26546  1.0000
  H   H371      1.0  0.41503  0.25233  0.25418  1.0000
  H   H372      1.0  0.49349  0.16281  0.24907  1.0000
  H   H373      1.0  0.49522  0.20343  0.24597  1.0000
  H   H374      1.0  0.49376  0.01227  0.12267  1.0000
  H   H375      1.0  0.61270  0.04971  0.35243  1.0000
  H   H376      1.0  0.41072  0.19178  0.32564  1.0000
  H   H377      1.0  0.40941  0.22761  0.30370  1.0000
  H   H378      1.0  0.35336  0.22114  0.29476  1.0000
  H   H379      1.0  0.33012  0.17855  0.37589  1.0000
  H   H380      1.0  0.36496  0.22112  0.34102  1.0000
  H   H381      1.0  0.46887  0.26640  0.20553  1.0000
  H   H382      1.0  0.42945  0.27125  0.19419  1.0000
  H   H383      1.0  0.44612  0.29310  0.22974  1.0000
  H   H384      1.0  0.51168  0.20654  0.30909  1.0000
  H   H385      1.0  0.50795  0.16599  0.31372  1.0000
  H   H386      1.0  0.53573  0.18157  0.28393  1.0000
  C   C216      1.0  0.64811  0.11567  0.99456  1.0000
  H   H387      1.0  0.52601  0.02721  0.14613  1.0000
  C   C217      1.0  0.47092  0.01372  0.27893  1.0000
  C   C218      1.0  0.60002  0.04804  0.06492  1.0000
  H   H388      1.0  0.40376  0.17370  0.18393  1.0000
  H   H389      1.0  0.60377  0.15852  0.10403  1.0000
  H   H390      1.0  0.59395  0.10120  0.03169  1.0000
  C   C219      1.0  0.38086  0.16874  0.41194  1.0000
  C   C220      1.0  0.52798  0.01733  0.27158  1.0000
  C   C221      1.0  0.58275  0.03089  0.31219  1.0000
  H   H391      1.0  0.60477  0.01048  0.26656  1.0000
  H   H392      1.0  0.56639  0.04958  0.31623  1.0000
  C   C222      1.0  0.59896  0.01316  0.06581  1.0000
  H   H393      1.0  0.52803  0.04122  0.26237  1.0000
  H   H394      1.0  0.58512  0.00535  0.08849  1.0000
  H   H395      1.0  0.52633  0.01841  0.30124  1.0000
  H   H396      1.0  0.53540  0.08131  0.09261  1.0000
  H   H397      1.0  0.56260  0.05888  0.11472  1.0000
  H   H398      1.0  0.46920  0.03869  0.27793  1.0000
  C   C223      1.0  0.63046  0.99997  0.07119  1.0000
  C   C224      1.0  0.55606  0.05347  0.02354  1.0000
  H   H399      1.0  0.32443  0.19479  0.41887  1.0000
  H   H400      1.0  0.35499  0.99037  0.14197  1.0000
  H   H401      1.0  0.42045  0.10667  0.19173  1.0000
  H   H402      1.0  0.39565  0.12284  0.15875  1.0000
  H   H403      1.0  0.57028  0.15756  0.07678  1.0000
  H   H404      1.0  0.53735  0.01231  0.08254  1.0000
  H   H405      1.0  0.35060  0.13098  0.40606  1.0000
  S   S43       1.0  0.64675  0.12287  0.15834  1.0000
  C   C225      1.0  0.54952  0.06067  0.08930  1.0000
  H   H406      1.0  0.60975  0.05527  0.09097  1.0000
  H   H407      1.0  0.33814  0.00873  0.36954  1.0000
  C   C226      1.0  0.55688  0.99997  0.22026  1.0000
  H   H408      1.0  0.39924  0.15403  0.42212  1.0000
  S   S44       1.0  0.33300  0.06615  0.30777  1.0000
  C   C227      1.0  0.58286  0.02143  0.27227  1.0000
  N   N14       1.0  0.55683  0.00177  0.26057  1.0000
  C   C228      1.0  0.59081  0.11361  0.08665  1.0000
  H   H409      1.0  0.62090  0.06167  0.30741  1.0000
  C   C229      1.0  0.38186  0.98539  0.41002  1.0000
  C   C230      1.0  0.38225  0.08914  0.46164  1.0000
  H   H410      1.0  0.55439  0.02312  0.20872  1.0000
  H   H411      1.0  0.50937  0.03847  0.06720  1.0000
  C   C231      1.0  0.59305  0.14766  0.08044  1.0000
  H   H412      1.0  0.53466  0.06608  0.01904  1.0000
  H   H413      1.0  0.60695  0.15265  0.05651  1.0000
  H   H414      1.0  0.49715  0.05241  0.12966  1.0000
  H   H415      1.0  0.58125  0.01079  0.15340  1.0000
  H   H416      1.0  0.64055  0.00822  0.09660  1.0000
  C   C232      1.0  0.41541  0.12742  0.17619  1.0000
  C   C233      1.0  0.61368  0.04224  0.32413  1.0000
  H   H417      1.0  0.57688  0.11012  0.11081  1.0000
  S   S45       1.0  0.32940  0.15227  0.26126  1.0000
  C   C234      1.0  0.52654  0.03424  0.08829  1.0000
  H   H418      1.0  0.54942  0.02938  0.02542  1.0000
  H   H419      1.0  0.45001  0.00410  0.26717  1.0000
  C   C235      1.0  0.35047  0.15357  0.41876  1.0000
  S   S46       1.0  0.63462  0.04981  0.16618  1.0000
  H   H420      1.0  0.32990  0.99011  0.17962  1.0000
  H   H421      1.0  0.43503  0.13285  0.15897  1.0000
  H   H422      1.0  0.49454  0.00899  0.22936  1.0000
  C   C236      1.0  0.58471  0.98502  0.20284  1.0000
  H   H423      1.0  0.57609  0.01185  0.32975  1.0000
  H   H424      1.0  0.61701  0.05469  0.04480  1.0000
  C   C237      1.0  0.49826  0.00274  0.25783  1.0000
  H   H425      1.0  0.63073  0.02397  0.32191  1.0000
  C   C238      1.0  0.32413  0.17296  0.40397  1.0000
  S   S47       1.0  0.64432  0.09158  0.23756  1.0000
  H   H426      1.0  0.38734  0.00777  0.39791  1.0000
  C   C239      1.0  0.50991  0.03141  0.12390  1.0000
  H   H427      1.0  0.37716  0.98763  0.33639  1.0000
  H   H428      1.0  0.60596  0.99616  0.21112  1.0000
  H   H429      1.0  0.59739  0.04523  0.99179  1.0000
  H   H430      1.0  0.58993  0.00373  0.04052  1.0000
  C   C240      1.0  0.58289  0.98688  0.16212  1.0000
  C   C241      1.0  0.33701  0.06590  0.48439  1.0000
  H   H431      1.0  0.53727  0.98672  0.21043  1.0000
  H   H432      1.0  0.35158  0.00724  0.44915  1.0000
  H   H433      1.0  0.63805  0.13757  0.98994  1.0000
  C   C242      1.0  0.57528  0.05663  0.98898  1.0000
  H   H434      1.0  0.40405  0.02630  0.45939  1.0000
  C   C243      1.0  0.37066  0.99119  0.44880  1.0000
  C   C244      1.0  0.39554  0.00517  0.47182  1.0000
  H   H435      1.0  0.64543  0.00643  0.04870  1.0000
  C   C245      1.0  0.33253  0.98638  0.38161  1.0000
  H   H436      1.0  0.31593  0.05427  0.47975  1.0000
  H   H437      1.0  0.32231  0.99144  0.40795  1.0000
  H   H438      1.0  0.41453  0.98912  0.47527  1.0000
  Fe  Fe22      1.0  0.34879  0.04028  0.68483  1.0000
  S   S48       1.0  0.34953  0.07443  0.72952  1.0000
  C   C246      1.0  0.49740  0.99620  0.77045  1.0000
  Fe  Fe23      1.0  0.36993  0.08621  0.62826  1.0000
  S   S49       1.0  0.37364  0.12306  0.66994  1.0000
  S   S50       1.0  0.38636  0.09576  0.57079  1.0000
  Fe  Fe24      1.0  0.39448  0.08833  0.70654  1.0000
  S   S51       1.0  0.43078  0.09630  0.74941  1.0000
  H   H439      1.0  0.44331  0.00831  0.79221  1.0000
  S   S52       1.0  0.39448  0.05305  0.66368  1.0000
  H   H440      1.0  0.41240  0.10710  0.50185  1.0000
  S   S53       1.0  0.61551  0.04867  0.84062  1.0000
  Fe  Fe25      1.0  0.61273  0.07896  0.79219  1.0000
  S   S54       1.0  0.57395  0.07777  0.75130  1.0000
  C   C247      1.0  0.55931  0.04250  0.95684  1.0000
  C   C248      1.0  0.47039  0.08976  0.74962  1.0000
  C   C249      1.0  0.48600  0.08061  0.71907  1.0000
  C   C250      1.0  0.51757  0.07682  0.72031  1.0000
  C   C251      1.0  0.53398  0.08189  0.75206  1.0000
  C   C252      1.0  0.51824  0.09038  0.78282  1.0000
  C   C253      1.0  0.48669  0.09438  0.78152  1.0000
  H   H441      1.0  0.47388  0.07705  0.69430  1.0000
  H   H442      1.0  0.52947  0.07031  0.69632  1.0000
  H   H443      1.0  0.53046  0.09437  0.80742  1.0000
  H   H444      1.0  0.47488  0.10144  0.80534  1.0000
  Fe  Fe26      1.0  0.32846  0.10723  0.69031  1.0000
  C   C254      1.0  0.37339  0.08708  0.52659  1.0000
  C   C255      1.0  0.34610  0.07220  0.51990  1.0000
  H   H445      1.0  0.54402  0.00164  0.78693  1.0000
  H   H446      1.0  0.31936  0.21070  0.67480  1.0000
  H   H447      1.0  0.36406  0.02978  0.80379  1.0000
  C   C256      1.0  0.42952  0.98581  0.70631  1.0000
  H   H448      1.0  0.32380  0.10944  0.79330  1.0000
  S   S55       1.0  0.63873  0.10688  0.92223  1.0000
  C   C257      1.0  0.43287  0.00900  0.76515  1.0000
  H   H449      1.0  0.55590  0.01790  0.96109  1.0000
  C   C258      1.0  0.32487  0.23058  0.69177  1.0000
  Fe  Fe27      1.0  0.64333  0.08596  0.86596  1.0000
  H   H450      1.0  0.62838  0.19534  0.84761  1.0000
  N   N15       1.0  0.37531  0.18569  0.75950  1.0000
  C   C259      1.0  0.35278  0.16137  0.76878  1.0000
  C   C260      1.0  0.36487  0.20153  0.72591  1.0000
  C   C261      1.0  0.40480  0.17022  0.75104  1.0000
  C   C262      1.0  0.38041  0.20791  0.78962  1.0000
  C   C263      1.0  0.35313  0.21481  0.81432  1.0000
  C   C264      1.0  0.36254  0.13931  0.79895  1.0000
  C   C265      1.0  0.43080  0.19070  0.73750  1.0000
  C   C266      1.0  0.39125  0.09560  0.49712  1.0000
  C   C267      1.0  0.39827  0.00857  0.77110  1.0000
  H   H451      1.0  0.43260  0.00874  0.69465  1.0000
  H   H452      1.0  0.36410  0.26218  0.82370  1.0000
  C   C268      1.0  0.46062  0.17345  0.73644  1.0000
  H   H453      1.0  0.34783  0.14722  0.74482  1.0000
  H   H454      1.0  0.34038  0.24520  0.85716  1.0000
  H   H455      1.0  0.38201  0.21792  0.71647  1.0000
  H   H456      1.0  0.36199  0.18474  0.70391  1.0000
  H   H457      1.0  0.40126  0.15233  0.73057  1.0000
  H   H458      1.0  0.41366  0.15839  0.77512  1.0000
  H   H459      1.0  0.39867  0.19984  0.80776  1.0000
  H   H460      1.0  0.38882  0.22973  0.77865  1.0000
  H   H461      1.0  0.34359  0.10612  0.83519  1.0000
  C   C269      1.0  0.35996  0.24124  0.83932  1.0000
  H   H462      1.0  0.37829  0.12219  0.78799  1.0000
  H   H463      1.0  0.37431  0.15126  0.82098  1.0000
  H   H464      1.0  0.43386  0.21069  0.75500  1.0000
  H   H465      1.0  0.42630  0.19846  0.70978  1.0000
  S   S56       1.0  0.32398  0.07163  0.64674  1.0000
  H   H466      1.0  0.53695  0.01188  0.74124  1.0000
  H   H467      1.0  0.39627  0.05342  0.79512  1.0000
  H   H468      1.0  0.37997  0.23622  0.85619  1.0000
  C   C270      1.0  0.38897  0.02997  0.80115  1.0000
  H   H469      1.0  0.34241  0.24439  0.67836  1.0000
  H   H470      1.0  0.43871  0.03151  0.75376  1.0000
  H   H471      1.0  0.34781  0.19497  0.83130  1.0000
  C   C271      1.0  0.33565  0.12233  0.81456  1.0000
  H   H472      1.0  0.33205  0.06551  0.54214  1.0000
  H   H473      1.0  0.47887  0.18857  0.72688  1.0000
  H   H474      1.0  0.46681  0.16498  0.76345  1.0000
  H   H475      1.0  0.45896  0.15396  0.71781  1.0000
  H   H476      1.0  0.33069  0.17116  0.77608  1.0000
  H   H477      1.0  0.53721  0.05356  0.95214  1.0000
  S   S57       1.0  0.63750  0.11780  0.81877  1.0000
  H   H478      1.0  0.48117  0.01130  0.71928  1.0000
  S   S58       1.0  0.34366  0.98876  0.68670  1.0000
  H   H479      1.0  0.57339  0.04561  0.93257  1.0000
  H   H480      1.0  0.39898  0.02270  0.82699  1.0000
  H   H481      1.0  0.33248  0.22044  0.79917  1.0000
  C   C272      1.0  0.33560  0.22028  0.72867  1.0000
  H   H482      1.0  0.33976  0.24090  0.74484  1.0000
  H   H483      1.0  0.38638  0.01614  0.74655  1.0000
  H   H484      1.0  0.49237  0.01901  0.78135  1.0000
  H   H485      1.0  0.31962  0.13832  0.82720  1.0000
  H   H486      1.0  0.31706  0.20730  0.74090  1.0000
  C   C273      1.0  0.47850  0.99065  0.73614  1.0000
  H   H487      1.0  0.43012  0.99173  0.63183  1.0000
  C   C274      1.0  0.53116  0.99536  0.76254  1.0000
  H   H488      1.0  0.32241  0.99405  0.76081  1.0000
  H   H489      1.0  0.64382  0.98820  0.74672  1.0000
  H   H490      1.0  0.38647  0.01088  0.49865  1.0000
  H   H491      1.0  0.57926  0.08070  0.98220  1.0000
  H   H492      1.0  0.39026  0.98563  0.77821  1.0000
  N   N16       1.0  0.44547  0.98409  0.74192  1.0000
  S   S59       1.0  0.37057  0.75666  0.16899  1.0000
  S   S60       1.0  0.37714  0.83023  0.17570  1.0000
  Fe  Fe28      1.0  0.39772  0.78962  0.20236  1.0000
  S   S61       1.0  0.44934  0.78885  0.20253  1.0000
  Fe  Fe29      1.0  0.60211  0.78914  0.31699  1.0000
  S   S62       1.0  0.62185  0.83283  0.33673  1.0000
  S   S63       1.0  0.55108  0.78282  0.32397  1.0000
  H   H493      1.0  0.47352  0.80956  0.38765  1.0000
  C   C275      1.0  0.37292  0.78466  0.03730  1.0000
  C   C276      1.0  0.57736  0.73373  0.41215  1.0000
  H   H494      1.0  0.60791  0.91461  0.30546  1.0000
  H   H495      1.0  0.32368  0.97840  0.27435  1.0000
  H   H496      1.0  0.54545  0.75375  0.44828  1.0000
  H   H497      1.0  0.40106  0.94575  0.21804  1.0000
  C   C277      1.0  0.37950  0.94158  0.23050  1.0000
  H   H498      1.0  0.60286  0.79059  0.43141  1.0000
  H   H499      1.0  0.58566  0.96069  0.20980  1.0000
  H   H500      1.0  0.60204  0.73336  0.40763  1.0000
  C   C278      1.0  0.32839  0.94921  0.14777  1.0000
  C   C279      1.0  0.58872  0.95676  0.28614  1.0000
  H   H501      1.0  0.58866  0.89236  0.37462  1.0000
  C   C280      1.0  0.47691  0.78918  0.23724  1.0000
  C   C281      1.0  0.50753  0.79108  0.22779  1.0000
  C   C282      1.0  0.53043  0.78973  0.25398  1.0000
  C   C283      1.0  0.52302  0.78620  0.29006  1.0000
  C   C284      1.0  0.49238  0.78445  0.29958  1.0000
  C   C285      1.0  0.46943  0.78607  0.27339  1.0000
  H   H502      1.0  0.51362  0.79341  0.19994  1.0000
  H   H503      1.0  0.55385  0.79105  0.24618  1.0000
  H   H504      1.0  0.48637  0.78159  0.32737  1.0000
  H   H505      1.0  0.44603  0.78448  0.28110  1.0000
  C   C286      1.0  0.45650  0.72108  0.14814  1.0000
  C   C287      1.0  0.36744  0.91210  0.23043  1.0000
  H   H506      1.0  0.37973  0.89378  0.21815  1.0000
  H   H507      1.0  0.54536  0.95422  0.25953  1.0000
  S   S64       1.0  0.36480  0.78932  0.24802  1.0000
  H   H508      1.0  0.52301  0.83809  0.46029  1.0000
  C   C288      1.0  0.36039  0.89220  0.12060  1.0000
  H   H509      1.0  0.40276  0.76563  0.99767  1.0000
  H   H510      1.0  0.62917  0.97494  0.07237  1.0000
  H   H511      1.0  0.49892  0.97777  0.25988  1.0000
  H   H512      1.0  0.32886  0.91682  0.35722  1.0000
  C   C289      1.0  0.39111  0.90735  0.11225  1.0000
  H   H513      1.0  0.42445  0.96960  0.35836  1.0000
  H   H514      1.0  0.54941  0.86441  0.40775  1.0000
  H   H515      1.0  0.58286  0.74902  0.46590  1.0000
  C   C290      1.0  0.59354  0.88328  0.40169  1.0000
  C   C291      1.0  0.41664  0.89238  0.13323  1.0000
  H   H516      1.0  0.48104  0.76238  0.13532  1.0000
  H   H517      1.0  0.36233  0.86774  0.11386  1.0000
  H   H518      1.0  0.35793  0.89289  0.15006  1.0000
  N   N17       1.0  0.36087  0.96783  0.38575  1.0000
  C   C292      1.0  0.32404  0.93044  0.26259  1.0000
  S   S65       1.0  0.31616  0.71426  0.23652  1.0000
  H   H519      1.0  0.60430  0.84102  0.45025  1.0000
  C   C293      1.0  0.33224  0.98339  0.15112  1.0000
  S   S66       1.0  0.32357  0.86962  0.24739  1.0000
  C   C294      1.0  0.34656  0.91091  0.37682  1.0000
  H   H520      1.0  0.36194  0.95153  0.33094  1.0000
  H   H521      1.0  0.39681  0.90536  0.08352  1.0000
  H   H522      1.0  0.39084  0.93158  0.11980  1.0000
  C   C295      1.0  0.40816  0.95188  0.34993  1.0000
  N   N18       1.0  0.33322  0.90535  0.10188  1.0000
  C   C296      1.0  0.36411  0.96555  0.24706  1.0000
  H   H523      1.0  0.61759  0.87632  0.40255  1.0000
  H   H524      1.0  0.57161  0.79246  0.40312  1.0000
  H   H525      1.0  0.57194  0.86088  0.46536  1.0000
  C   C297      1.0  0.53070  0.81516  0.45222  1.0000
  H   H526      1.0  0.40240  0.92302  0.30312  1.0000
  H   H527      1.0  0.47960  0.84011  0.41863  1.0000
  C   C298      1.0  0.38299  0.77942  0.00197  1.0000
  H   H528      1.0  0.41861  0.86814  0.12584  1.0000
  H   H529      1.0  0.43831  0.90370  0.12695  1.0000
  C   C299      1.0  0.37578  0.96515  0.34961  1.0000
  H   H530      1.0  0.34401  0.87633  0.05700  1.0000
  H   H531      1.0  0.40743  0.67424  0.24653  1.0000
  H   H532      1.0  0.36334  0.96997  0.46194  1.0000
  H   H533      1.0  0.46427  0.65901  0.16554  1.0000
  H   H534      1.0  0.41104  0.73431  0.28736  1.0000
  Fe  Fe30      1.0  0.33575  0.75882  0.21339  1.0000
  C   C300      1.0  0.57939  0.84295  0.44667  1.0000
  H   H535      1.0  0.56566  0.73991  0.38689  1.0000
  H   H536      1.0  0.38684  0.70263  0.29725  1.0000
  Fe  Fe31      1.0  0.34787  0.79762  0.14513  1.0000
  S   S67       1.0  0.63106  0.78871  0.26803  1.0000
  C   C301      1.0  0.51655  0.80785  0.41507  1.0000
  H   H537      1.0  0.56303  0.97420  0.15202  1.0000
  C   C302      1.0  0.58578  0.92344  0.29643  1.0000
  H   H538      1.0  0.58981  0.90147  0.42163  1.0000
  H   H539      1.0  0.44882  0.70085  0.13318  1.0000
  C   C303      1.0  0.43079  0.61041  0.19081  1.0000
  C   C304      1.0  0.33023  0.93888  0.10828  1.0000
  H   H540      1.0  0.44094  0.93180  0.31416  1.0000
  H   H541      1.0  0.41267  0.89422  0.16246  1.0000
  H   H542      1.0  0.40364  0.97333  0.41315  1.0000
  N   N19       1.0  0.46254  0.69204  0.20841  1.0000
  C   C305      1.0  0.48706  0.68316  0.23449  1.0000
  C   C306      1.0  0.45024  0.66445  0.18938  1.0000
  C   C307      1.0  0.47667  0.71244  0.18064  1.0000
  C   C308      1.0  0.43757  0.70939  0.22637  1.0000
  C   C309      1.0  0.42097  0.69327  0.25723  1.0000
  C   C310      1.0  0.50239  0.70934  0.25530  1.0000
  H   H543      1.0  0.56943  0.92052  0.31858  1.0000
  C   C311      1.0  0.44901  0.63439  0.21079  1.0000
  H   H544      1.0  0.34603  0.93871  0.16453  1.0000
  C   C312      1.0  0.52595  0.69741  0.28159  1.0000
  H   H545      1.0  0.43102  0.58894  0.20618  1.0000
  H   H546      1.0  0.50511  0.67061  0.22009  1.0000
  H   H547      1.0  0.47855  0.66727  0.25501  1.0000
  H   H548      1.0  0.43892  0.63716  0.23757  1.0000
  H   H549      1.0  0.38195  0.72303  0.25608  1.0000
  H   H550      1.0  0.49758  0.70191  0.16989  1.0000
  H   H551      1.0  0.48383  0.73417  0.19282  1.0000
  H   H552      1.0  0.44607  0.73135  0.23651  1.0000
  H   H553      1.0  0.41979  0.71552  0.20672  1.0000
  H   H554      1.0  0.43680  0.68493  0.27792  1.0000
  H   H555      1.0  0.44062  0.60612  0.16400  1.0000
  H   H556      1.0  0.51426  0.72497  0.23696  1.0000
  H   H557      1.0  0.48563  0.72223  0.27101  1.0000
  H   H558      1.0  0.49364  0.72924  0.11119  1.0000
  C   C313      1.0  0.48302  0.81554  0.41424  1.0000
  H   H559      1.0  0.47220  0.62543  0.21453  1.0000
  H   H560      1.0  0.41008  0.93264  0.36881  1.0000
  H   H561      1.0  0.42725  0.66923  0.17868  1.0000
  C   C314      1.0  0.35429  0.93746  0.40254  1.0000
  H   H562      1.0  0.35325  0.87557  0.41675  1.0000
  H   H563      1.0  0.63548  0.79128  0.18380  1.0000
  H   H564      1.0  0.51536  0.68242  0.30179  1.0000
  H   H565      1.0  0.54386  0.68483  0.26722  1.0000
  H   H566      1.0  0.53664  0.71669  0.29582  1.0000
  H   H567      1.0  0.37400  0.92957  0.41852  1.0000
  H   H568      1.0  0.40701  0.61778  0.18765  1.0000
  H   H569      1.0  0.38494  0.77496  0.05971  1.0000
  C   C315      1.0  0.33964  0.90636  0.24655  1.0000
  S   S68       1.0  0.63472  0.75988  0.34802  1.0000
  C   C316      1.0  0.34734  0.80233  0.04348  1.0000
  H   H570      1.0  0.32582  0.87958  0.99333  1.0000
  Fe  Fe32      1.0  0.34254  0.82807  0.21898  1.0000
  C   C317      1.0  0.41774  0.94107  0.31291  1.0000
  H   H571      1.0  0.57838  0.90986  0.27302  1.0000
  C   C318      1.0  0.39893  0.71471  0.27558  1.0000
  C   C319      1.0  0.56973  0.75599  0.44193  1.0000
  C   C320      1.0  0.47364  0.74121  0.12193  1.0000
  H   H572      1.0  0.43637  0.73387  0.15677  1.0000
  C   C321      1.0  0.57303  0.85625  0.40923  1.0000
  H   H573      1.0  0.47072  0.80257  0.43503  1.0000
  H   H574      1.0  0.52745  0.82030  0.39300  1.0000
  H   H575      1.0  0.54472  0.97024  0.30278  1.0000
  H   H576      1.0  0.57015  0.71065  0.41999  1.0000
  C   C322      1.0  0.57786  0.78898  0.43155  1.0000
  H   H577      1.0  0.57661  0.83944  0.38791  1.0000
  H   H578      1.0  0.33102  0.86449  0.37853  1.0000
  H   H579      1.0  0.51868  0.78343  0.40892  1.0000
  H   H580      1.0  0.35654  0.91432  0.05201  1.0000
  H   H581      1.0  0.45867  0.74741  0.09925  1.0000
  C   C323      1.0  0.33206  0.81457  0.01371  1.0000
  S   S69       1.0  0.33327  0.80981  0.08747  1.0000
  C   C324      1.0  0.33614  0.95992  0.26269  1.0000
  H   H582      1.0  0.60459  0.95828  0.26355  1.0000
  N   N20       1.0  0.56461  0.81312  0.45535  1.0000
  H   H583      1.0  0.34902  0.95126  0.09514  1.0000
  C   C325      1.0  0.33761  0.90034  0.06221  1.0000
  H   H584      1.0  0.51968  0.79940  0.47140  1.0000
  H   H585      1.0  0.36676  0.90401  0.36144  1.0000
  H   H586      1.0  0.64852  0.75702  0.44970  1.0000
  C   C326      1.0  0.55743  0.97055  0.27713  1.0000
  H   H587      1.0  0.33621  0.91900  0.99026  1.0000
  H   H588      1.0  0.41759  0.96019  0.29371  1.0000
  C   C327      1.0  0.31813  0.90306  0.99836  1.0000
  H   H589      1.0  0.60356  0.97690  0.15033  1.0000
  H   H590      1.0  0.32495  0.68913  0.36642  1.0000
  H   H591      1.0  0.59918  0.96873  0.30908  1.0000
  C   C328      1.0  0.33573  0.88321  0.39753  1.0000
  H   H592      1.0  0.31839  0.85879  0.15662  1.0000
  H   H593      1.0  0.33556  0.93967  0.42213  1.0000
  H   H594      1.0  0.31616  0.72235  0.34047  1.0000
  S   S70       1.0  0.38326  0.76565  0.82655  1.0000
  S   S71       1.0  0.39195  0.83761  0.84048  1.0000
  Fe  Fe33      1.0  0.40043  0.80530  0.79514  1.0000
  S   S72       1.0  0.43923  0.81138  0.75524  1.0000
  H   H595      1.0  0.60291  0.94597  0.84331  1.0000
  S   S73       1.0  0.32436  0.80622  0.84814  1.0000
  C   C329      1.0  0.36955  0.70267  0.88019  1.0000
  H   H596      1.0  0.41640  0.94606  0.75326  1.0000
  C   C330      1.0  0.35963  0.84130  0.67591  1.0000
  Fe  Fe34      1.0  0.61452  0.78170  0.71357  1.0000
  S   S74       1.0  0.57650  0.76807  0.75151  1.0000
  C   C331      1.0  0.32653  0.94921  0.78359  1.0000
  S   S75       1.0  0.61053  0.81362  0.66722  1.0000
  S   S76       1.0  0.32821  0.89179  0.81223  1.0000
  C   C332      1.0  0.33537  0.91902  0.77814  1.0000
  H   H597      1.0  0.53920  0.90632  0.74368  1.0000
  H   H598      1.0  0.46750  0.92603  0.72323  1.0000
  H   H599      1.0  0.36427  0.75029  0.73136  1.0000
  H   H600      1.0  0.55280  0.79639  0.56406  1.0000
  H   H601      1.0  0.57139  0.89828  0.84062  1.0000
  H   H602      1.0  0.56203  0.83362  0.58026  1.0000
  C   C333      1.0  0.47700  0.79813  0.75424  1.0000
  C   C334      1.0  0.48874  0.77898  0.78054  1.0000
  C   C335      1.0  0.51912  0.76976  0.77897  1.0000
  C   C336      1.0  0.53811  0.77943  0.75112  1.0000
  C   C337      1.0  0.52628  0.79835  0.72460  1.0000
  C   C338      1.0  0.49591  0.80762  0.72621  1.0000
  H   H603      1.0  0.47450  0.77143  0.80221  1.0000
  H   H604      1.0  0.52803  0.75510  0.79959  1.0000
  H   H605      1.0  0.54057  0.80593  0.70300  1.0000
  H   H606      1.0  0.48705  0.82238  0.70568  1.0000
  C   C339      1.0  0.59084  0.95143  0.81807  1.0000
  C   C340      1.0  0.58785  0.92321  0.79475  1.0000
  H   H607      1.0  0.63401  0.95010  0.69932  1.0000
  H   H608      1.0  0.40491  0.98264  0.70965  1.0000
  C   C341      1.0  0.46189  0.92788  0.75191  1.0000
  H   H609      1.0  0.38526  0.74316  0.59870  1.0000
  Fe  Fe35      1.0  0.34627  0.84350  0.81538  1.0000
  H   H610      1.0  0.57973  0.93058  0.76808  1.0000
  C   C342      1.0  0.52214  0.85134  0.83901  1.0000
  C   C343      1.0  0.40508  0.71288  0.76072  1.0000
  H   H611      1.0  0.36631  0.70807  0.65687  1.0000
  H   H612      1.0  0.42810  0.89211  0.74829  1.0000
  H   H613      1.0  0.35536  0.88810  0.74085  1.0000
  C   C344      1.0  0.36792  0.79190  0.97220  1.0000
  H   H614      1.0  0.52945  0.83535  0.78528  1.0000
  H   H615      1.0  0.52749  0.87006  0.72728  1.0000
  H   H616      1.0  0.58147  0.82399  0.80279  1.0000
  H   H617      1.0  0.38584  0.69819  0.71124  1.0000
  C   C345      1.0  0.56567  0.90017  0.81168  1.0000
  H   H618      1.0  0.47691  0.87029  0.83497  1.0000
  C   C346      1.0  0.33001  0.97114  0.75647  1.0000
  H   H619      1.0  0.53201  0.82980  0.84887  1.0000
  C   C347      1.0  0.53224  0.85704  0.79984  1.0000
  H   H620      1.0  0.54279  0.90280  0.67749  1.0000
  H   H621      1.0  0.47927  0.83065  0.82385  1.0000
  H   H622      1.0  0.44138  0.78381  0.60444  1.0000
  S   S77       1.0  0.38179  0.78398  0.92822  1.0000
  H   H623      1.0  0.48160  0.84255  0.86974  1.0000
  H   H624      1.0  0.56855  0.87146  0.68142  1.0000
  H   H625      1.0  0.63245  0.82841  0.85805  1.0000
  H   H626      1.0  0.53815  0.97240  0.75398  1.0000
  H   H627      1.0  0.60396  0.96900  0.80373  1.0000
  C   C348      1.0  0.57079  0.86893  0.75552  1.0000
  H   H628      1.0  0.59323  0.87892  0.75000  1.0000
  H   H629      1.0  0.54086  0.83693  0.51920  1.0000
  H   H630      1.0  0.40000  0.76590  0.72256  1.0000
  C   C349      1.0  0.44886  0.89748  0.76372  1.0000
  H   H631      1.0  0.52946  0.86985  0.85702  1.0000
  H   H632      1.0  0.44324  0.89782  0.79264  1.0000
  C   C350      1.0  0.43959  0.95405  0.75992  1.0000
  C   C351      1.0  0.39801  0.76158  0.61205  1.0000
  H   H633      1.0  0.42020  0.76948  0.66362  1.0000
  Fe  Fe36      1.0  0.37080  0.79856  0.87035  1.0000
  H   H634      1.0  0.58002  0.84599  0.84259  1.0000
  C   C352      1.0  0.35396  0.72959  0.66146  1.0000
  C   C353      1.0  0.38404  0.74821  0.71327  1.0000
  H   H635      1.0  0.59749  0.80146  0.49588  1.0000
  H   H636      1.0  0.43956  0.95656  0.78957  1.0000
  C   C354      1.0  0.61901  0.85456  0.81116  1.0000
  H   H637      1.0  0.57266  0.84523  0.74556  1.0000
  S   S78       1.0  0.64357  0.74891  0.68290  1.0000
  H   H638      1.0  0.33029  0.81923  0.95594  1.0000
  N   N21       1.0  0.56388  0.86903  0.79503  1.0000
  H   H639      1.0  0.57947  0.90850  0.69718  1.0000
  H   H640      1.0  0.31633  0.95553  0.80872  1.0000
  C   C355      1.0  0.34199  0.96302  0.72328  1.0000
  H   H641      1.0  0.41370  0.73130  0.65248  1.0000
  H   H642      1.0  0.34626  0.78620  0.64735  1.0000
  H   H643      1.0  0.62660  0.85626  0.78305  1.0000
  H   H644      1.0  0.38334  0.71244  0.77534  1.0000
  H   H645      1.0  0.46542  0.87917  0.75883  1.0000
  C   C356      1.0  0.56788  0.81614  0.56016  1.0000
  C   C357      1.0  0.58498  0.84729  0.81352  1.0000
  S   S79       1.0  0.35518  0.81270  0.76896  1.0000
  Fe  Fe37      1.0  0.33721  0.77461  0.80297  1.0000
  C   C358      1.0  0.48791  0.84856  0.84191  1.0000
  C   C359      1.0  0.56038  0.89237  0.69463  1.0000
  H   H646      1.0  0.43102  0.93950  0.68604  1.0000
  H   H647      1.0  0.34482  0.73594  0.63476  1.0000
  H   H648      1.0  0.63847  0.73728  0.51085  1.0000
  H   H649      1.0  0.51558  0.87278  0.78776  1.0000
  H   H650      1.0  0.41959  0.73124  0.77147  1.0000
  H   H651      1.0  0.36057  0.92639  0.69247  1.0000
  H   H652      1.0  0.38534  0.78289  0.60828  1.0000
  H   H653      1.0  0.36810  0.70347  0.85055  1.0000
  H   H654      1.0  0.34205  0.84116  0.69699  1.0000
  H   H655      1.0  0.37986  0.72385  0.89039  1.0000
  H   H656      1.0  0.61056  0.91362  0.79110  1.0000
  C   C360      1.0  0.32649  0.72242  0.68561  1.0000
  H   H657      1.0  0.48332  0.93150  0.76665  1.0000
  H   H658      1.0  0.42196  0.71649  0.70759  1.0000
  H   H659      1.0  0.41668  0.69100  0.76527  1.0000
  H   H660      1.0  0.34110  0.78509  0.69406  1.0000
  C   C361      1.0  0.34229  0.80956  0.97838  1.0000
  H   H661      1.0  0.44142  0.74371  0.59486  1.0000
  C   C362      1.0  0.54730  0.88505  0.73138  1.0000
  H   H662      1.0  0.54327  0.91149  0.81103  1.0000
  C   C363      1.0  0.35877  0.78389  0.67303  1.0000
  C   C364      1.0  0.56443  0.82911  0.52247  1.0000
  H   H663      1.0  0.31702  0.72687  0.85716  1.0000
  C   C365      1.0  0.34847  0.91118  0.74544  1.0000
  C   C366      1.0  0.35143  0.93298  0.71808  1.0000
  H   H664      1.0  0.34860  0.84352  0.64935  1.0000
  C   C367      1.0  0.39963  0.71745  0.72077  1.0000
  H   H665      1.0  0.59153  0.80907  0.56498  1.0000
  H   H666      1.0  0.38441  0.68356  0.88784  1.0000
  H   H667      1.0  0.42972  0.95188  0.62192  1.0000
  H   H668      1.0  0.42412  0.76982  0.56403  1.0000
  H   H669      1.0  0.39061  0.81229  0.70350  1.0000
  C   C368      1.0  0.64530  0.94336  0.72371  1.0000
  H   H670      1.0  0.39833  0.96869  0.64490  1.0000
  C   C369      1.0  0.42814  0.76490  0.59277  1.0000
  H   H671      1.0  0.49225  0.97921  0.79137  1.0000
  H   H672      1.0  0.46318  0.96222  0.67292  1.0000
  C   C370      1.0  0.42323  0.96916  0.64195  1.0000
  N   N22       1.0  0.37496  0.75390  0.67495  1.0000
  H   H673      1.0  0.56839  0.96099  0.82447  1.0000
  C   C371      1.0  0.37866  0.81255  0.67755  1.0000
  H   H674      1.0  0.62412  0.87593  0.82537  1.0000
  H   H675      1.0  0.57977  0.84890  0.52092  1.0000
  C   C372      1.0  0.40290  0.75395  0.65215  1.0000
  H   H676      1.0  0.33396  0.71139  0.71073  1.0000
  H   H677      1.0  0.63322  0.80754  0.81646  1.0000
  C   C373      1.0  0.57284  0.80540  0.49357  1.0000
  H   H678      1.0  0.39582  0.81435  0.65620  1.0000
  C   C374      1.0  0.64550  0.76050  0.50745  1.0000
  H   H679      1.0  0.34132  0.69601  0.92562  1.0000
  H   H680      1.0  0.56188  0.78392  0.50184  1.0000
  H   H681      1.0  0.37427  0.86133  0.68028  1.0000
  H   H682      1.0  0.32973  0.67635  0.88579  1.0000
  H   H683      1.0  0.48954  0.97247  0.72066  1.0000
  C   C375      1.0  0.43858  0.96234  0.67770  1.0000
  H   H684      1.0  0.32742  0.74595  0.89651  1.0000
  C   C376      1.0  0.33835  0.69810  0.89628  1.0000
  H   H685      1.0  0.32568  0.73989  0.95618  1.0000
  C   C377      1.0  0.63773  0.82982  0.82908  1.0000
  S   S80       1.0  0.64830  0.88741  0.69233  1.0000
  Fe  Fe38      1.0  0.64330  0.78337  0.63809  1.0000
  C   C378      1.0  0.31687  0.72465  0.88672  1.0000
  S   S81       1.0  0.63987  0.76404  0.58089  1.0000
  C   C379      1.0  0.64863  0.77913  0.53780  1.0000
  Fe  Fe39      1.0  0.67845  0.11887  0.20606  1.0000
  H   H686      1.0  0.80167  0.32464  0.16199  1.0000
  S   S82       1.0  0.69925  0.16108  0.23405  1.0000
  H   H687      1.0  0.96088  0.28597  0.24024  1.0000
  C   C380      1.0  0.67013  0.07930  0.03618  1.0000
  Fe  Fe40      1.0  0.66819  0.07996  0.13839  1.0000
  S   S83       1.0  0.67989  0.06672  0.08023  1.0000
  S   S84       1.0  0.70155  0.07713  0.18465  1.0000
  C   C381      1.0  0.78211  0.15261  0.47865  1.0000
  Fe  Fe41      1.0  0.86099  0.30205  0.36786  1.0000
  S   S85       1.0  0.88292  0.25968  0.34709  1.0000
  S   S86       1.0  0.84099  0.30660  0.42469  1.0000
  Fe  Fe42      1.0  0.86239  0.33223  0.29300  1.0000
  S   S87       1.0  0.88467  0.29136  0.26867  1.0000
  S   S88       1.0  0.85306  0.36779  0.24974  1.0000
  Fe  Fe43      1.0  0.85104  0.26339  0.29983  1.0000
  S   S89       1.0  0.82754  0.22255  0.27230  1.0000
  Fe  Fe44      1.0  0.91425  0.29122  0.31714  1.0000
  C   C382      1.0  0.88519  0.29153  0.47538  1.0000
  S   S90       1.0  0.82756  0.30424  0.32179  1.0000
  S   S91       1.0  0.89382  0.33360  0.34043  1.0000
  C   C383      1.0  0.85481  0.29774  0.46853  1.0000
  Fe  Fe45      1.0  0.66562  0.05012  0.21344  1.0000
  H   H688      1.0  0.79386  0.38792  0.20609  1.0000
  H   H689      1.0  0.90108  0.29137  0.45350  1.0000
  H   H690      1.0  0.82520  0.17123  0.46571  1.0000
  C   C384      1.0  0.73541  0.17722  0.24469  1.0000
  C   C385      1.0  0.73691  0.20165  0.26889  1.0000
  C   C386      1.0  0.76468  0.21552  0.27787  1.0000
  C   C387      1.0  0.79158  0.20572  0.26223  1.0000
  C   C388      1.0  0.79011  0.18132  0.23804  1.0000
  C   C389      1.0  0.76239  0.16710  0.22946  1.0000
  H   H691      1.0  0.71635  0.20976  0.28098  1.0000
  H   H692      1.0  0.76527  0.23386  0.29683  1.0000
  H   H693      1.0  0.81065  0.17319  0.22589  1.0000
  H   H694      1.0  0.76188  0.14841  0.21085  1.0000
  H   H695      1.0  0.89179  0.46507  0.04355  1.0000
  H   H696      1.0  0.81075  0.15360  0.30536  1.0000
  H   H697      1.0  0.75382  0.34858  0.15734  1.0000
  H   H698      1.0  0.76547  0.40076  0.17520  1.0000
  H   H699      1.0  0.70628  0.25451  0.14077  1.0000
  H   H700      1.0  0.79908  0.38283  0.15852  1.0000
  C   C390      1.0  0.85367  0.42508  0.22093  1.0000
  C   C391      1.0  0.84896  0.40776  0.25202  1.0000
  C   C392      1.0  0.84019  0.42249  0.28338  1.0000
  C   C393      1.0  0.83590  0.45408  0.28345  1.0000
  C   C394      1.0  0.76642  0.35206  0.18273  1.0000
  H   H701      1.0  0.86024  0.41393  0.19645  1.0000
  H   H702      1.0  0.83621  0.40951  0.30741  1.0000
  H   H703      1.0  0.85372  0.46977  0.19711  1.0000
  C   C395      1.0  0.67437  0.05958  0.00703  1.0000
  H   H704      1.0  0.88112  0.39870  0.45515  1.0000
  H   H705      1.0  0.68450  0.03770  0.01163  1.0000
  C   C396      1.0  0.84996  0.45676  0.22119  1.0000
  H   H706      1.0  0.88787  0.18380  0.45224  1.0000
  H   H707      1.0  0.86042  0.24279  0.42373  1.0000
  C   C397      1.0  0.91647  0.45135  0.28716  1.0000
  N   N23       1.0  0.80849  0.20483  0.39961  1.0000
  C   C398      1.0  0.84208  0.20030  0.40311  1.0000
  C   C399      1.0  0.79794  0.19032  0.36524  1.0000
  C   C400      1.0  0.80282  0.23840  0.39640  1.0000
  C   C401      1.0  0.79111  0.19289  0.43139  1.0000
  C   C402      1.0  0.80432  0.16497  0.45111  1.0000
  C   C403      1.0  0.85771  0.21911  0.43290  1.0000
  C   C404      1.0  0.76988  0.24801  0.38828  1.0000
  C   C405      1.0  0.80138  0.15561  0.36247  1.0000
  C   C406      1.0  0.79409  0.14454  0.32472  1.0000
  H   H708      1.0  0.89617  0.46004  0.30085  1.0000
  H   H709      1.0  0.82875  0.46519  0.30774  1.0000
  C   C407      1.0  0.76506  0.28165  0.39549  1.0000
  H   H710      1.0  0.85345  0.20615  0.37749  1.0000
  H   H711      1.0  0.84780  0.17623  0.40742  1.0000
  H   H712      1.0  0.77359  0.19461  0.36061  1.0000
  H   H713      1.0  0.80990  0.20074  0.34214  1.0000
  H   H714      1.0  0.81737  0.24845  0.37522  1.0000
  H   H715      1.0  0.80925  0.24998  0.42170  1.0000
  H   H716      1.0  0.78875  0.21068  0.45230  1.0000
  H   H717      1.0  0.76760  0.18733  0.42324  1.0000
  S   S92       1.0  0.96579  0.28676  0.31883  1.0000
  H   H718      1.0  0.81004  0.14640  0.43259  1.0000
  C   C408      1.0  0.98217  0.36460  0.25364  1.0000
  H   H719      1.0  0.84591  0.37854  0.45786  1.0000
  H   H720      1.0  0.75357  0.23524  0.40484  1.0000
  H   H721      1.0  0.76455  0.24402  0.35967  1.0000
  H   H722      1.0  0.82458  0.14810  0.36871  1.0000
  H   H723      1.0  0.78529  0.14440  0.38086  1.0000
  H   H724      1.0  0.77110  0.15166  0.31647  1.0000
  H   H725      1.0  0.79515  0.11949  0.32383  1.0000
  C   C409      1.0  0.94391  0.47198  0.29487  1.0000
  H   H726      1.0  0.88017  0.36138  0.47429  1.0000
  H   H727      1.0  0.90266  0.40458  0.29421  1.0000
  S   S93       1.0  0.67068  0.01148  0.25399  1.0000
  H   H728      1.0  0.95370  0.46712  0.22392  1.0000
  H   H729      1.0  0.94243  0.40956  0.28839  1.0000
  H   H730      1.0  0.74170  0.28811  0.38814  1.0000
  H   H731      1.0  0.76866  0.28678  0.42427  1.0000
  H   H732      1.0  0.78093  0.29548  0.37945  1.0000
  N   N24       1.0  0.77740  0.29543  0.19864  1.0000
  C   C410      1.0  0.74790  0.28884  0.17997  1.0000
  C   C411      1.0  0.78949  0.32612  0.18798  1.0000
  C   C412      1.0  0.79964  0.27179  0.18619  1.0000
  C   C413      1.0  0.77481  0.29304  0.23875  1.0000
  C   C414      1.0  0.75061  0.31296  0.25694  1.0000
  C   C415      1.0  0.73270  0.25829  0.18983  1.0000
  C   C416      1.0  0.83286  0.27658  0.19776  1.0000
  C   C417      1.0  0.74289  0.30133  0.29431  1.0000
  C   C418      1.0  0.70277  0.25431  0.17016  1.0000
  C   C419      1.0  0.85303  0.25142  0.18338  1.0000
  H   H733      1.0  0.75123  0.28931  0.15043  1.0000
  H   H734      1.0  0.73095  0.30663  0.18508  1.0000
  H   H735      1.0  0.80666  0.33387  0.20779  1.0000
  H   H736      1.0  0.79939  0.27012  0.15645  1.0000
  H   H737      1.0  0.79334  0.24903  0.19641  1.0000
  H   H738      1.0  0.77111  0.26920  0.24660  1.0000
  H   H739      1.0  0.79647  0.29918  0.25177  1.0000
  H   H740      1.0  0.72921  0.31368  0.24181  1.0000
  H   H741      1.0  0.75943  0.33633  0.25984  1.0000
  H   H742      1.0  0.74706  0.23879  0.18251  1.0000
  H   H743      1.0  0.72787  0.25706  0.21888  1.0000
  H   H744      1.0  0.83458  0.27622  0.22719  1.0000
  H   H745      1.0  0.84205  0.29835  0.18794  1.0000
  H   H746      1.0  0.74988  0.35334  0.20467  1.0000
  H   H747      1.0  0.72715  0.31726  0.30754  1.0000
  H   H748      1.0  0.73178  0.27889  0.29258  1.0000
  H   H749      1.0  0.76341  0.29942  0.31106  1.0000
  H   H750      1.0  0.69264  0.23222  0.17769  1.0000
  H   H751      1.0  0.68676  0.27250  0.17761  1.0000
  C   C420      1.0  0.78225  0.38269  0.18045  1.0000
  H   H752      1.0  0.84537  0.22905  0.19333  1.0000
  H   H753      1.0  0.85291  0.25136  0.15369  1.0000
  H   H754      1.0  0.87652  0.25505  0.19276  1.0000
  H   H755      1.0  0.92489  0.41929  0.33046  1.0000
  H   H756      1.0  0.76115  0.14472  0.46531  1.0000
  C   C421      1.0  0.84086  0.47144  0.25245  1.0000
  H   H757      1.0  0.96153  0.37511  0.24236  1.0000
  H   H758      1.0  0.91170  0.44991  0.25809  1.0000
  C   C422      1.0  0.92209  0.41931  0.30094  1.0000
  H   H759      1.0  0.84429  0.21941  0.45788  1.0000
  H   H760      1.0  0.89991  0.22182  0.46195  1.0000
  H   H761      1.0  0.96413  0.46192  0.28201  1.0000
  C   C423      1.0  0.88915  0.20714  0.44147  1.0000
  C   C424      1.0  0.86760  0.38298  0.47180  1.0000
  H   H762      1.0  0.90344  0.20736  0.41711  1.0000
  H   H763      1.0  0.94821  0.47015  0.32412  1.0000
  H   H764      1.0  0.95310  0.48191  0.16110  1.0000
  H   H765      1.0  0.97644  0.35396  0.27969  1.0000
  H   H766      1.0  0.65441  0.12326  0.05142  1.0000
  H   H767      1.0  0.69606  0.19471  0.99610  1.0000
  C   C425      1.0  0.65723  0.10759  0.02956  1.0000
  H   H768      1.0  0.68397  0.05999  0.64640  1.0000
  C   C426      1.0  0.68239  0.07037  0.67335  1.0000
  Fe  Fe46      1.0  0.68064  0.09792  0.79739  1.0000
  C   C427      1.0  0.96489  0.36837  0.73656  1.0000
  S   S94       1.0  0.72532  0.11959  0.77751  1.0000
  H   H769      1.0  0.94053  0.44074  0.88007  1.0000
  C   C428      1.0  0.89522  0.28603  0.51074  1.0000
  S   S95       1.0  0.68699  0.06765  0.84539  1.0000
  H   H770      1.0  0.65807  0.21967  0.83166  1.0000
  Fe  Fe47      1.0  0.85147  0.33576  0.69422  1.0000
  S   S96       1.0  0.85160  0.30407  0.74113  1.0000
  S   S97       1.0  0.84157  0.38661  0.69032  1.0000
  Fe  Fe48      1.0  0.87184  0.28578  0.64184  1.0000
  S   S98       1.0  0.87464  0.25044  0.68604  1.0000
  S   S99       1.0  0.88961  0.28014  0.58410  1.0000
  Fe  Fe49      1.0  0.82985  0.26907  0.70513  1.0000
  S   S100      1.0  0.78587  0.24436  0.72268  1.0000
  Fe  Fe50      1.0  0.89614  0.28728  0.71963  1.0000
  S   S101      1.0  0.93428  0.28855  0.76126  1.0000
  S   S102      1.0  0.82644  0.30253  0.65916  1.0000
  S   S103      1.0  0.89659  0.32068  0.67453  1.0000
  H   H771      1.0  0.95477  0.35972  0.68053  1.0000
  C   C429      1.0  0.87516  0.28648  0.53990  1.0000
  C   C430      1.0  0.84461  0.29187  0.53291  1.0000
  H   H772      1.0  0.91883  0.28157  0.51556  1.0000
  H   H773      1.0  0.82869  0.29153  0.55471  1.0000
  C   C431      1.0  0.76953  0.20917  0.73729  1.0000
  C   C432      1.0  0.73833  0.20781  0.74443  1.0000
  C   C433      1.0  0.72433  0.18079  0.75628  1.0000
  C   C434      1.0  0.74132  0.15447  0.76141  1.0000
  C   C435      1.0  0.77248  0.15579  0.75421  1.0000
  C   C436      1.0  0.78645  0.18278  0.74224  1.0000
  H   H774      1.0  0.72483  0.22789  0.74064  1.0000
  H   H775      1.0  0.70037  0.18040  0.76130  1.0000
  H   H776      1.0  0.78605  0.13577  0.75800  1.0000
  H   H777      1.0  0.81039  0.18321  0.73697  1.0000
  H   H778      1.0  0.77006  0.05118  0.71076  1.0000
  H   H779      1.0  0.89974  0.44153  0.92555  1.0000
  H   H780      1.0  0.71145  0.20486  0.84511  1.0000
  H   H781      1.0  0.75327  0.05464  0.82509  1.0000
  C   C437      1.0  0.86043  0.46264  0.77258  1.0000
  C   C438      1.0  0.86593  0.43220  0.78146  1.0000
  C   C439      1.0  0.86049  0.40874  0.75666  1.0000
  C   C440      1.0  0.84935  0.41538  0.72253  1.0000
  C   C441      1.0  0.84393  0.44583  0.71357  1.0000
  C   C442      1.0  0.76074  0.01777  0.78744  1.0000
  H   H782      1.0  0.87415  0.42663  0.80787  1.0000
  H   H783      1.0  0.86452  0.38549  0.76415  1.0000
  H   H784      1.0  0.83516  0.45133  0.68740  1.0000
  C   C443      1.0  0.75474  0.02958  0.82510  1.0000
  N   N25       1.0  0.72895  0.16900  0.87880  1.0000
  C   C444      1.0  0.72175  0.13632  0.88643  1.0000
  C   C445      1.0  0.71069  0.17832  0.94438  1.0000
  C   C446      1.0  0.75902  0.16978  0.85984  1.0000
  H   H785      1.0  0.80742  0.48136  0.90076  1.0000
  H   H786      1.0  0.73004  0.07002  0.68174  1.0000
  C   C447      1.0  0.74640  0.11888  0.90765  1.0000
  C   C448      1.0  0.76929  0.20105  0.84544  1.0000
  H   H787      1.0  0.78367  0.46290  0.63057  1.0000
  H   H788      1.0  0.98183  0.30556  0.80897  1.0000
  H   H789      1.0  0.92829  0.38662  0.76837  1.0000
  C   C449      1.0  0.73341  0.09230  0.92863  1.0000
  C   C450      1.0  0.80263  0.20089  0.83539  1.0000
  H   H790      1.0  0.71830  0.12391  0.86084  1.0000
  N   N26       1.0  0.73810  0.01583  0.72330  1.0000
  H   H791      1.0  0.72566  0.21206  0.90586  1.0000
  H   H792      1.0  0.70548  0.16777  0.82821  1.0000
  H   H793      1.0  0.75893  0.15388  0.83670  1.0000
  H   H794      1.0  0.77724  0.16166  0.87790  1.0000
  H   H795      1.0  0.75430  0.18852  0.92294  1.0000
  H   H796      1.0  0.73293  0.20770  0.98310  1.0000
  C   C451      1.0  0.86221  0.39684  0.50868  1.0000
  H   H797      1.0  0.98083  0.26410  0.64423  1.0000
  H   H798      1.0  0.76344  0.10995  0.88866  1.0000
  H   H799      1.0  0.75835  0.13375  0.92688  1.0000
  H   H800      1.0  0.76571  0.21914  0.86548  1.0000
  H   H801      1.0  0.75651  0.20686  0.82083  1.0000
  H   H802      1.0  0.71373  0.02311  0.77261  1.0000
  C   C452      1.0  0.91654  0.44230  0.87183  1.0000
  H   H803      1.0  0.73345  0.01985  0.83561  1.0000
  H   H804      1.0  0.89292  0.46602  0.97689  1.0000
  H   H805      1.0  0.80420  0.02807  0.62470  1.0000
  H   H806      1.0  0.70800  0.07453  0.72155  1.0000
  H   H807      1.0  0.75335  0.02502  0.65037  1.0000
  C   C453      1.0  0.89755  0.45617  0.90164  1.0000
  H   H808      1.0  0.73758  0.05363  0.76044  1.0000
  H   H809      1.0  0.72146  0.07641  0.91061  1.0000
  C   C454      1.0  0.79063  0.45516  0.60356  1.0000
  H   H810      1.0  0.80746  0.18244  0.81615  1.0000
  H   H811      1.0  0.80863  0.22270  0.82250  1.0000
  H   H812      1.0  0.81691  0.19791  0.85955  1.0000
  N   N27       1.0  0.83717  0.38562  0.56997  1.0000
  C   C455      1.0  0.84224  0.37582  0.53183  1.0000
  C   C456      1.0  0.82038  0.36083  0.58920  1.0000
  C   C457      1.0  0.81947  0.41467  0.56983  1.0000
  C   C458      1.0  0.86661  0.39111  0.58913  1.0000
  C   C459      1.0  0.88983  0.36502  0.58766  1.0000
  C   C460      1.0  0.80894  0.42611  0.60703  1.0000
  C   C461      1.0  0.78779  0.35464  0.57583  1.0000
  C   C462      1.0  0.77254  0.33004  0.59800  1.0000
  C   C463      1.0  0.91899  0.37388  0.60671  1.0000
  C   C464      1.0  0.76742  0.02632  0.70725  1.0000
  H   H813      1.0  0.82043  0.37379  0.51738  1.0000
  H   H814      1.0  0.85213  0.35280  0.53106  1.0000
  H   H815      1.0  0.83275  0.33911  0.58687  1.0000
  H   H816      1.0  0.81959  0.36533  0.61848  1.0000
  H   H817      1.0  0.79943  0.41279  0.55203  1.0000
  H   H818      1.0  0.83318  0.43322  0.55810  1.0000
  H   H819      1.0  0.87762  0.41206  0.57917  1.0000
  H   H820      1.0  0.86252  0.39537  0.61800  1.0000
  H   H821      1.0  0.89575  0.35886  0.55983  1.0000
  H   H822      1.0  0.88077  0.34469  0.60116  1.0000
  H   H823      1.0  0.82853  0.43112  0.62450  1.0000
  H   H824      1.0  0.79456  0.40926  0.62079  1.0000
  H   H825      1.0  0.77355  0.37510  0.57775  1.0000
  H   H826      1.0  0.78786  0.34681  0.54767  1.0000
  H   H827      1.0  0.74918  0.32647  0.58823  1.0000
  H   H828      1.0  0.78491  0.30836  0.59554  1.0000
  H   H829      1.0  0.77151  0.33675  0.62661  1.0000
  H   H830      1.0  0.91444  0.37984  0.63505  1.0000
  H   H831      1.0  0.93479  0.35450  0.60610  1.0000
  H   H832      1.0  0.92975  0.39339  0.59311  1.0000
  H   H833      1.0  0.78320  0.02635  0.77937  1.0000
  H   H834      1.0  0.92171  0.38813  0.72085  1.0000
  C   C465      1.0  0.70977  0.06192  0.69612  1.0000
  H   H835      1.0  0.69953  0.22373  0.96254  1.0000
  H   H836      1.0  0.67151  0.19908  0.88994  1.0000
  H   H837      1.0  0.96137  0.32737  0.70729  1.0000
  Fe  Fe51      1.0  0.65915  0.03277  0.81645  1.0000
  H   H838      1.0  0.82083  0.02836  0.66872  1.0000
  H   H839      1.0  0.66122  0.06279  0.68635  1.0000
  H   H840      1.0  0.68720  0.17336  0.93638  1.0000
  C   C466      1.0  0.80049  0.03463  0.65301  1.0000
  H   H841      1.0  0.69000  0.02033  0.71651  1.0000
  H   H842      1.0  0.95854  0.31534  0.64687  1.0000
  H   H843      1.0  0.79737  0.05951  0.65413  1.0000
  S   S104      1.0  0.65568  0.06133  0.76740  1.0000
  C   C467      1.0  0.83462  0.29769  0.49758  1.0000
  C   C468      1.0  0.65174  0.09567  0.96557  1.0000
  H   H844      1.0  0.75187  0.07986  0.94225  1.0000
  H   H845      1.0  0.71753  0.10051  0.94932  1.0000
  H   H846      1.0  0.66820  0.05191  0.95019  1.0000
  C   C469      1.0  0.93139  0.37426  0.74281  1.0000
  H   H847      1.0  0.85143  0.47771  0.94166  1.0000
  C   C470      1.0  0.73609  0.02857  0.76074  1.0000
  H   H848      1.0  0.90821  0.41920  0.86576  1.0000
  H   H849      1.0  0.97345  0.35503  0.75965  1.0000
  H   H850      1.0  0.87374  0.45569  0.89257  1.0000
  H   H851      1.0  0.70960  0.01680  0.67584  1.0000
  C   C471      1.0  0.70568  0.18143  0.85322  1.0000
  H   H852      1.0  0.88457  0.40070  0.52110  1.0000
  H   H853      1.0  0.66430  0.16084  0.87500  1.0000
  H   H854      1.0  0.69994  0.13391  0.90053  1.0000
  H   H855      1.0  0.78681  0.01633  0.72192  1.0000
  H   H856      1.0  0.91875  0.35266  0.74459  1.0000
  C   C472      1.0  0.73083  0.18805  0.91232  1.0000
  C   C473      1.0  0.77265  0.01841  0.66747  1.0000
  H   H857      1.0  0.91482  0.45608  0.84706  1.0000
  H   H858      1.0  0.77335  0.02271  0.84323  1.0000
  C   C474      1.0  0.71112  0.02729  0.70266  1.0000
  H   H859      1.0  0.77003  0.45119  0.58731  1.0000
  H   H860      1.0  0.97651  0.39044  0.73676  1.0000
  C   C475      1.0  0.84949  0.46932  0.73835  1.0000
  H   H861      1.0  0.68141  0.09530  0.67018  1.0000
  H   H862      1.0  0.71972  0.15754  0.95702  1.0000
  C   C476      1.0  0.97014  0.35044  0.70138  1.0000
  H   H863      1.0  0.77675  0.99381  0.66470  1.0000
  C   C477      1.0  0.67294  0.18334  0.86699  1.0000
  C   C478      1.0  0.66509  0.06757  0.97207  1.0000
  H   H864      1.0  0.80431  0.47329  0.59102  1.0000
  C   C479      1.0  0.70984  0.20271  0.97322  1.0000
  H   H865      1.0  0.97234  0.25095  0.71489  1.0000
  C   C480      1.0  0.97329  0.27939  0.76143  1.0000
  C   C481      1.0  0.65203  0.19591  0.83802  1.0000
  H   H866      1.0  0.85106  0.41901  0.50467  1.0000
  H   H867      1.0  0.96806  0.27713  0.60121  1.0000
  H   H868      1.0  0.65352  0.18229  0.81317  1.0000
  H   H869      1.0  0.77641  0.17024  0.49865  1.0000
  H   H870      1.0  0.76172  0.99278  0.78914  1.0000
  H   H871      1.0  0.79239  0.13317  0.49294  1.0000
  H   H872      1.0  0.81103  0.30223  0.49274  1.0000
  C   C482      1.0  0.98194  0.31299  0.63718  1.0000
  S   S105      1.0  0.68886  0.80527  0.31988  1.0000
  S   S106      1.0  0.68731  0.72220  0.27052  1.0000
  C   C483      1.0  0.66960  0.95415  0.28257  1.0000
  Fe  Fe52      1.0  0.83445  0.61785  0.20417  1.0000
  S   S107      1.0  0.86706  0.61962  0.15723  1.0000
  S   S108      1.0  0.81514  0.66078  0.23176  1.0000
  Fe  Fe53      1.0  0.84371  0.54865  0.21319  1.0000
  S   S109      1.0  0.87518  0.54600  0.16665  1.0000
  H   H873      1.0  0.94569  0.61762  0.25696  1.0000
  Fe  Fe54      1.0  0.89678  0.58791  0.18926  1.0000
  S   S110      1.0  0.94834  0.58396  0.18942  1.0000
  Fe  Fe55      1.0  0.84357  0.57752  0.13755  1.0000
  S   S111      1.0  0.82880  0.56572  0.07978  1.0000
  S   S112      1.0  0.86654  0.58937  0.23703  1.0000
  S   S113      1.0  0.80959  0.57703  0.18311  1.0000
  C   C484      1.0  0.83877  0.57882  0.03610  1.0000
  C   C485      1.0  0.71157  0.77153  0.18746  1.0000
  C   C486      1.0  0.86017  0.60155  0.03040  1.0000
  H   H874      1.0  0.75476  0.79433  0.31275  1.0000
  H   H875      1.0  0.87127  0.61187  0.05311  1.0000
  H   H876      1.0  0.74754  0.73224  0.14940  1.0000
  C   C487      1.0  0.97464  0.59005  0.22455  1.0000
  C   C488      1.0  0.82454  0.56587  0.00604  1.0000
  H   H877      1.0  0.90404  0.52817  0.01250  1.0000
  H   H878      1.0  0.88603  0.59005  0.32568  1.0000
  C   C489      1.0  0.66257  0.90730  0.24937  1.0000
  C   C490      1.0  0.72303  0.70446  0.26186  1.0000
  C   C491      1.0  0.72438  0.68054  0.23701  1.0000
  C   C492      1.0  0.75202  0.66643  0.22814  1.0000
  C   C493      1.0  0.77904  0.67616  0.24376  1.0000
  C   C494      1.0  0.77770  0.70004  0.26872  1.0000
  C   C495      1.0  0.75000  0.71385  0.27801  1.0000
  H   H879      1.0  0.70383  0.67285  0.22436  1.0000
  H   H880      1.0  0.75244  0.64824  0.20885  1.0000
  H   H881      1.0  0.79832  0.70786  0.28110  1.0000
  H   H882      1.0  0.74959  0.73188  0.29748  1.0000
  H   H883      1.0  0.76229  0.64461  0.99387  1.0000
  H   H884      1.0  0.79444  0.66410  0.01228  1.0000
  H   H885      1.0  0.66928  0.90946  0.30627  1.0000
  H   H886      1.0  0.93079  0.53206  0.23770  1.0000
  C   C496      1.0  0.66247  0.95641  0.21860  1.0000
  H   H887      1.0  0.89341  0.51051  0.29807  1.0000
  C   C497      1.0  0.66026  0.92457  0.21781  1.0000
  C   C498      1.0  0.66737  0.97142  0.25103  1.0000
  H   H888      1.0  0.88601  0.55723  0.35433  1.0000
  H   H889      1.0  0.86585  0.55666  0.31218  1.0000
  H   H890      1.0  0.75027  0.71613  0.47958  1.0000
  H   H891      1.0  0.68137  0.80101  0.21872  1.0000
  H   H892      1.0  0.91475  0.56280  0.27971  1.0000
  C   C499      1.0  0.91598  0.51860  0.30706  1.0000
  H   H893      1.0  0.67344  0.96547  0.30780  1.0000
  H   H894      1.0  0.97437  0.50175  0.21746  1.0000
  S   S114      1.0  0.83551  0.51123  0.25458  1.0000
  H   H895      1.0  0.80771  0.54852  0.01004  1.0000
  H   H896      1.0  0.76889  0.86915  0.15733  1.0000
  H   H897      1.0  0.89613  0.49991  0.06787  1.0000
  H   H898      1.0  0.65148  0.75611  0.19903  1.0000
  C   C500      1.0  0.68395  0.79251  0.19108  1.0000
  H   H899      1.0  0.78886  0.81574  0.30694  1.0000
  H   H900      1.0  0.79379  0.70711  0.17188  1.0000
  H   H901      1.0  0.76926  0.76483  0.13579  1.0000
  C   C501      1.0  0.91472  0.55362  0.30724  1.0000
  S   S115      1.0  0.66576  0.81790  0.42427  1.0000
  H   H902      1.0  0.70655  0.75004  0.20191  1.0000
  C   C502      1.0  0.88641  0.56496  0.32610  1.0000
  C   C503      1.0  0.74479  0.86769  0.16505  1.0000
  C   C504      1.0  0.76742  0.74648  0.15587  1.0000
  C   C505      1.0  0.79507  0.72610  0.15247  1.0000
  H   H903      1.0  0.90763  0.49989  0.24152  1.0000
  H   H904      1.0  0.75337  0.83198  0.29357  1.0000
  C   C506      1.0  0.93123  0.50784  0.24562  1.0000
  H   H905      1.0  0.73786  0.88975  0.17656  1.0000
  H   H906      1.0  0.79608  0.71643  0.12511  1.0000
  N   N28       1.0  0.94040  0.50467  0.28436  1.0000
  H   H907      1.0  0.68598  0.81189  0.17243  1.0000
  H   H908      1.0  0.78433  0.81289  0.24162  1.0000
  C   C507      1.0  0.65500  0.77579  0.18103  1.0000
  C   C508      1.0  0.93856  0.49424  0.18026  1.0000
  H   H909      1.0  0.73083  0.86336  0.14090  1.0000
  H   H910      1.0  0.65691  0.91320  0.19253  1.0000
  C   C509      1.0  0.66717  0.92235  0.28181  1.0000
  N   N29       1.0  0.74150  0.78396  0.19985  1.0000
  C   C510      1.0  0.73992  0.79025  0.23949  1.0000
  H   H911      1.0  0.81608  0.73907  0.15743  1.0000
  C   C511      1.0  0.76474  0.75944  0.19426  1.0000
  C   C512      1.0  0.75036  0.81149  0.17829  1.0000
  C   C513      1.0  0.74004  0.84279  0.19276  1.0000
  C   C514      1.0  0.77061  0.79709  0.25784  1.0000
  H   H912      1.0  0.71231  0.76570  0.15861  1.0000
  H   H913      1.0  0.96547  0.52448  0.34885  1.0000
  C   C515      1.0  0.76650  0.81066  0.29503  1.0000
  H   H914      1.0  0.93445  0.56319  0.32159  1.0000
  H   H915      1.0  0.72990  0.77063  0.25373  1.0000
  H   H916      1.0  0.72428  0.80906  0.24551  1.0000
  Fe  Fe56      1.0  0.66588  0.76294  0.30008  1.0000
  H   H917      1.0  0.66083  0.96929  0.19410  1.0000
  H   H918      1.0  0.76009  0.73995  0.21223  1.0000
  H   H919      1.0  0.78759  0.76772  0.20163  1.0000
  H   H920      1.0  0.77531  0.81306  0.17584  1.0000
  H   H921      1.0  0.74202  0.80921  0.15031  1.0000
  H   H922      1.0  0.75326  0.84901  0.21688  1.0000
  H   H923      1.0  0.71604  0.84313  0.20050  1.0000
  H   H924      1.0  0.78361  0.77583  0.26122  1.0000
  C   C516      1.0  0.96793  0.60791  0.25429  1.0000
  C   C517      1.0  0.95156  0.49154  0.21797  1.0000
  Fe  Fe57      1.0  0.65296  0.83096  0.28967  1.0000
  C   C518      1.0  0.86723  0.61100  0.99526  1.0000
  H   H925      1.0  0.91771  0.51103  0.33536  1.0000
  C   C519      1.0  0.65982  0.80179  0.46761  1.0000
  S   S116      1.0  0.66066  0.86710  0.24650  1.0000
  C   C520      1.0  0.89321  0.50564  0.01041  1.0000
  Fe  Fe58      1.0  0.65557  0.80366  0.36604  1.0000
  H   H926      1.0  0.88388  0.62854  0.99137  1.0000
  C   C521      1.0  0.97018  0.52043  0.28994  1.0000
  C   C522      1.0  0.78654  0.64970  0.98982  1.0000
  H   H927      1.0  0.65595  0.76778  0.15292  1.0000
  H   H928      1.0  0.96889  0.54437  0.28098  1.0000
  H   H929      1.0  0.79946  0.62830  0.99055  1.0000
  H   H930      1.0  0.71658  0.73694  0.46849  1.0000
  H   H931      1.0  0.93766  0.51830  0.17192  1.0000
  C   C523      1.0  0.65111  0.77167  0.47264  1.0000
  H   H932      1.0  0.86849  0.50881  0.01211  1.0000
  H   H933      1.0  0.91553  0.48443  0.17904  1.0000
  H   H934      1.0  0.92773  0.48461  0.04375  1.0000
  C   C524      1.0  0.90289  0.48756  0.04329  1.0000
  H   H935      1.0  0.77794  0.68716  0.95518  1.0000
  S   S117      1.0  0.73011  0.75386  0.72003  1.0000
  S   S118      1.0  0.68394  0.80784  0.65908  1.0000
  Fe  Fe59      1.0  0.90391  0.59854  0.79613  1.0000
  S   S119      1.0  0.86976  0.57628  0.75970  1.0000
  S   S120      1.0  0.95178  0.61657  0.78749  1.0000
  Fe  Fe60      1.0  0.86281  0.59315  0.86312  1.0000
  S   S121      1.0  0.82648  0.56985  0.83142  1.0000
  S   S122      1.0  0.86402  0.61003  0.92150  1.0000
  Fe  Fe61      1.0  0.86356  0.54294  0.80487  1.0000
  H   H936      1.0  0.69905  0.96671  0.69347  1.0000
  Fe  Fe62      1.0  0.83476  0.60515  0.78838  1.0000
  S   S123      1.0  0.79163  0.62674  0.76397  1.0000
  S   S124      1.0  0.89930  0.56414  0.83977  1.0000
  S   S125      1.0  0.86951  0.62937  0.82149  1.0000
  H   H937      1.0  0.85510  0.50394  0.87894  1.0000
  C   C525      1.0  0.85329  0.59776  0.96523  1.0000
  C   C526      1.0  0.73722  0.98167  0.72626  1.0000
  H   H938      1.0  0.82002  0.56549  0.94834  1.0000
  H   H939      1.0  0.67472  0.66483  0.62702  1.0000
  H   H940      1.0  0.84862  0.71475  0.81099  1.0000
  C   C527      1.0  0.66909  0.90476  0.75964  1.0000
  C   C528      1.0  0.67490  0.92651  0.78636  1.0000
  H   H941      1.0  0.81566  0.67217  0.95278  1.0000
  H   H942      1.0  0.80110  0.51559  0.87596  1.0000
  H   H943      1.0  0.68656  0.91988  0.81056  1.0000
  C   C529      1.0  0.74648  0.71820  0.73255  1.0000
  C   C530      1.0  0.72991  0.69128  0.73399  1.0000
  C   C531      1.0  0.74412  0.66376  0.74359  1.0000
  C   C532      1.0  0.77508  0.66251  0.75215  1.0000
  C   C533      1.0  0.79164  0.68945  0.75067  1.0000
  C   C534      1.0  0.77746  0.71694  0.74097  1.0000
  H   H944      1.0  0.70614  0.69161  0.72763  1.0000
  H   H945      1.0  0.73095  0.64320  0.74442  1.0000
  H   H946      1.0  0.81548  0.68907  0.75657  1.0000
  H   H947      1.0  0.79068  0.73745  0.73988  1.0000
  C   C535      1.0  0.73547  0.73505  0.48792  1.0000
  C   C536      1.0  0.71219  0.70880  0.59811  1.0000
  C   C537      1.0  0.94015  0.57846  0.94699  1.0000
  C   C538      1.0  0.81525  0.68972  0.84126  1.0000
  C   C539      1.0  0.75401  0.61147  0.86624  1.0000
  C   C540      1.0  0.75687  0.68634  0.88589  1.0000
  H   H948      1.0  0.95498  0.57876  0.72282  1.0000
  H   H949      1.0  0.76485  0.65045  0.83282  1.0000
  H   H950      1.0  0.76107  0.63456  0.92904  1.0000
  H   H951      1.0  0.76405  0.70564  0.90295  1.0000
  C   C541      1.0  0.79140  0.66613  0.95434  1.0000
  H   H952      1.0  0.75466  0.69610  0.85862  1.0000
  H   H953      1.0  0.69876  0.72744  0.65019  1.0000
  H   H954      1.0  0.82237  0.69958  0.62986  1.0000
  C   C542      1.0  0.72451  0.67727  0.89667  1.0000
  C   C543      1.0  0.96100  0.52298  0.79178  1.0000
  H   H955      1.0  0.84426  0.72737  0.85651  1.0000
  H   H956      1.0  0.67033  0.84350  0.49463  1.0000
  C   C544      1.0  0.81063  0.67625  0.87924  1.0000
  H   H957      1.0  0.93199  0.58959  0.92213  1.0000
  H   H958      1.0  0.81485  0.69492  0.89853  1.0000
  H   H959      1.0  0.79709  0.70561  0.83371  1.0000
  C   C545      1.0  0.84439  0.51375  0.90288  1.0000
  H   H960      1.0  0.67654  0.88169  0.76318  1.0000
  C   C546      1.0  0.73026  0.92993  0.69782  1.0000
  C   C547      1.0  0.90789  0.48893  0.90987  1.0000
  C   C548      1.0  0.84492  0.70715  0.83896  1.0000
  H   H961      1.0  0.84666  0.53866  0.90132  1.0000
  C   C549      1.0  0.85867  0.50159  0.93795  1.0000
  H   H962      1.0  0.92818  0.58836  0.97025  1.0000
  H   H963      1.0  0.82910  0.65956  0.88370  1.0000
  H   H964      1.0  0.66040  0.82374  0.55576  1.0000
  H   H965      1.0  0.69212  0.71664  0.58273  1.0000
  H   H966      1.0  0.72388  0.66585  0.92301  1.0000
  H   H967      1.0  0.68093  0.69793  0.90617  1.0000
  C   C550      1.0  0.78246  0.64597  0.92206  1.0000
  N   N30       1.0  0.78038  0.66170  0.88626  1.0000
  H   H968      1.0  0.71249  0.82278  0.58982  1.0000
  H   H969      1.0  0.72967  0.61062  0.81546  1.0000
  C   C551      1.0  0.70178  0.70508  0.63737  1.0000
  C   C552      1.0  0.72388  0.96371  0.69424  1.0000
  H   H970      1.0  0.72865  0.57567  0.84025  1.0000
  H   H971      1.0  0.66565  0.68443  0.66776  1.0000
  H   H972      1.0  0.71245  0.72072  0.92022  1.0000
  H   H973      1.0  0.94790  0.53567  0.92214  1.0000
  C   C553      1.0  0.65789  0.80905  0.53284  1.0000
  H   H974      1.0  0.71793  0.91734  0.67663  1.0000
  H   H975      1.0  0.70891  0.70855  0.52411  1.0000
  H   H976      1.0  0.81000  0.72302  0.66663  1.0000
  H   H977      1.0  0.71737  0.68570  0.58797  1.0000
  C   C554      1.0  0.66594  0.95677  0.78192  1.0000
  Fe  Fe63      1.0  0.68360  0.77410  0.70461  1.0000
  C   C555      1.0  0.93489  0.54438  0.94522  1.0000
  H   H978      1.0  0.73392  0.61787  0.88180  1.0000
  C   C556      1.0  0.97708  0.58807  0.72806  1.0000
  C   C557      1.0  0.90091  0.53720  0.94063  1.0000
  H   H979      1.0  0.79936  0.62739  0.92061  1.0000
  N   N31       1.0  0.73860  0.72976  0.59189  1.0000
  C   C558      1.0  0.74834  0.72545  0.55359  1.0000
  C   C559      1.0  0.76368  0.71997  0.61668  1.0000
  C   C560      1.0  0.72909  0.76189  0.59988  1.0000
  C   C561      1.0  0.74508  0.78741  0.57840  1.0000
  C   C562      1.0  0.72289  0.72938  0.52530  1.0000
  C   C563      1.0  0.79374  0.73747  0.61417  1.0000
  C   C564      1.0  0.81763  0.72314  0.63833  1.0000
  C   C565      1.0  0.73706  0.81870  0.59255  1.0000
  H   H980      1.0  0.89398  0.54794  0.91510  1.0000
  H   H981      1.0  0.75783  0.70236  0.54985  1.0000
  H   H982      1.0  0.76710  0.74083  0.54651  1.0000
  H   H983      1.0  0.75677  0.72259  0.64512  1.0000
  H   H984      1.0  0.76849  0.69546  0.61277  1.0000
  H   H985      1.0  0.70457  0.76501  0.59478  1.0000
  H   H986      1.0  0.73188  0.76674  0.62895  1.0000
  H   H987      1.0  0.73805  0.78688  0.54994  1.0000
  H   H988      1.0  0.76986  0.78527  0.57909  1.0000
  H   H989      1.0  0.70772  0.74836  0.53219  1.0000
  H   H990      1.0  0.80277  0.73770  0.58660  1.0000
  H   H991      1.0  0.79056  0.76096  0.62375  1.0000
  H   H992      1.0  0.72261  0.92138  0.72418  1.0000
  H   H993      1.0  0.83886  0.73635  0.63674  1.0000
  C   C566      1.0  0.83161  0.57531  0.97091  1.0000
  H   H994      1.0  0.75472  0.92540  0.69494  1.0000
  H   H995      1.0  0.74387  0.82099  0.62103  1.0000
  H   H996      1.0  0.74906  0.83621  0.57678  1.0000
  H   H997      1.0  0.70336  0.71714  0.87313  1.0000
  H   H998      1.0  0.76017  0.97266  0.73182  1.0000
  H   H999      1.0  0.79867  0.51615  0.92408  1.0000
  H   H1000     1.0  0.84504  0.49253  0.73107  1.0000
  C   C567      1.0  0.70418  0.70505  0.89918  1.0000
  C   C568      1.0  0.74306  0.59513  0.83264  1.0000
  H   H1001     1.0  0.95759  0.54779  0.78999  1.0000
  H   H1002     1.0  0.98017  0.61822  0.62431  1.0000
  H   H1003     1.0  0.71457  0.66241  0.87590  1.0000
  H   H1004     1.0  0.76239  0.58645  0.81700  1.0000
  H   H1005     1.0  0.97470  0.59843  0.58270  1.0000
  H   H1006     1.0  0.86418  0.69269  0.84707  1.0000
  H   H1007     1.0  0.76706  0.59503  0.88258  1.0000
  H   H1008     1.0  0.88833  0.54952  0.96158  1.0000
  C   C569      1.0  0.98142  0.60694  0.75766  1.0000
  H   H1009     1.0  0.81589  0.67147  0.82100  1.0000
  H   H1010     1.0  0.79586  0.62869  0.84754  1.0000
  C   C570      1.0  0.77436  0.63895  0.85686  1.0000
  C   C571      1.0  0.81083  0.50622  0.90100  1.0000
  H   H1011     1.0  0.71858  0.69199  0.65303  1.0000
  S   S126      1.0  0.65461  0.80476  0.73883  1.0000
  C   C572      1.0  0.67218  0.68750  0.63934  1.0000
  H   H1012     1.0  0.65391  0.69999  0.62535  1.0000
  C   C573      1.0  0.65447  0.91316  0.72800  1.0000
  C   C574      1.0  0.66346  0.82022  0.49804  1.0000
  H   H1013     1.0  0.94175  0.51172  0.77818  1.0000
  H   H1014     1.0  0.66206  0.83505  0.82605  1.0000
  S   S127      1.0  0.86743  0.49112  0.80542  1.0000
  N   N32       1.0  0.89247  0.50425  0.94086  1.0000
  H   H1015     1.0  0.84759  0.51416  0.95995  1.0000
  H   H1016     1.0  0.96458  0.58321  0.94995  1.0000
  H   H1017     1.0  0.73291  0.97125  0.66822  1.0000
  H   H1018     1.0  0.72327  0.97461  0.74963  1.0000
  H   H1019     1.0  0.96093  0.51614  0.82035  1.0000
  H   H1020     1.0  0.74839  0.75654  0.48728  1.0000
  Fe  Fe64      1.0  0.65153  0.83584  0.69157  1.0000
  C   C575      1.0  0.65095  0.96505  0.75048  1.0000
  H   H1021     1.0  0.94410  0.53434  0.97009  1.0000
  S   S128      1.0  0.67432  0.98344  0.81600  1.0000
  H   H1022     1.0  0.90527  0.50245  0.88489  1.0000
  C   C576      1.0  0.90235  0.48927  0.97524  1.0000
  H   H1023     1.0  0.93260  0.48792  0.91465  1.0000
  H   H1024     1.0  0.92722  0.48619  0.97576  1.0000
