data_image0
_chemical_formula_structural       CSCFeSCH2SHCHCHC2HCH2CH2CH2SHCHC6H4NC12H30FeCHSH2NFeCH4CH3FeH2CHC2HCH4CH2CH2C2SCH3SCNHCSH3SCHC2H2C6H5CHCHC2FeHCHSH5C2HCHC3H5SH3CH2CH8NCHC5HCHCNH7CH2CSH6NCH6CH3CHCH4CHCH3CHCH3CHCH4C3H7C2SFeSCSFe2SHC2SFeC4SNHCH2C2HSC2HCHSH2C5S2H3CHSH5CNHFeCH4SHCSH3NC7H2C3H14FeCSHSH9CH2CH3C2HCHC3HFeHCHCSH5CH3CH5C2HC2H5C2SC2H2CH5FeC3HC2H6C3H2CH4C3HC2HCH2CSCFeSCH2SH2CHCH4CH6CH5CH6CH3C2HCH3CNSH8CHCHCHC3H6SHSH4CN2SHCFeC4HC2HCSHC4H5C3H2CHCH3C2H4FeH2FeCH2CH2CHCH4CH2CH2CHSC2HSH2CHFeCSH3CH2S5C2HC6H4C3H5C7H3SFeS2FeSFe2S2HC6H5CH2CH3CH2FeHSH7CH2CH6NC2H2C2H6CHCH8CH3CHSH2C3H3CH2SHCH2SH2CH2CH3NC12H12CH4FeNH4CH5C2HSHFeCH8SCFeSCFeSFeS2FeSFeS3C3H3C6H5C6H4S2C6H4CH2SH5CH2SH2CH4CHNCHCHCH3CH2NSCH3CH2C4HCH2FeCH5CH2NC2SH4C3H12C3H6C2HC4NSH2CH4NC5H8CH2CHC3HFeH4CH3CH4C2H4C2H6CH2FeHCH6CHCH3CHCH4Fe2S2FeS2FeSFeS3FeSH2SCH4C2HC6H4C6H4C3HSFeHCHC2SH3CSCHC2H2CHNHCHC2HCNH4C2H4CH3C2HFeH2C2H2CH7SC2H2FeH5CH2CH2NC5HC3H21NH2CHNH2C4H3SCH2CH5CH7SC3NH2CH4C6HSH6CH2CHCFeH7C2H2CH4C2H2C2H2CH4NCS2C6H4NC8H2CH16CH6CH5FeSCHC3HCH3C2H4CHCHCHFeCHCH4CHCH3S2CHCFeH3C2HSCH4C2H5CH2C2H2CSCHCFeH4CHSHSHFe2H3C3H4CH3SNHC2H4C2S2FeCH5CSHSCHCH2C2H3C4H3CH4SCHCH2CHCH3SHCHSFeSH2FeSHSC6H3NC2H3C2H2SC3HCFeH4SNC6HC5H12CH2C2H6C4H10SHCNH5FeH2FeCFeH2C2SC2H8CFeSHFeSHSH2S2H2CH2CFeHC6H3SHCHSH2NCH3CNC8H15CH4FeH2CH2CSC4H7C2H3SC2HCH4SH2S2CSFeS2FeSFeS2HC2SH3C6H3FeHC6H4CH2SH2NC7H2CHC2H6C5H5CH2CHCH2CNC11SH26CHCH7SH3CHCSH6Fe2CHSHCH2CH4CH2C3HCH2CH4SH3C2H2CHFeHCFeHFeH2FeS2FeSCHS2H2CFeSHSH2SHCH7CHC2H3C6H4CH4CH2CHFeNC9H2CH9SH6CHSH2C2H5NC5HC4HCH18CH3C2H3CH2CH2FeHC2H4C3SCH2CFeH4C2SFeCSFeS2HCFeS3H2CH3SHSC2H7C6H6C2H2C2H2C2NCHSH5SH2CFeHCHCH5CHCH3C3HCHCH3CHC3H7FeCHCH3CHCNHCH3CH4
_chemical_formula_sum              "C720 S160 Fe80 H1280 N40"
_cell_length_a       30.7261
_cell_length_b       60.8734
_cell_length_c       55.7833
_cell_angle_alpha    87.1593
_cell_angle_beta     87.0563
_cell_angle_gamma    122.257

_space_group_name_H-M_alt    "P 1"
_space_group_IT_number       1

loop_
  _space_group_symop_operation_xyz
  'x, y, z'

loop_
  _atom_site_type_symbol
  _atom_site_label
  _atom_site_symmetry_multiplicity
  _atom_site_fract_x
  _atom_site_fract_y
  _atom_site_fract_z
  _atom_site_occupancy
  C   C1        1.0  0.97952  0.15309  0.20451  1.0000
  S   S1        1.0  0.21152  0.14831  0.19339  1.0000
  C   C2        1.0  0.20978  0.04191  0.24104  1.0000
  Fe  Fe1       1.0  0.16173  0.10555  0.20529  1.0000
  S   S2        1.0  0.15556  0.07194  0.18636  1.0000
  C   C3        1.0  0.26311  0.25494  0.21500  1.0000
  H   H1        1.0  0.23343  0.28224  0.18826  1.0000
  H   H2        1.0  0.28416  0.20980  0.18858  1.0000
  S   S3        1.0  0.99284  0.00792  0.11278  1.0000
  H   H3        1.0  0.09988  0.02072  0.04077  1.0000
  C   C4        1.0  0.11531  0.23957  0.21023  1.0000
  H   H4        1.0  0.50242  0.01118  0.20223  1.0000
  C   C5        1.0  0.27953  0.24346  0.19473  1.0000
  H   H5        1.0  0.11740  0.22092  0.17862  1.0000
  C   C6        1.0  0.14571  0.00885  0.21774  1.0000
  C   C7        1.0  0.17444  0.99490  0.21177  1.0000
  H   H6        1.0  0.25476  0.23962  0.17964  1.0000
  C   C8        1.0  0.16278  0.98433  0.18703  1.0000
  H   H7        1.0  0.32028  0.25702  0.18733  1.0000
  H   H8        1.0  0.48745  0.26228  0.23488  1.0000
  C   C9        1.0  0.12401  0.20189  0.21059  1.0000
  H   H9        1.0  0.92712  0.12077  0.23024  1.0000
  H   H10       1.0  0.15777  0.02464  0.20310  1.0000
  C   C10       1.0  0.27602  0.29127  0.18832  1.0000
  H   H11       1.0  0.36584  0.30165  0.19480  1.0000
  H   H12       1.0  0.45434  0.99673  0.22772  1.0000
  S   S4        1.0  0.09683  0.10878  0.22078  1.0000
  H   H13       1.0  0.01886  0.16221  0.19518  1.0000
  C   C11       1.0  0.36647  0.20689  0.24090  1.0000
  H   H14       1.0  0.43619  0.98731  0.19775  1.0000
  C   C12       1.0  0.10511  0.05281  0.16844  1.0000
  C   C13       1.0  0.09891  0.02961  0.16125  1.0000
  C   C14       1.0  0.06234  0.01498  0.14524  1.0000
  C   C15       1.0  0.03294  0.02395  0.13562  1.0000
  C   C16       1.0  0.03770  0.04666  0.14342  1.0000
  C   C17       1.0  0.07334  0.06092  0.16006  1.0000
  H   H15       1.0  0.12355  0.02327  0.16734  1.0000
  H   H16       1.0  0.05867  0.99741  0.13944  1.0000
  H   H17       1.0  0.01456  0.05351  0.13620  1.0000
  H   H18       1.0  0.07752  0.07865  0.16572  1.0000
  N   N1        1.0  0.18668  0.07862  0.08652  1.0000
  C   C18       1.0  0.24339  0.09737  0.07881  1.0000
  C   C19       1.0  0.18139  0.05876  0.10568  1.0000
  C   C20       1.0  0.15960  0.06584  0.06475  1.0000
  C   C21       1.0  0.16229  0.09240  0.09693  1.0000
  C   C22       1.0  0.18874  0.10909  0.11801  1.0000
  C   C23       1.0  0.25736  0.12183  0.06209  1.0000
  C   C24       1.0  0.10153  0.04395  0.06972  1.0000
  C   C25       1.0  0.19690  0.03970  0.09737  1.0000
  C   C26       1.0  0.18915  0.02042  0.11833  1.0000
  C   C27       1.0  0.16418  0.12429  0.12516  1.0000
  C   C28       1.0  0.31579  0.13943  0.05590  1.0000
  C   C29       1.0  0.07966  0.03032  0.04704  1.0000
  H   H19       1.0  0.25918  0.08727  0.06897  1.0000
  H   H20       1.0  0.26598  0.10405  0.09480  1.0000
  H   H21       1.0  0.20506  0.06861  0.12072  1.0000
  H   H22       1.0  0.14122  0.04698  0.11412  1.0000
  H   H23       1.0  0.17996  0.05783  0.05503  1.0000
  H   H24       1.0  0.16119  0.08053  0.05146  1.0000
  H   H25       1.0  0.15956  0.10489  0.08259  1.0000
  H   H26       1.0  0.12154  0.07796  0.10414  1.0000
  H   H27       1.0  0.23051  0.12348  0.11327  1.0000
  H   H28       1.0  0.18447  0.09640  0.13410  1.0000
  H   H29       1.0  0.23926  0.11619  0.04491  1.0000
  H   H30       1.0  0.24455  0.13368  0.07080  1.0000
  H   H31       1.0  0.07850  0.05214  0.07578  1.0000
  H   H32       1.0  0.09526  0.02881  0.08374  1.0000
  H   H33       1.0  0.17310  0.02804  0.08314  1.0000
  H   H34       1.0  0.23818  0.05047  0.09030  1.0000
  H   H35       1.0  0.21268  0.03091  0.13314  1.0000
  H   H36       1.0  0.14779  0.00818  0.12537  1.0000
  H   H37       1.0  0.20111  0.00720  0.11206  1.0000
  H   H38       1.0  0.12193  0.11092  0.12988  1.0000
  H   H39       1.0  0.18166  0.13488  0.14112  1.0000
  H   H40       1.0  0.17095  0.13879  0.11018  1.0000
  H   H41       1.0  0.32486  0.15675  0.04390  1.0000
  H   H42       1.0  0.33579  0.14633  0.07252  1.0000
  H   H43       1.0  0.33076  0.12883  0.04639  1.0000
  H   H44       1.0  0.08342  0.04444  0.03241  1.0000
  H   H45       1.0  0.71972  0.27252  0.23787  1.0000
  H   H46       1.0  0.03799  0.01501  0.05121  1.0000
  H   H47       1.0  0.97134  0.11616  0.21236  1.0000
  H   H48       1.0  0.16207  0.97814  0.22525  1.0000
  Fe  Fe2       1.0  0.15014  0.15222  0.21259  1.0000
  C   C30       1.0  0.27309  0.21768  0.20361  1.0000
  H   H49       1.0  0.14275  0.05257  0.23732  1.0000
  S   S5        1.0  0.12627  0.17801  0.19476  1.0000
  H   H50       1.0  0.22138  0.28131  0.23051  1.0000
  H   H51       1.0  0.96450  0.98942  0.17807  1.0000
  N   N2        1.0  0.28837  0.28414  0.21230  1.0000
  Fe  Fe3       1.0  0.13544  0.30183  0.23831  1.0000
  C   C31       1.0  0.11896  0.22085  0.19796  1.0000
  H   H52       1.0  0.97676  0.16814  0.21369  1.0000
  H   H53       1.0  0.21691  0.00839  0.21118  1.0000
  H   H54       1.0  0.23226  0.20329  0.21031  1.0000
  H   H55       1.0  0.11046  0.25378  0.20038  1.0000
  C   C32       1.0  0.34616  0.29867  0.21310  1.0000
  H   H56       1.0  0.22054  0.24524  0.21551  1.0000
  H   H57       1.0  0.28704  0.28326  0.17340  1.0000
  H   H58       1.0  0.43124  0.22294  0.21398  1.0000
  Fe  Fe4       1.0  0.24283  0.15311  0.22955  1.0000
  H   H59       1.0  0.29818  0.22050  0.21830  1.0000
  H   H60       1.0  0.95134  0.14576  0.19070  1.0000
  C   C33       1.0  0.11541  0.23902  0.23532  1.0000
  H   H61       1.0  0.10438  0.99438  0.21590  1.0000
  C   C34       1.0  0.96784  0.13047  0.22257  1.0000
  C   C35       1.0  0.03966  0.03226  0.24177  1.0000
  H   H62       1.0  0.17609  0.00046  0.17268  1.0000
  C   C36       1.0  0.06822  0.01888  0.23503  1.0000
  H   H63       1.0  0.36751  0.26994  0.22054  1.0000
  H   H64       1.0  0.26932  0.24821  0.23256  1.0000
  H   H65       1.0  0.04211  0.14176  0.23449  1.0000
  H   H66       1.0  0.06275  0.05310  0.23459  1.0000
  C   C37       1.0  0.12616  0.20203  0.23557  1.0000
  H   H67       1.0  0.07347  0.02063  0.21504  1.0000
  H   H68       1.0  0.04350  0.99798  0.24145  1.0000
  C   C38       1.0  0.42269  0.30573  0.23423  1.0000
  H   H69       1.0  0.22050  0.05592  0.22480  1.0000
  H   H70       1.0  0.00198  0.02272  0.23387  1.0000
  C   C39       1.0  0.46685  0.99290  0.21022  1.0000
  C   C40       1.0  0.36736  0.28578  0.22951  1.0000
  S   S6        1.0  0.33011  0.17809  0.22644  1.0000
  C   C41       1.0  0.26391  0.29171  0.23172  1.0000
  H   H71       1.0  0.51011  0.97832  0.22566  1.0000
  H   H72       1.0  0.66233  0.27095  0.22947  1.0000
  H   H73       1.0  0.23533  0.03424  0.23929  1.0000
  S   S7        1.0  0.19770  0.10993  0.24017  1.0000
  C   C42       1.0  0.41668  0.22576  0.23085  1.0000
  N   N3        1.0  0.15349  0.02016  0.24181  1.0000
  H   H74       1.0  0.67112  0.26810  0.26092  1.0000
  C   C43       1.0  0.27311  0.28733  0.25807  1.0000
  S   S8        1.0  0.07961  0.09207  0.28772  1.0000
  H   H75       1.0  0.30941  0.19612  0.27069  1.0000
  H   H76       1.0  0.97161  0.07768  0.29610  1.0000
  H   H77       1.0  0.12208  0.22007  0.26725  1.0000
  S   S9        1.0  0.09665  0.00101  0.33645  1.0000
  C   C44       1.0  0.11071  0.01041  0.40933  1.0000
  H   H78       1.0  0.32855  0.28624  0.31007  1.0000
  C   C45       1.0  0.38047  0.23265  0.27495  1.0000
  C   C46       1.0  0.43104  0.25127  0.26503  1.0000
  H   H79       1.0  0.96997  0.26859  0.35533  1.0000
  H   H80       1.0  0.36665  0.23508  0.29222  1.0000
  C   C47       1.0  0.08437  0.06668  0.30103  1.0000
  C   C48       1.0  0.13234  0.06933  0.30170  1.0000
  C   C49       1.0  0.13566  0.04918  0.31297  1.0000
  C   C50       1.0  0.09096  0.02601  0.32300  1.0000
  C   C51       1.0  0.04289  0.02328  0.32229  1.0000
  C   C52       1.0  0.03971  0.04375  0.31161  1.0000
  H   H81       1.0  0.16703  0.08719  0.29409  1.0000
  H   H82       1.0  0.17298  0.05156  0.31394  1.0000
  H   H83       1.0  0.00829  0.00558  0.33029  1.0000
  H   H84       1.0  0.00255  0.04170  0.31141  1.0000
  H   H85       1.0  0.91785  0.03211  0.28793  1.0000
  C   C53       1.0  0.97777  0.27108  0.27046  1.0000
  H   H86       1.0  0.90381  0.10450  0.27175  1.0000
  C   C54       1.0  0.34794  0.21066  0.26276  1.0000
  H   H87       1.0  0.99936  0.24817  0.32877  1.0000
  C   C55       1.0  0.12136  0.03205  0.24560  1.0000
  C   C56       1.0  0.93670  0.14492  0.27624  1.0000
  Fe  Fe5       1.0  0.13545  0.11537  0.25512  1.0000
  H   H88       1.0  0.21161  0.05178  0.40885  1.0000
  C   C57       1.0  0.93637  0.04750  0.27260  1.0000
  H   H89       1.0  0.29349  0.04083  0.42399  1.0000
  S   S10       1.0  0.47233  0.27789  0.28120  1.0000
  H   H90       1.0  0.18572  0.99508  0.46276  1.0000
  H   H91       1.0  0.11044  0.18644  0.31236  1.0000
  H   H92       1.0  0.11458  0.03324  0.26516  1.0000
  H   H93       1.0  0.01922  0.15582  0.30617  1.0000
  H   H94       1.0  0.14584  0.00890  0.28001  1.0000
  C   C58       1.0  0.94212  0.97980  0.28434  1.0000
  C   C59       1.0  0.02525  0.26002  0.34235  1.0000
  H   H95       1.0  0.05075  0.30269  0.27895  1.0000
  C   C60       1.0  0.22585  0.05794  0.26333  1.0000
  H   H96       1.0  0.03036  0.28780  0.36683  1.0000
  C   C61       1.0  0.95479  0.30955  0.34921  1.0000
  C   C62       1.0  0.89278  0.14161  0.29340  1.0000
  C   C63       1.0  0.94694  0.07330  0.28105  1.0000
  H   H97       1.0  0.05668  0.17372  0.27820  1.0000
  H   H98       1.0  0.94333  0.25267  0.27901  1.0000
  H   H99       1.0  0.12126  0.01186  0.38959  1.0000
  H   H100      1.0  0.29229  0.09214  0.27549  1.0000
  H   H101      1.0  0.22284  0.04566  0.27951  1.0000
  S   S11       1.0  0.10392  0.25974  0.25186  1.0000
  H   H102      1.0  0.07952  0.98663  0.45524  1.0000
  H   H103      1.0  0.28619  0.04935  0.39350  1.0000
  H   H104      1.0  0.99211  0.00328  0.40009  1.0000
  C   C64       1.0  0.01720  0.28483  0.28870  1.0000
  H   H105      1.0  0.04462  0.01229  0.37773  1.0000
  H   H106      1.0  0.98373  0.98878  0.28677  1.0000
  C   C65       1.0  0.01635  0.24105  0.36384  1.0000
  H   H107      1.0  0.19966  0.27906  0.27489  1.0000
  H   H108      1.0  0.05358  0.03322  0.40142  1.0000
  H   H109      1.0  0.21807  0.04269  0.43916  1.0000
  H   H110      1.0  0.38699  0.29569  0.34271  1.0000
  H   H111      1.0  0.93423  0.30551  0.33263  1.0000
  H   H112      1.0  0.09338  0.15327  0.31885  1.0000
  H   H113      1.0  0.20140  0.06585  0.26723  1.0000
  H   H114      1.0  0.30260  0.07216  0.41601  1.0000
  N   N4        1.0  0.13191  0.99675  0.42328  1.0000
  C   C66       1.0  0.18892  0.01075  0.41526  1.0000
  H   H115      1.0  0.93571  0.29134  0.36143  1.0000
  C   C67       1.0  0.03079  0.13210  0.28160  1.0000
  C   C68       1.0  0.12179  0.99792  0.44982  1.0000
  C   C69       1.0  0.00593  0.13968  0.24251  1.0000
  C   C70       1.0  0.22233  0.03999  0.41986  1.0000
  C   C71       1.0  0.12136  0.22036  0.24788  1.0000
  H   H116      1.0  0.85521  0.12430  0.28964  1.0000
  C   C72       1.0  0.03464  0.01264  0.39707  1.0000
  H   H117      1.0  0.06489  0.13381  0.27146  1.0000
  C   C73       1.0  0.27962  0.05116  0.41289  1.0000
  N   N5        1.0  0.02592  0.30230  0.33140  1.0000
  H   H118      1.0  0.19421  0.00942  0.39555  1.0000
  H   H119      1.0  0.20700  0.00124  0.42401  1.0000
  H   H120      1.0  0.41356  0.29328  0.31401  1.0000
  H   H121      1.0  0.97266  0.16283  0.28013  1.0000
  H   H122      1.0  0.13053  0.18772  0.24544  1.0000
  H   H123      1.0  0.95483  0.27550  0.31590  1.0000
  H   H124      1.0  0.13537  0.01824  0.45377  1.0000
  C   C74       1.0  0.05142  0.99783  0.41305  1.0000
  H   H125      1.0  0.09498  0.30602  0.31425  1.0000
  H   H126      1.0  0.26182  0.26698  0.26284  1.0000
  C   C75       1.0  0.09891  0.16796  0.30433  1.0000
  S   S12       1.0  0.18391  0.15923  0.24822  1.0000
  H   H127      1.0  0.31444  0.30094  0.26081  1.0000
  H   H128      1.0  0.25097  0.29111  0.29449  1.0000
  H   H129      1.0  0.93683  0.11421  0.29811  1.0000
  H   H130      1.0  0.03078  0.27207  0.29459  1.0000
  H   H131      1.0  0.47373  0.29600  0.33550  1.0000
  H   H132      1.0  0.90947  0.07006  0.28833  1.0000
  N   N6        1.0  0.98660  0.12219  0.26580  1.0000
  C   C76       1.0  0.01220  0.28013  0.34993  1.0000
  H   H133      1.0  0.13072  0.17175  0.29093  1.0000
  H   H134      1.0  0.06607  0.26942  0.33500  1.0000
  H   H135      1.0  0.03901  0.99822  0.43195  1.0000
  H   H136      1.0  0.89984  0.13931  0.31243  1.0000
  H   H137      1.0  0.93499  0.99558  0.28016  1.0000
  H   H138      1.0  0.04236  0.25163  0.37791  1.0000
  C   C77       1.0  0.93996  0.12027  0.27858  1.0000
  H   H139      1.0  0.12793  0.03073  0.41423  1.0000
  H   H140      1.0  0.02482  0.22648  0.35781  1.0000
  H   H141      1.0  0.97553  0.23048  0.37174  1.0000
  C   C78       1.0  0.24164  0.29305  0.27585  1.0000
  H   H142      1.0  0.02100  0.11813  0.29751  1.0000
  C   C79       1.0  0.99448  0.29242  0.30995  1.0000
  H   H143      1.0  0.96574  0.28405  0.26282  1.0000
  H   H144      1.0  0.92894  0.14838  0.25769  1.0000
  H   H145      1.0  0.17148  0.99497  0.26158  1.0000
  H   H146      1.0  0.97321  0.04952  0.26604  1.0000
  C   C80       1.0  0.28177  0.08114  0.25924  1.0000
  H   H147      1.0  0.53038  0.27779  0.33411  1.0000
  C   C81       1.0  0.04901  0.15833  0.29221  1.0000
  H   H148      1.0  0.89044  0.15916  0.29091  1.0000
  H   H149      1.0  0.03270  0.03112  0.26163  1.0000
  H   H150      1.0  0.77809  0.30762  0.26213  1.0000
  C   C82       1.0  0.56458  0.29814  0.33194  1.0000
  H   H151      1.0  0.30857  0.07441  0.25583  1.0000
  C   C83       1.0  0.14205  0.00034  0.26246  1.0000
  H   H152      1.0  0.57632  0.30422  0.31240  1.0000
  H   H153      1.0  0.99557  0.26626  0.25543  1.0000
  H   H154      1.0  0.91013  0.04129  0.25796  1.0000
  C   C84       1.0  0.97248  0.09527  0.25988  1.0000
  H   H155      1.0  0.59692  0.29859  0.34043  1.0000
  C   C85       1.0  0.36200  0.30639  0.31123  1.0000
  H   H156      1.0  0.00731  0.09607  0.25187  1.0000
  H   H157      1.0  0.45084  0.30738  0.37100  1.0000
  H   H158      1.0  0.34472  0.27711  0.24718  1.0000
  H   H159      1.0  0.98923  0.30776  0.30146  1.0000
  C   C86       1.0  0.44860  0.24806  0.24268  1.0000
  C   C87       1.0  0.14402  0.98677  0.46743  1.0000
  C   C88       1.0  0.40360  0.30543  0.32428  1.0000
  H   H160      1.0  0.28647  0.09461  0.24368  1.0000
  H   H161      1.0  0.94443  0.08800  0.24601  1.0000
  H   H162      1.0  0.47497  0.30901  0.41275  1.0000
  H   H163      1.0  0.54041  0.30920  0.36307  1.0000
  H   H164      1.0  0.05867  0.97919  0.27224  1.0000
  H   H165      1.0  0.01764  0.15986  0.24578  1.0000
  H   H166      1.0  0.43986  0.29568  0.24271  1.0000
  C   C89       1.0  0.71848  0.30748  0.24296  1.0000
  C   C90       1.0  0.69140  0.27792  0.24290  1.0000
  S   S13       1.0  0.41809  0.06244  0.69061  1.0000
  Fe  Fe6       1.0  0.77110  0.24333  0.71167  1.0000
  S   S14       1.0  0.81747  0.26102  0.67559  1.0000
  C   C91       1.0  0.53956  0.16808  0.73087  1.0000
  S   S15       1.0  0.69465  0.20515  0.71682  1.0000
  Fe  Fe7       1.0  0.81042  0.03037  0.69752  1.0000
  Fe  Fe8       1.0  0.78816  0.07047  0.71646  1.0000
  S   S16       1.0  0.80724  0.11117  0.70534  1.0000
  H   H167      1.0  0.21815  0.04209  0.70195  1.0000
  C   C92       1.0  0.86355  0.00229  0.66039  1.0000
  C   C93       1.0  0.24917  0.00441  0.64930  1.0000
  S   S17       1.0  0.75110  0.04022  0.69028  1.0000
  Fe  Fe9       1.0  0.33997  0.02528  0.69132  1.0000
  C   C94       1.0  0.77138  0.12215  0.72001  1.0000
  C   C95       1.0  0.44838  0.16521  0.72107  1.0000
  C   C96       1.0  0.92431  0.21440  0.70032  1.0000
  C   C97       1.0  0.58884  0.00498  0.72327  1.0000
  S   S18       1.0  0.30171  0.03780  0.71773  1.0000
  N   N7        1.0  0.91782  0.99182  0.72663  1.0000
  H   H168      1.0  0.94251  0.02394  0.64471  1.0000
  C   C98       1.0  0.90709  0.00492  0.64787  1.0000
  H   H169      1.0  0.98694  0.03042  0.71719  1.0000
  H   H170      1.0  0.70136  0.25079  0.68242  1.0000
  C   C99       1.0  0.70412  0.26245  0.66581  1.0000
  C   C100      1.0  0.84440  0.29490  0.67257  1.0000
  H   H171      1.0  0.09652  0.98454  0.49902  1.0000
  S   S19       1.0  0.76194  0.00036  0.72840  1.0000
  C   C101      1.0  0.15790  0.00034  0.63628  1.0000
  C   C102      1.0  0.98844  0.99480  0.69581  1.0000
  H   H172      1.0  0.14395  0.04694  0.73723  1.0000
  C   C103      1.0  0.21623  0.00562  0.66666  1.0000
  H   H173      1.0  0.26053  0.99906  0.61212  1.0000
  S   S20       1.0  0.86857  0.03039  0.67079  1.0000
  H   H174      1.0  0.29715  0.06984  0.62799  1.0000
  H   H175      1.0  0.93418  0.02359  0.70099  1.0000
  C   C104      1.0  0.75852  0.15772  0.72583  1.0000
  C   C105      1.0  0.53954  0.28462  0.72100  1.0000
  C   C106      1.0  0.53488  0.99211  0.72313  1.0000
  C   C107      1.0  0.13012  0.00922  0.73140  1.0000
  C   C108      1.0  0.20108  0.09179  0.69063  1.0000
  S   S21       1.0  0.10509  0.00190  0.62802  1.0000
  S   S22       1.0  0.74298  0.26512  0.73152  1.0000
  H   H176      1.0  0.21957  0.08610  0.73937  1.0000
  H   H177      1.0  0.64012  0.27836  0.67859  1.0000
  H   H178      1.0  0.26127  0.13098  0.71900  1.0000
  C   C109      1.0  0.54071  0.03352  0.72323  1.0000
  H   H179      1.0  0.49136  0.20668  0.72358  1.0000
  S   S23       1.0  0.39097  0.11282  0.71793  1.0000
  H   H180      1.0  0.73443  0.26407  0.65275  1.0000
  H   H181      1.0  0.31879  0.13107  0.71085  1.0000
  H   H182      1.0  0.14585  0.00504  0.67348  1.0000
  H   H183      1.0  0.58423  0.26793  0.71326  1.0000
  H   H184      1.0  0.95787  0.06918  0.70939  1.0000
  C   C110      1.0  0.25101  0.09229  0.72490  1.0000
  N   N8        1.0  0.22985  0.08069  0.70167  1.0000
  H   H185      1.0  0.54399  0.30257  0.72761  1.0000
  Fe  Fe10      1.0  0.70608  0.01339  0.72355  1.0000
  C   C111      1.0  0.67522  0.28822  0.68869  1.0000
  H   H186      1.0  0.46930  0.99643  0.72272  1.0000
  H   H187      1.0  0.85094  0.98655  0.71021  1.0000
  H   H188      1.0  0.18027  0.99583  0.60059  1.0000
  H   H189      1.0  0.61772  0.06707  0.72455  1.0000
  S   S24       1.0  0.30728  0.00770  0.65671  1.0000
  H   H190      1.0  0.30229  0.10894  0.68044  1.0000
  C   C112      1.0  0.63153  0.31017  0.70093  1.0000
  S   S25       1.0  0.85132  0.06317  0.72096  1.0000
  H   H191      1.0  0.86872  0.17091  0.73277  1.0000
  H   H192      1.0  0.34251  0.09715  0.64367  1.0000
  H   H193      1.0  0.31606  0.06403  0.65640  1.0000
  N   N9        1.0  0.64604  0.12764  0.67341  1.0000
  C   C113      1.0  0.68230  0.15693  0.67199  1.0000
  C   C114      1.0  0.62417  0.11672  0.69925  1.0000
  C   C115      1.0  0.67711  0.11630  0.66528  1.0000
  C   C116      1.0  0.60299  0.11946  0.65726  1.0000
  C   C117      1.0  0.56693  0.12948  0.66267  1.0000
  C   C118      1.0  0.70847  0.17115  0.64670  1.0000
  C   C119      1.0  0.64663  0.08604  0.66577  1.0000
  H   H194      1.0  0.68852  0.30095  0.73333  1.0000
  H   H195      1.0  0.90143  0.28336  0.73439  1.0000
  C   C120      1.0  0.52768  0.12176  0.64398  1.0000
  C   C121      1.0  0.74197  0.20066  0.64805  1.0000
  C   C122      1.0  0.68253  0.07588  0.66699  1.0000
  H   H196      1.0  0.71359  0.16201  0.68403  1.0000
  H   H197      1.0  0.66226  0.16634  0.67883  1.0000
  H   H198      1.0  0.58618  0.09816  0.69956  1.0000
  H   H199      1.0  0.64921  0.11161  0.70867  1.0000
  H   H200      1.0  0.71041  0.12287  0.67641  1.0000
  H   H201      1.0  0.69429  0.12351  0.64639  1.0000
  H   H202      1.0  0.61865  0.12504  0.63801  1.0000
  H   H203      1.0  0.57721  0.09779  0.65869  1.0000
  H   H204      1.0  0.58889  0.15101  0.66255  1.0000
  H   H205      1.0  0.54448  0.12051  0.68046  1.0000
  H   H206      1.0  0.73434  0.16514  0.63928  1.0000
  H   H207      1.0  0.67923  0.16736  0.63392  1.0000
  H   H208      1.0  0.62637  0.07984  0.64912  1.0000
  H   H209      1.0  0.61687  0.07622  0.68120  1.0000
  Fe  Fe11      1.0  0.43171  0.04191  0.72113  1.0000
  C   C123      1.0  0.17086  0.00371  0.66012  1.0000
  S   S26       1.0  0.35710  0.00372  0.71933  1.0000
  H   H210      1.0  0.72327  0.30074  0.65400  1.0000
  S   S27       1.0  0.59275  0.22202  0.73384  1.0000
  H   H211      1.0  0.50151  0.12860  0.64869  1.0000
  H   H212      1.0  0.54759  0.13080  0.62574  1.0000
  H   H213      1.0  0.50374  0.10020  0.64375  1.0000
  H   H214      1.0  0.77282  0.20560  0.66027  1.0000
  H   H215      1.0  0.76067  0.21060  0.62987  1.0000
  H   H216      1.0  0.71824  0.20827  0.65476  1.0000
  H   H217      1.0  0.71284  0.08479  0.65157  1.0000
  H   H218      1.0  0.70128  0.08034  0.68413  1.0000
  H   H219      1.0  0.65984  0.05435  0.66645  1.0000
  C   C124      1.0  0.18977  0.99814  0.61908  1.0000
  H   H220      1.0  0.22785  0.11297  0.68496  1.0000
  H   H221      1.0  0.15194  0.00001  0.72648  1.0000
  C   C125      1.0  0.27543  0.08753  0.68415  1.0000
  H   H222      1.0  0.49550  0.12619  0.72841  1.0000
  H   H223      1.0  0.65992  0.04229  0.72302  1.0000
  H   H224      1.0  0.66674  0.27405  0.70440  1.0000
  C   C126      1.0  0.26224  0.07701  0.65898  1.0000
  C   C127      1.0  0.19544  0.05113  0.70557  1.0000
  H   H225      1.0  0.66668  0.25204  0.65770  1.0000
  C   C128      1.0  0.78071  0.14670  0.71234  1.0000
  H   H226      1.0  0.15931  0.12291  0.69139  1.0000
  C   C129      1.0  0.30741  0.07711  0.64602  1.0000
  C   C130      1.0  0.51079  0.00639  0.72289  1.0000
  C   C131      1.0  0.61842  0.03211  0.72312  1.0000
  H   H227      1.0  0.16587  0.04349  0.69231  1.0000
  Fe  Fe12      1.0  0.38153  0.07331  0.71944  1.0000
  H   H228      1.0  0.29872  0.08051  0.69230  1.0000
  C   C132      1.0  0.94440  0.02065  0.71924  1.0000
  H   H229      1.0  0.18577  0.08278  0.67365  1.0000
  C   C133      1.0  0.93242  0.97890  0.70818  1.0000
  S   S28       1.0  0.61911  0.98721  0.72440  1.0000
  H   H230      1.0  0.59663  0.14285  0.70787  1.0000
  H   H231      1.0  0.80681  0.15763  0.69646  1.0000
  H   H232      1.0  0.92878  0.23046  0.73412  1.0000
  H   H233      1.0  0.25375  0.08953  0.64758  1.0000
  H   H234      1.0  0.22806  0.05688  0.66010  1.0000
  C   C134      1.0  0.71822  0.28971  0.67148  1.0000
  H   H235      1.0  0.94909  0.27598  0.74139  1.0000
  H   H236      1.0  0.99306  0.01052  0.68279  1.0000
  H   H237      1.0  0.09680  0.09821  0.70593  1.0000
  C   C135      1.0  0.90501  0.98319  0.63910  1.0000
  H   H238      1.0  0.76741  0.17709  0.72037  1.0000
  H   H239      1.0  0.22567  0.00793  0.68510  1.0000
  H   H240      1.0  0.84937  0.29835  0.71064  1.0000
  H   H241      1.0  0.75566  0.29930  0.67930  1.0000
  H   H242      1.0  0.96424  0.21854  0.69956  1.0000
  C   C136      1.0  0.73677  0.10782  0.74022  1.0000
  C   C137      1.0  0.58635  0.11916  0.73993  1.0000
  H   H243      1.0  0.01771  0.00399  0.70883  1.0000
  C   C138      1.0  0.28424  0.12254  0.72394  1.0000
  C   C139      1.0  0.13061  0.10156  0.69430  1.0000
  H   H244      1.0  0.11729  0.09384  0.67669  1.0000
  H   H245      1.0  0.27468  0.08477  0.73165  1.0000
  H   H246      1.0  0.10016  0.00428  0.71869  1.0000
  H   H247      1.0  0.16515  0.09550  0.72426  1.0000
  H   H248      1.0  0.54568  0.10459  0.73691  1.0000
  C   C140      1.0  0.59144  0.28672  0.71898  1.0000
  C   C141      1.0  0.16682  0.03877  0.73101  1.0000
  S   S29       1.0  0.51363  0.05270  0.72450  1.0000
  C   C142      1.0  0.44894  0.14234  0.72244  1.0000
  C   C143      1.0  0.15413  0.08774  0.70651  1.0000
  H   H249      1.0  0.12352  0.06667  0.70930  1.0000
  H   H250      1.0  0.84469  0.29794  0.63387  1.0000
  C   C144      1.0  0.61691  0.13428  0.71607  1.0000
  H   H251      1.0  0.89929  0.19620  0.69165  1.0000
  H   H252      1.0  0.92513  0.23072  0.68998  1.0000
  H   H253      1.0  0.93874  0.98556  0.62930  1.0000
  H   H254      1.0  0.61423  0.30796  0.68341  1.0000
  H   H255      1.0  0.65528  0.15043  0.72023  1.0000
  Fe  Fe13      1.0  0.66873  0.22607  0.73945  1.0000
  C   C145      1.0  0.53846  0.19091  0.72953  1.0000
  C   C146      1.0  0.49475  0.14376  0.72730  1.0000
  C   C147      1.0  0.23531  0.00015  0.62560  1.0000
  H   H256      1.0  0.41340  0.16438  0.71730  1.0000
  C   C148      1.0  0.49266  0.18925  0.72461  1.0000
  C   C149      1.0  0.59437  0.04620  0.72370  1.0000
  H   H257      1.0  0.51182  0.26774  0.73400  1.0000
  H   H258      1.0  0.60508  0.28898  0.73727  1.0000
  H   H259      1.0  0.04063  0.98938  0.67302  1.0000
  H   H260      1.0  0.86444  0.20902  0.72596  1.0000
  H   H261      1.0  0.57467  0.16918  0.73486  1.0000
  H   H262      1.0  0.52329  0.28147  0.70325  1.0000
  C   C150      1.0  0.93243  0.03646  0.73632  1.0000
  C   C151      1.0  0.86022  0.98009  0.72713  1.0000
  C   C152      1.0  0.90320  0.21182  0.72641  1.0000
  H   H263      1.0  0.15230  0.98373  0.50569  1.0000
  H   H264      1.0  0.89129  0.03023  0.73651  1.0000
  C   C153      1.0  0.96524  0.06558  0.72804  1.0000
  H   H265      1.0  0.00694  0.07314  0.72866  1.0000
  H   H266      1.0  0.84683  0.98738  0.74179  1.0000
  H   H267      1.0  0.16010  0.01411  0.49468  1.0000
  H   H268      1.0  0.95496  0.07634  0.74023  1.0000
  C   C154      1.0  0.85270  0.30832  0.64989  1.0000
  C   C155      1.0  0.85491  0.30840  0.69315  1.0000
  C   C156      1.0  0.89856  0.18823  0.74121  1.0000
  H   H269      1.0  0.93488  0.18862  0.73719  1.0000
  C   C157      1.0  0.13786  0.99273  0.49323  1.0000
  C   C158      1.0  0.04445  0.03379  0.87800  1.0000
  H   H270      1.0  0.60423  0.06607  0.80537  1.0000
  C   C159      1.0  0.49417  0.10091  0.79241  1.0000
  H   H271      1.0  0.55981  0.04341  0.84007  1.0000
  H   H272      1.0  0.04314  0.99123  0.95817  1.0000
  C   C160      1.0  0.99375  0.99751  0.78247  1.0000
  S   S30       1.0  0.69210  0.21731  0.77442  1.0000
  C   C161      1.0  0.84008  0.00565  0.79384  1.0000
  Fe  Fe14      1.0  0.76952  0.25425  0.76410  1.0000
  S   S31       1.0  0.82877  0.28424  0.78660  1.0000
  C   C162      1.0  0.07475  0.02047  0.88330  1.0000
  H   H273      1.0  0.03782  0.25969  0.79043  1.0000
  H   H274      1.0  0.02465  0.04981  0.84790  1.0000
  S   S32       1.0  0.84153  0.03420  0.78440  1.0000
  H   H275      1.0  0.94641  0.23708  0.78264  1.0000
  H   H276      1.0  0.08630  0.05296  0.84284  1.0000
  C   C163      1.0  0.71469  0.11887  0.75377  1.0000
  H   H277      1.0  0.84529  0.15306  0.79633  1.0000
  C   C164      1.0  0.59474  0.05473  0.78946  1.0000
  H   H278      1.0  0.88593  0.14179  0.74956  1.0000
  H   H279      1.0  0.68980  0.10828  0.77002  1.0000
  H   H280      1.0  0.73697  0.28652  0.79646  1.0000
  H   H281      1.0  0.80372  0.17230  0.80723  1.0000
  C   C165      1.0  0.87804  0.14055  0.76939  1.0000
  H   H282      1.0  0.92359  0.19163  0.80097  1.0000
  H   H283      1.0  0.90708  0.98646  0.82668  1.0000
  H   H284      1.0  0.02687  0.02173  0.84171  1.0000
  H   H285      1.0  0.90657  0.02607  0.81398  1.0000
  H   H286      1.0  0.77306  0.20122  0.79468  1.0000
  H   H287      1.0  0.79340  0.20579  0.82465  1.0000
  C   C166      1.0  0.18952  0.08773  0.92470  1.0000
  H   H288      1.0  0.81510  0.14693  0.76901  1.0000
  H   H289      1.0  0.54378  0.05493  0.87968  1.0000
  H   H290      1.0  0.19186  0.08185  0.94353  1.0000
  H   H291      1.0  0.83463  0.22956  0.80009  1.0000
  H   H292      1.0  0.19530  0.04237  0.74423  1.0000
  C   C167      1.0  0.96803  0.22783  0.77775  1.0000
  H   H293      1.0  0.62732  0.03319  0.80399  1.0000
  H   H294      1.0  0.60308  0.06825  0.77325  1.0000
  H   H295      1.0  0.86526  0.20052  0.81271  1.0000
  H   H296      1.0  0.80497  0.10310  0.76979  1.0000
  H   H297      1.0  0.91185  0.99302  0.76525  1.0000
  H   H298      1.0  0.53328  0.01496  0.80201  1.0000
  C   C168      1.0  0.08752  0.99355  0.91267  1.0000
  H   H299      1.0  0.39343  0.98006  0.75730  1.0000
  H   H300      1.0  0.91479  0.14772  0.77771  1.0000
  H   H301      1.0  0.18073  0.03689  0.79345  1.0000
  C   C169      1.0  0.53729  0.03185  0.79101  1.0000
  C   C170      1.0  0.17945  0.01884  0.79625  1.0000
  H   H302      1.0  0.91838  0.28359  0.76507  1.0000
  C   C171      1.0  0.44755  0.01910  0.78840  1.0000
  H   H303      1.0  0.67187  0.06174  0.78405  1.0000
  H   H304      1.0  0.45348  0.02479  0.76865  1.0000
  H   H305      1.0  0.99839  0.23283  0.81295  1.0000
  C   C172      1.0  0.00081  0.00847  0.96877  1.0000
  N   N10       1.0  0.49645  0.03701  0.80006  1.0000
  S   S33       1.0  0.26803  0.99029  0.77654  1.0000
  H   H306      1.0  0.05975  0.05220  0.88657  1.0000
  H   H307      1.0  0.46923  0.10702  0.80088  1.0000
  H   H308      1.0  0.10692  0.06518  0.92729  1.0000
  H   H309      1.0  0.08157  0.02606  0.95899  1.0000
  H   H310      1.0  0.03327  0.02906  0.92377  1.0000
  H   H311      1.0  0.09847  0.99164  0.93101  1.0000
  H   H312      1.0  0.19153  0.10651  0.92442  1.0000
  H   H313      1.0  0.05163  0.00101  0.87633  1.0000
  C   C173      1.0  0.80237  0.98133  0.78695  1.0000
  H   H314      1.0  0.62272  0.03266  0.77191  1.0000
  C   C174      1.0  0.51070  0.04276  0.86906  1.0000
  H   H315      1.0  0.03703  0.22995  0.78916  1.0000
  C   C175      1.0  0.87753  0.00734  0.80841  1.0000
  H   H316      1.0  0.11175  0.03084  0.87147  1.0000
  C   C176      1.0  0.98673  0.99848  0.75562  1.0000
  C   C177      1.0  0.13885  0.06697  0.91540  1.0000
  C   C178      1.0  0.47652  0.07341  0.80288  1.0000
  H   H317      1.0  0.98499  0.23427  0.75879  1.0000
  H   H318      1.0  0.94090  0.03411  0.75502  1.0000
  H   H319      1.0  0.16531  0.00985  0.89352  1.0000
  H   H320      1.0  0.00319  0.02049  0.88500  1.0000
  H   H321      1.0  0.51594  0.06783  0.77244  1.0000
  H   H322      1.0  0.27065  0.12450  0.76239  1.0000
  S   S34       1.0  0.09130  0.00167  0.82604  1.0000
  H   H323      1.0  0.95837  0.19054  0.77547  1.0000
  S   S35       1.0  0.74057  0.04423  0.74960  1.0000
  H   H324      1.0  0.43596  0.06027  0.79892  1.0000
  H   H325      1.0  0.00383  0.02749  0.96663  1.0000
  H   H326      1.0  0.16699  0.04458  0.90111  1.0000
  H   H327      1.0  0.25010  0.03274  0.77352  1.0000
  C   C179      1.0  0.81625  0.30399  0.80408  1.0000
  N   N11       1.0  0.08458  0.01752  0.90926  1.0000
  N   N12       1.0  0.88497  0.18517  0.76821  1.0000
  S   S36       1.0  0.39967  0.05527  0.75009  1.0000
  H   H328      1.0  0.53131  0.02573  0.77236  1.0000
  C   C180      1.0  0.13895  0.99799  0.81138  1.0000
  Fe  Fe15      1.0  0.80037  0.03368  0.75159  1.0000
  C   C181      1.0  0.04583  0.03994  0.85096  1.0000
  C   C182      1.0  0.21791  0.99344  0.78903  1.0000
  C   C183      1.0  0.72655  0.14404  0.74690  1.0000
  C   C184      1.0  0.85178  0.19598  0.77417  1.0000
  H   H329      1.0  0.11270  0.98980  0.87612  1.0000
  C   C185      1.0  0.85349  0.15632  0.77638  1.0000
  C   C186      1.0  0.93328  0.19770  0.78129  1.0000
  H   H330      1.0  0.00339  0.99521  0.92187  1.0000
  C   C187      1.0  0.83283  0.19308  0.80114  1.0000
  S   S37       1.0  0.70385  0.15872  0.76569  1.0000
  H   H331      1.0  0.96278  0.99298  0.96336  1.0000
  C   C188      1.0  0.01300  0.23809  0.79357  1.0000
  C   C189      1.0  0.80702  0.20838  0.80529  1.0000
  C   C190      1.0  0.84207  0.11164  0.77811  1.0000
  C   C191      1.0  0.51235  0.06472  0.79247  1.0000
  H   H332      1.0  0.81680  0.18636  0.76409  1.0000
  H   H333      1.0  0.53483  0.11512  0.79590  1.0000
  H   H334      1.0  0.22317  0.09080  0.91310  1.0000
  H   H335      1.0  0.45020  0.03120  0.83315  1.0000
  H   H336      1.0  0.41302  0.98177  0.81085  1.0000
  C   C192      1.0  0.04488  0.00960  0.95352  1.0000
  C   C193      1.0  0.21864  0.01651  0.78491  1.0000
  C   C194      1.0  0.87788  0.98493  0.81562  1.0000
  H   H337      1.0  0.49085  0.10134  0.77270  1.0000
  H   H338      1.0  0.83417  0.10893  0.79804  1.0000
  C   C195      1.0  0.63125  0.04493  0.78719  1.0000
  H   H339      1.0  0.87183  0.21697  0.76792  1.0000
  C   C196      1.0  0.13558  0.04075  0.91479  1.0000
  H   H340      1.0  0.32766  0.15312  0.74733  1.0000
  H   H341      1.0  0.03402  0.00325  0.78496  1.0000
  H   H342      1.0  0.13832  0.07430  0.89689  1.0000
  C   C197      1.0  0.03999  0.01297  0.92622  1.0000
  C   C198      1.0  0.12592  0.99214  0.89450  1.0000
  H   H343      1.0  0.55122  0.07922  0.79766  1.0000
  H   H344      1.0  0.47728  0.07376  0.82273  1.0000
  H   H345      1.0  0.14721  0.03654  0.93215  1.0000
  H   H346      1.0  0.54690  0.06907  0.83712  1.0000
  Fe  Fe16      1.0  0.32347  0.01874  0.74582  1.0000
  H   H347      1.0  0.49378  0.02191  0.87531  1.0000
  H   H348      1.0  0.58670  0.13286  0.75245  1.0000
  Fe  Fe17      1.0  0.72214  0.19825  0.75123  1.0000
  C   C199      1.0  0.52947  0.04800  0.84227  1.0000
  H   H349      1.0  0.48124  0.04780  0.87249  1.0000
  H   H350      1.0  0.32789  0.12399  0.75412  1.0000
  C   C200      1.0  0.42678  0.98948  0.79172  1.0000
  H   H351      1.0  0.60370  0.10907  0.74846  1.0000
  H   H352      1.0  0.77264  0.97973  0.77624  1.0000
  C   C201      1.0  0.48471  0.03072  0.82697  1.0000
  H   H353      1.0  0.41519  0.02094  0.79532  1.0000
  C   C202      1.0  0.76813  0.30140  0.80564  1.0000
  H   H354      1.0  0.01161  0.01916  0.74836  1.0000
  H   H355      1.0  0.86032  0.10079  0.77281  1.0000
  H   H356      1.0  0.98618  0.01122  0.79139  1.0000
  H   H357      1.0  0.47362  0.01036  0.83205  1.0000
  C   C203      1.0  0.92919  0.98659  0.75152  1.0000
  H   H358      1.0  0.45665  0.98541  0.78588  1.0000
  H   H359      1.0  0.72854  0.08866  0.74590  1.0000
  C   C204      1.0  0.30360  0.13147  0.74850  1.0000
  H   H360      1.0  0.00062  0.98695  0.74708  1.0000
  H   H361      1.0  0.11068  0.00113  0.74988  1.0000
  C   C205      1.0  0.93350  0.28822  0.74576  1.0000
  H   H362      1.0  0.00280  0.00400  0.98809  1.0000
  S   S38       1.0  0.80151  0.23415  0.74371  1.0000
  C   C206      1.0  0.86876  0.45194  0.04974  1.0000
  C   C207      1.0  0.89222  0.35221  0.20725  1.0000
  H   H363      1.0  0.79634  0.33835  0.02446  1.0000
  S   S39       1.0  0.69201  0.34332  0.20110  1.0000
  H   H364      1.0  0.44612  0.31655  0.21705  1.0000
  H   H365      1.0  0.17027  0.49821  0.18743  1.0000
  C   C208      1.0  0.89905  0.46420  0.19915  1.0000
  H   H366      1.0  0.86471  0.32855  0.01927  1.0000
  Fe  Fe18      1.0  0.16428  0.34806  0.20206  1.0000
  C   C209      1.0  0.73665  0.35908  0.09395  1.0000
  S   S40       1.0  0.16067  0.36220  0.16440  1.0000
  H   H367      1.0  0.90273  0.33858  0.20060  1.0000
  H   H368      1.0  0.29553  0.44681  0.16436  1.0000
  H   H369      1.0  0.97703  0.53724  0.09858  1.0000
  C   C210      1.0  0.84912  0.33832  0.22783  1.0000
  H   H370      1.0  0.86108  0.45932  0.20744  1.0000
  H   H371      1.0  0.13451  0.42409  0.23789  1.0000
  S   S41       1.0  0.20596  0.32822  0.21285  1.0000
  S   S42       1.0  0.19653  0.37731  0.22952  1.0000
  S   S43       1.0  0.92158  0.39883  0.09922  1.0000
  S   S44       1.0  0.84640  0.43218  0.12022  1.0000
  S   S45       1.0  0.98148  0.38407  0.15517  1.0000
  C   C211      1.0  0.97362  0.42456  0.00655  1.0000
  C   C212      1.0  0.80352  0.47048  0.18001  1.0000
  H   H372      1.0  0.96808  0.45566  0.01970  1.0000
  C   C213      1.0  0.11118  0.36853  0.16179  1.0000
  C   C214      1.0  0.08008  0.36635  0.18214  1.0000
  C   C215      1.0  0.04042  0.37109  0.17980  1.0000
  C   C216      1.0  0.03221  0.37865  0.15718  1.0000
  C   C217      1.0  0.06384  0.38136  0.13683  1.0000
  C   C218      1.0  0.10312  0.37621  0.13914  1.0000
  H   H373      1.0  0.08629  0.36083  0.19973  1.0000
  H   H374      1.0  0.01605  0.36888  0.19561  1.0000
  H   H375      1.0  0.05752  0.38698  0.11928  1.0000
  H   H376      1.0  0.12705  0.37797  0.12332  1.0000
  C   C219      1.0  0.87468  0.34844  0.02285  1.0000
  C   C220      1.0  0.92147  0.55310  0.20716  1.0000
  C   C221      1.0  0.77668  0.35744  0.07714  1.0000
  H   H377      1.0  0.36079  0.31871  0.21840  1.0000
  H   H378      1.0  0.92001  0.57084  0.20396  1.0000
  H   H379      1.0  0.96043  0.55923  0.21261  1.0000
  H   H380      1.0  0.79970  0.45136  0.18335  1.0000
  H   H381      1.0  0.17907  0.55675  0.21592  1.0000
  C   C222      1.0  0.86185  0.42594  0.04435  1.0000
  C   C223      1.0  0.80477  0.40814  0.14343  1.0000
  C   C224      1.0  0.75966  0.40674  0.15211  1.0000
  C   C225      1.0  0.72550  0.38745  0.17040  1.0000
  C   C226      1.0  0.73579  0.36906  0.17962  1.0000
  C   C227      1.0  0.78105  0.37053  0.17097  1.0000
  C   C228      1.0  0.81574  0.39017  0.15308  1.0000
  H   H382      1.0  0.69040  0.38628  0.17679  1.0000
  H   H383      1.0  0.78898  0.35621  0.17787  1.0000
  H   H384      1.0  0.85041  0.39105  0.14647  1.0000
  S   S46       1.0  0.06459  0.56699  0.19519  1.0000
  Fe  Fe19      1.0  0.03656  0.46819  0.10868  1.0000
  S   S47       1.0  0.97540  0.44238  0.13819  1.0000
  S   S48       1.0  0.10533  0.50761  0.11575  1.0000
  Fe  Fe20      1.0  0.98607  0.42805  0.07164  1.0000
  S   S49       1.0  0.99096  0.41602  0.03381  1.0000
  Fe  Fe21      1.0  0.91961  0.43312  0.11051  1.0000
  Fe  Fe22      1.0  0.98326  0.41048  0.12466  1.0000
  S   S50       1.0  0.98005  0.46179  0.08145  1.0000
  S   S51       1.0  0.04822  0.43683  0.09657  1.0000
  H   H385      1.0  0.75069  0.42035  0.14443  1.0000
  C   C229      1.0  0.08215  0.55106  0.17495  1.0000
  C   C230      1.0  0.05233  0.52373  0.17634  1.0000
  C   C231      1.0  0.05988  0.51029  0.15852  1.0000
  C   C232      1.0  0.09745  0.52405  0.13916  1.0000
  C   C233      1.0  0.12938  0.55134  0.13850  1.0000
  C   C234      1.0  0.12175  0.56485  0.15635  1.0000
  H   H386      1.0  0.02276  0.51294  0.19109  1.0000
  H   H387      1.0  0.03652  0.48929  0.15974  1.0000
  H   H388      1.0  0.15903  0.56213  0.12372  1.0000
  H   H389      1.0  0.14502  0.58595  0.15514  1.0000
  H   H390      1.0  0.29724  0.33158  0.19388  1.0000
  C   C235      1.0  0.44914  0.37203  0.22338  1.0000
  H   H391      1.0  0.86070  0.38764  0.02621  1.0000
  H   H392      1.0  0.76616  0.39979  0.22870  1.0000
  C   C236      1.0  0.75462  0.36676  0.03802  1.0000
  H   H393      1.0  0.72019  0.45122  0.18620  1.0000
  H   H394      1.0  0.23587  0.50615  0.18637  1.0000
  H   H395      1.0  0.86734  0.42356  0.19268  1.0000
  C   C237      1.0  0.90030  0.43942  0.20121  1.0000
  H   H396      1.0  0.11898  0.46012  0.23711  1.0000
  H   H397      1.0  0.42273  0.37705  0.18971  1.0000
  Fe  Fe23      1.0  0.12327  0.60553  0.20898  1.0000
  H   H398      1.0  0.94536  0.48535  0.12676  1.0000
  S   S52       1.0  0.50472  0.37437  0.20916  1.0000
  H   H399      1.0  0.18382  0.51961  0.23354  1.0000
  H   H400      1.0  0.87340  0.38123  0.05513  1.0000
  H   H401      1.0  0.78461  0.40603  0.06307  1.0000
  H   H402      1.0  0.85635  0.42374  0.02501  1.0000
  H   H403      1.0  0.19757  0.53723  0.15962  1.0000
  H   H404      1.0  0.09793  0.47155  0.16544  1.0000
  H   H405      1.0  0.84402  0.50392  0.15313  1.0000
  C   C238      1.0  0.28468  0.32544  0.15695  1.0000
  H   H406      1.0  0.90844  0.35723  0.03374  1.0000
  H   H407      1.0  0.92942  0.47853  0.20996  1.0000
  C   C239      1.0  0.82838  0.34688  0.03629  1.0000
  H   H408      1.0  0.83396  0.45217  0.04573  1.0000
  H   H409      1.0  0.03442  0.41858  0.19580  1.0000
  H   H410      1.0  0.06002  0.45068  0.20611  1.0000
  H   H411      1.0  0.16179  0.45174  0.08305  1.0000
  H   H412      1.0  0.75351  0.37880  0.10028  1.0000
  H   H413      1.0  0.34514  0.37478  0.20862  1.0000
  N   N13       1.0  0.90205  0.49799  0.16687  1.0000
  C   C240      1.0  0.91480  0.51466  0.18780  1.0000
  C   C241      1.0  0.93940  0.51516  0.14548  1.0000
  H   H414      1.0  0.25296  0.41427  0.17863  1.0000
  H   H415      1.0  0.75209  0.48333  0.17044  1.0000
  C   C242      1.0  0.91137  0.53911  0.18415  1.0000
  C   C243      1.0  0.76915  0.38125  0.01247  1.0000
  H   H416      1.0  0.89746  0.43297  0.22048  1.0000
  H   H417      1.0  0.95487  0.52165  0.19227  1.0000
  H   H418      1.0  0.88980  0.50325  0.20443  1.0000
  H   H419      1.0  0.22300  0.45501  0.07612  1.0000
  H   H420      1.0  0.97975  0.52589  0.15076  1.0000
  H   H421      1.0  0.93185  0.53038  0.13933  1.0000
  C   C244      1.0  0.90977  0.47574  0.17250  1.0000
  H   H422      1.0  0.02004  0.52812  0.10988  1.0000
  C   C245      1.0  0.41481  0.37407  0.20912  1.0000
  H   H423      1.0  0.94097  0.55340  0.16985  1.0000
  H   H424      1.0  0.87254  0.53377  0.17934  1.0000
  H   H425      1.0  0.06963  0.44042  0.15341  1.0000
  H   H426      1.0  0.83274  0.40553  0.07890  1.0000
  H   H427      1.0  0.01072  0.43841  0.18555  1.0000
  H   H428      1.0  0.75741  0.33675  0.07299  1.0000
  H   H429      1.0  0.87559  0.45539  0.06893  1.0000
  H   H430      1.0  0.23309  0.54574  0.18590  1.0000
  C   C246      1.0  0.81714  0.40291  0.06097  1.0000
  H   H431      1.0  0.80976  0.47985  0.19708  1.0000
  H   H432      1.0  0.88621  0.45943  0.16135  1.0000
  H   H433      1.0  0.74359  0.45609  0.15492  1.0000
  C   C247      1.0  0.83235  0.35670  0.23683  1.0000
  H   H434      1.0  0.72377  0.36902  0.04640  1.0000
  S   S53       1.0  0.09127  0.31886  0.22465  1.0000
  H   H435      1.0  0.17191  0.42649  0.09422  1.0000
  H   H436      1.0  0.81499  0.36064  0.22140  1.0000
  C   C248      1.0  0.93877  0.50131  0.12270  1.0000
  C   C249      1.0  0.96281  0.44413  0.00472  1.0000
  C   C250      1.0  0.98129  0.52060  0.10340  1.0000
  H   H437      1.0  0.26866  0.44175  0.19535  1.0000
  H   H438      1.0  0.93705  0.44310  0.19233  1.0000
  H   H439      1.0  0.87940  0.35909  0.19193  1.0000
  C   C251      1.0  0.37055  0.37256  0.21978  1.0000
  H   H440      1.0  0.34618  0.32991  0.17700  1.0000
  H   H441      1.0  0.70205  0.35436  0.08464  1.0000
  S   S54       1.0  0.54691  0.32446  0.21902  1.0000
  H   H442      1.0  0.97883  0.51068  0.08689  1.0000
  C   C252      1.0  0.71839  0.33980  0.11639  1.0000
  H   H443      1.0  0.95042  0.48196  0.16731  1.0000
  H   H444      1.0  0.69742  0.31941  0.11138  1.0000
  S   S55       1.0  0.20534  0.61893  0.21492  1.0000
  H   H445      1.0  0.90130  0.49303  0.11477  1.0000
  H   H446      1.0  0.90264  0.46808  0.03830  1.0000
  C   C253      1.0  0.84793  0.48767  0.16010  1.0000
  H   H447      1.0  0.24053  0.45846  0.11854  1.0000
  H   H448      1.0  0.73525  0.34550  0.03616  1.0000
  C   C254      1.0  0.75181  0.46500  0.17233  1.0000
  H   H449      1.0  0.83972  0.47534  0.14480  1.0000
  H   H450      1.0  0.26359  0.54534  0.15763  1.0000
  H   H451      1.0  0.30531  0.34672  0.15158  1.0000
  N   N14       1.0  0.18064  0.46381  0.15672  1.0000
  C   C255      1.0  0.16579  0.45194  0.13310  1.0000
  C   C256      1.0  0.13403  0.44927  0.17492  1.0000
  C   C257      1.0  0.19904  0.49230  0.15273  1.0000
  C   C258      1.0  0.22360  0.46168  0.16610  1.0000
  C   C259      1.0  0.21398  0.43385  0.16848  1.0000
  C   C260      1.0  0.21047  0.46194  0.11291  1.0000
  C   C261      1.0  0.20699  0.50683  0.17577  1.0000
  C   C262      1.0  0.08713  0.45113  0.16929  1.0000
  C   C263      1.0  0.04564  0.43892  0.19057  1.0000
  C   C264      1.0  0.26081  0.43437  0.17725  1.0000
  C   C265      1.0  0.19039  0.44788  0.09023  1.0000
  C   C266      1.0  0.22651  0.53551  0.16926  1.0000
  H   H452      1.0  0.13714  0.45559  0.12560  1.0000
  H   H453      1.0  0.14570  0.43041  0.13588  1.0000
  H   H454      1.0  0.11914  0.42806  0.17644  1.0000
  H   H455      1.0  0.14477  0.45548  0.19325  1.0000
  H   H456      1.0  0.17226  0.49496  0.14204  1.0000
  H   H457      1.0  0.23663  0.50317  0.14140  1.0000
  H   H458      1.0  0.26058  0.47477  0.15470  1.0000
  H   H459      1.0  0.23127  0.46874  0.18435  1.0000
  H   H460      1.0  0.20654  0.42514  0.15100  1.0000
  H   H461      1.0  0.18051  0.42066  0.18174  1.0000
  H   H462      1.0  0.22876  0.48312  0.10792  1.0000
  H   H463      1.0  0.88540  0.36033  0.00531  1.0000
  C   C267      1.0  0.14375  0.53702  0.22046  1.0000
  H   H464      1.0  0.29218  0.31598  0.14217  1.0000
  H   H465      1.0  0.75172  0.34344  0.12633  1.0000
  H   H466      1.0  0.08645  0.48607  0.23258  1.0000
  H   H467      1.0  0.24259  0.31760  0.15955  1.0000
  Fe  Fe24      1.0  0.63213  0.34649  0.22324  1.0000
  N   N15       1.0  0.79789  0.37561  0.05419  1.0000
  H   H468      1.0  0.81727  0.33341  0.05280  1.0000
  H   H469      1.0  0.80895  0.36112  0.08810  1.0000
  H   H470      1.0  0.13447  0.52638  0.20400  1.0000
  H   H471      1.0  0.92736  0.36917  0.21344  1.0000
  C   C268      1.0  0.84202  0.37420  0.04285  1.0000
  H   H472      1.0  0.69184  0.34221  0.12866  1.0000
  H   H473      1.0  0.89825  0.42703  0.04766  1.0000
  H   H474      1.0  0.77837  0.40142  0.01368  1.0000
  H   H475      1.0  0.89174  0.54018  0.22205  1.0000
  H   H476      1.0  0.11141  0.53941  0.22608  1.0000
  C   C269      1.0  0.30381  0.32089  0.18030  1.0000
  C   C270      1.0  0.15283  0.52233  0.24062  1.0000
  H   H477      1.0  0.19988  0.45018  0.24216  1.0000
  S   S56       1.0  0.63862  0.38426  0.22939  1.0000
  H   H478      1.0  0.73734  0.31652  0.22461  1.0000
  Fe  Fe25      1.0  0.55176  0.36128  0.22849  1.0000
  C   C271      1.0  0.72398  0.36786  0.99685  1.0000
  H   H479      1.0  0.71385  0.34772  0.99428  1.0000
  H   H480      1.0  0.27859  0.31280  0.22915  1.0000
  H   H481      1.0  0.74472  0.35586  0.24211  1.0000
  H   H482      1.0  0.80233  0.38189  0.00285  1.0000
  H   H483      1.0  0.86314  0.33117  0.24220  1.0000
  H   H484      1.0  0.81622  0.32101  0.22079  1.0000
  H   H485      1.0  0.68959  0.36713  0.00523  1.0000
  H   H486      1.0  0.86796  0.37579  0.23892  1.0000
  S   S57       1.0  0.53729  0.35023  0.26807  1.0000
  C   C272      1.0  0.96493  0.41741  0.26942  1.0000
  Fe  Fe26      1.0  0.62293  0.36926  0.26861  1.0000
  S   S58       1.0  0.66778  0.39472  0.29780  1.0000
  C   C273      1.0  0.75793  0.31822  0.26223  1.0000
  Fe  Fe27      1.0  0.97678  0.46306  0.34680  1.0000
  S   S59       1.0  0.96000  0.42518  0.33432  1.0000
  Fe  Fe28      1.0  0.95851  0.44330  0.40033  1.0000
  S   S60       1.0  0.94027  0.40367  0.39164  1.0000
  S   S61       1.0  0.95174  0.45683  0.43710  1.0000
  Fe  Fe29      1.0  0.00798  0.42576  0.36338  1.0000
  S   S62       1.0  0.07135  0.41779  0.35626  1.0000
  Fe  Fe30      1.0  0.89393  0.40669  0.36303  1.0000
  S   S63       1.0  0.81592  0.37254  0.35521  1.0000
  S   S64       1.0  0.02995  0.46543  0.37401  1.0000
  S   S65       1.0  0.90700  0.44459  0.37353  1.0000
  C   C274      1.0  0.95008  0.44384  0.46668  1.0000
  C   C275      1.0  0.96085  0.42444  0.47088  1.0000
  C   C276      1.0  0.50741  0.31643  0.33204  1.0000
  H   H487      1.0  0.60173  0.41149  0.35343  1.0000
  H   H488      1.0  0.97061  0.41687  0.45580  1.0000
  H   H489      1.0  0.72912  0.39305  0.25732  1.0000
  C   C277      1.0  0.06965  0.37419  0.29137  1.0000
  C   C278      1.0  0.11265  0.38580  0.30471  1.0000
  C   C279      1.0  0.11313  0.39944  0.32445  1.0000
  C   C280      1.0  0.07095  0.40173  0.33075  1.0000
  C   C281      1.0  0.02864  0.39062  0.31701  1.0000
  C   C282      1.0  0.02791  0.37682  0.29747  1.0000
  H   H490      1.0  0.14508  0.38395  0.30005  1.0000
  H   H491      1.0  0.14609  0.40809  0.33499  1.0000
  H   H492      1.0  0.99576  0.39194  0.32193  1.0000
  H   H493      1.0  0.99449  0.36777  0.28724  1.0000
  H   H494      1.0  0.46524  0.36742  0.25971  1.0000
  C   C283      1.0  0.71028  0.38846  0.31243  1.0000
  C   C284      1.0  0.69950  0.36310  0.31652  1.0000
  C   C285      1.0  0.73232  0.35845  0.32951  1.0000
  C   C286      1.0  0.77678  0.37918  0.33805  1.0000
  C   C287      1.0  0.78811  0.40460  0.33354  1.0000
  C   C288      1.0  0.75457  0.40915  0.32109  1.0000
  H   H495      1.0  0.66526  0.34700  0.31016  1.0000
  H   H496      1.0  0.72302  0.33870  0.33309  1.0000
  H   H497      1.0  0.82222  0.42075  0.34000  1.0000
  H   H498      1.0  0.76313  0.42883  0.31804  1.0000
  S   S66       1.0  0.19634  0.59876  0.28523  1.0000
  S   S67       1.0  0.98779  0.49179  0.31651  1.0000
  C   C289      1.0  0.14220  0.56711  0.29332  1.0000
  C   C290      1.0  0.13417  0.55468  0.31647  1.0000
  C   C291      1.0  0.08771  0.53071  0.32364  1.0000
  C   C292      1.0  0.04918  0.51951  0.30772  1.0000
  C   C293      1.0  0.05818  0.53154  0.28444  1.0000
  C   C294      1.0  0.10503  0.55483  0.27710  1.0000
  H   H499      1.0  0.16307  0.56398  0.32908  1.0000
  H   H500      1.0  0.08092  0.52150  0.34169  1.0000
  H   H501      1.0  0.02867  0.52291  0.27201  1.0000
  H   H502      1.0  0.11207  0.56346  0.25888  1.0000
  C   C295      1.0  0.82486  0.35521  0.28189  1.0000
  H   H503      1.0  0.85125  0.42716  0.41958  1.0000
  H   H504      1.0  0.85279  0.46859  0.45544  1.0000
  S   S68       1.0  0.10001  0.60360  0.24797  1.0000
  H   H505      1.0  0.16742  0.42067  0.26210  1.0000
  H   H506      1.0  0.80220  0.39527  0.27825  1.0000
  H   H507      1.0  0.03631  0.57337  0.37658  1.0000
  H   H508      1.0  0.76911  0.35685  0.43103  1.0000
  H   H509      1.0  0.07387  0.50041  0.25663  1.0000
  C   C296      1.0  0.14023  0.44656  0.26828  1.0000
  H   H510      1.0  0.94939  0.54118  0.30493  1.0000
  H   H511      1.0  0.51741  0.31983  0.31221  1.0000
  S   S69       1.0  0.30788  0.36958  0.25911  1.0000
  H   H512      1.0  0.54660  0.34079  0.38219  1.0000
  H   H513      1.0  0.94136  0.40534  0.25538  1.0000
  C   C297      1.0  0.12042  0.33169  0.34263  1.0000
  H   H514      1.0  0.95787  0.58467  0.33496  1.0000
  H   H515      1.0  0.85476  0.39622  0.46040  1.0000
  H   H516      1.0  0.10566  0.59311  0.32215  1.0000
  H   H517      1.0  0.16719  0.45527  0.28243  1.0000
  C   C298      1.0  0.47270  0.32891  0.36645  1.0000
  H   H518      1.0  0.34830  0.31735  0.32104  1.0000
  N   N16       1.0  0.49366  0.33547  0.34021  1.0000
  C   C299      1.0  0.55204  0.31650  0.34377  1.0000
  H   H519      1.0  0.78150  0.40022  0.39444  1.0000
  C   C300      1.0  0.94748  0.32925  0.36184  1.0000
  H   H520      1.0  0.90561  0.32127  0.36584  1.0000
  C   C301      1.0  0.81976  0.42232  0.43364  1.0000
  H   H521      1.0  0.46795  0.34111  0.30623  1.0000
  H   H522      1.0  0.70505  0.38866  0.44975  1.0000
  H   H523      1.0  0.82796  0.38404  0.41701  1.0000
  C   C302      1.0  0.58086  0.41148  0.33776  1.0000
  H   H524      1.0  0.96896  0.40467  0.28284  1.0000
  H   H525      1.0  0.55790  0.36563  0.31619  1.0000
  N   N17       1.0  0.77641  0.39417  0.43345  1.0000
  S   S70       1.0  0.16280  0.32790  0.26842  1.0000
  C   C303      1.0  0.85249  0.36178  0.45209  1.0000
  H   H526      1.0  0.00976  0.61513  0.32189  1.0000
  H   H527      1.0  0.79577  0.36591  0.47130  1.0000
  H   H528      1.0  0.86943  0.36079  0.46893  1.0000
  C   C304      1.0  0.70976  0.36344  0.40487  1.0000
  H   H529      1.0  0.82477  0.34160  0.44759  1.0000
  H   H530      1.0  0.79004  0.42356  0.25062  1.0000
  C   C305      1.0  0.01313  0.32031  0.34314  1.0000
  C   C306      1.0  0.82537  0.37648  0.45576  1.0000
  C   C307      1.0  0.48779  0.32993  0.41091  1.0000
  C   C308      1.0  0.76872  0.40238  0.24827  1.0000
  H   H531      1.0  0.09094  0.33355  0.30881  1.0000
  C   C309      1.0  0.43883  0.36859  0.24849  1.0000
  H   H532      1.0  0.18458  0.33040  0.32559  1.0000
  H   H533      1.0  0.42366  0.31962  0.24663  1.0000
  Fe  Fe31      1.0  0.12475  0.34741  0.25265  1.0000
  C   C310      1.0  0.98316  0.62343  0.36509  1.0000
  H   H534      1.0  0.05028  0.62120  0.36301  1.0000
  H   H535      1.0  0.78825  0.39786  0.48400  1.0000
  H   H536      1.0  0.57248  0.42704  0.33904  1.0000
  H   H537      1.0  0.51072  0.38652  0.32181  1.0000
  H   H538      1.0  0.60615  0.41603  0.32088  1.0000
  C   C311      1.0  0.79927  0.37750  0.43308  1.0000
  H   H539      1.0  0.57185  0.36644  0.34626  1.0000
  H   H540      1.0  0.98692  0.55019  0.26217  1.0000
  N   N18       1.0  0.10675  0.47793  0.26720  1.0000
  C   C312      1.0  0.05254  0.45635  0.27662  1.0000
  C   C313      1.0  0.13568  0.49355  0.28757  1.0000
  S   S71       1.0  0.62088  0.33276  0.26260  1.0000
  H   H541      1.0  0.50529  0.38143  0.35412  1.0000
  H   H542      1.0  0.99074  0.59121  0.37437  1.0000
  H   H543      1.0  0.83853  0.42590  0.45070  1.0000
  H   H544      1.0  0.58800  0.33615  0.34189  1.0000
  C   C314      1.0  0.12392  0.47848  0.31278  1.0000
  C   C315      1.0  0.16227  0.49550  0.33030  1.0000
  C   C316      1.0  0.08625  0.60312  0.32857  1.0000
  H   H545      1.0  0.90639  0.34369  0.31426  1.0000
  H   H546      1.0  0.03235  0.46483  0.28578  1.0000
  H   H547      1.0  0.05266  0.44292  0.29076  1.0000
  H   H548      1.0  0.73278  0.40299  0.40989  1.0000
  H   H549      1.0  0.12663  0.50869  0.29070  1.0000
  H   H550      1.0  0.28418  0.64436  0.25748  1.0000
  H   H551      1.0  0.11361  0.62827  0.29445  1.0000
  H   H552      1.0  0.38796  0.36533  0.27857  1.0000
  H   H553      1.0  0.09554  0.60660  0.34748  1.0000
  H   H554      1.0  0.85065  0.37676  0.28145  1.0000
  H   H555      1.0  0.03547  0.42946  0.24842  1.0000
  H   H556      1.0  0.88438  0.37213  0.43746  1.0000
  C   C317      1.0  0.00027  0.59845  0.33506  1.0000
  C   C318      1.0  0.76524  0.36018  0.25870  1.0000
  C   C319      1.0  0.80495  0.44279  0.42911  1.0000
  H   H557      1.0  0.08469  0.47248  0.32061  1.0000
  H   H558      1.0  0.12508  0.46069  0.31200  1.0000
  H   H559      1.0  0.15164  0.48435  0.34828  1.0000
  H   H560      1.0  0.20205  0.50116  0.32391  1.0000
  H   H561      1.0  0.16141  0.51333  0.33228  1.0000
  H   H562      1.0  0.92140  0.54244  0.26485  1.0000
  C   C320      1.0  0.53035  0.38507  0.33746  1.0000
  C   C321      1.0  0.54046  0.36286  0.33495  1.0000
  H   H563      1.0  0.03147  0.32604  0.36035  1.0000
  C   C322      1.0  0.02031  0.58094  0.30087  1.0000
  C   C323      1.0  0.73573  0.38511  0.45448  1.0000
  C   C324      1.0  0.86008  0.34474  0.28659  1.0000
  C   C325      1.0  0.01783  0.43899  0.25763  1.0000
  N   N19       1.0  0.79593  0.34738  0.25960  1.0000
  S   S72       1.0  0.06402  0.35456  0.26815  1.0000
  H   H564      1.0  0.89922  0.37123  0.31415  1.0000
  H   H565      1.0  0.17818  0.50453  0.28259  1.0000
  C   C326      1.0  0.87907  0.35009  0.31173  1.0000
  H   H566      1.0  0.51654  0.34018  0.42408  1.0000
  H   H567      1.0  0.11390  0.31748  0.35779  1.0000
  H   H568      1.0  0.71534  0.36358  0.45849  1.0000
  H   H569      1.0  0.16715  0.53504  0.25564  1.0000
  N   N20       1.0  0.02866  0.58573  0.32703  1.0000
  C   C327      1.0  0.79663  0.39031  0.25927  1.0000
  C   C328      1.0  0.00713  0.55957  0.34126  1.0000
  C   C329      1.0  0.96170  0.55712  0.26838  1.0000
  C   C330      1.0  0.03304  0.55900  0.36426  1.0000
  C   C331      1.0  0.00263  0.53196  0.37817  1.0000
  H   H570      1.0  0.68522  0.35142  0.42142  1.0000
  H   H571      1.0  0.79692  0.34924  0.29814  1.0000
  H   H572      1.0  0.96490  0.55001  0.34628  1.0000
  H   H573      1.0  0.01054  0.54595  0.32986  1.0000
  H   H574      1.0  0.01108  0.45053  0.24403  1.0000
  H   H575      1.0  0.96323  0.52683  0.38465  1.0000
  H   H576      1.0  0.07259  0.56345  0.35915  1.0000
  H   H577      1.0  0.73424  0.35180  0.27389  1.0000
  C   C332      1.0  0.16187  0.43478  0.25149  1.0000
  H   H578      1.0  0.99938  0.51690  0.36658  1.0000
  H   H579      1.0  0.02286  0.53176  0.39405  1.0000
  C   C333      1.0  0.93748  0.45342  0.48656  1.0000
  H   H580      1.0  0.02957  0.33880  0.33141  1.0000
  C   C334      1.0  0.84674  0.46958  0.43604  1.0000
  C   C335      1.0  0.67419  0.36341  0.38662  1.0000
  C   C336      1.0  0.13596  0.46779  0.25422  1.0000
  H   H581      1.0  0.84606  0.33921  0.32582  1.0000
  Fe  Fe32      1.0  0.53613  0.31445  0.25908  1.0000
  H   H582      1.0  0.45410  0.33165  0.41529  1.0000
  H   H583      1.0  0.00065  0.64107  0.35207  1.0000
  H   H584      1.0  0.89473  0.35481  0.27334  1.0000
  H   H585      1.0  0.10229  0.43033  0.27666  1.0000
  C   C337      1.0  0.00873  0.60810  0.36054  1.0000
  H   H586      1.0  0.80071  0.44506  0.40962  1.0000
  H   H587      1.0  0.04539  0.57434  0.29352  1.0000
  H   H588      1.0  0.69713  0.37654  0.37023  1.0000
  C   C338      1.0  0.96418  0.56062  0.29533  1.0000
  H   H589      1.0  0.93768  0.56706  0.30053  1.0000
  H   H590      1.0  0.43772  0.34545  0.33173  1.0000
  H   H591      1.0  0.98893  0.62979  0.38361  1.0000
  H   H592      1.0  0.03186  0.59933  0.28990  1.0000
  C   C339      1.0  0.75153  0.39161  0.41017  1.0000
  C   C340      1.0  0.39497  0.36742  0.25915  1.0000
  H   H593      1.0  0.37744  0.31588  0.29259  1.0000
  H   H594      1.0  0.19138  0.63744  0.31442  1.0000
  H   H595      1.0  0.72887  0.35385  0.39712  1.0000
  H   H596      1.0  0.96470  0.34777  0.35017  1.0000
  C   C341      1.0  0.11389  0.63030  0.31408  1.0000
  C   C342      1.0  0.51236  0.34214  0.38538  1.0000
  H   H597      1.0  0.17639  0.48395  0.24858  1.0000
  H   H598      1.0  0.97418  0.57586  0.25785  1.0000
  H   H599      1.0  0.25076  0.31320  0.27188  1.0000
  H   H600      1.0  0.94096  0.61112  0.36335  1.0000
  H   H601      1.0  0.94465  0.42582  0.27840  1.0000
  H   H602      1.0  0.76783  0.43679  0.43938  1.0000
  C   C343      1.0  0.17669  0.34498  0.33220  1.0000
  H   H603      1.0  0.92905  0.46842  0.48355  1.0000
  H   H604      1.0  0.64867  0.34338  0.38119  1.0000
  Fe  Fe33      1.0  0.18198  0.61852  0.25387  1.0000
  H   H605      1.0  0.52645  0.36318  0.38487  1.0000
  C   C344      1.0  0.45200  0.33322  0.32518  1.0000
  H   H606      1.0  0.88383  0.47677  0.42505  1.0000
  H   H607      1.0  0.20286  0.35506  0.34636  1.0000
  H   H608      1.0  0.83496  0.48373  0.43269  1.0000
  H   H609      1.0  0.64971  0.37000  0.39464  1.0000
  H   H610      1.0  0.44361  0.33426  0.36996  1.0000
  H   H611      1.0  0.18553  0.35973  0.31704  1.0000
  C   C345      1.0  0.08290  0.31807  0.32307  1.0000
  H   H612      1.0  0.11570  0.34711  0.34970  1.0000
  C   C346      1.0  0.75413  0.39780  0.47850  1.0000
  H   H613      1.0  0.76495  0.41839  0.47670  1.0000
  H   H614      1.0  0.83984  0.32342  0.28553  1.0000
  H   H615      1.0  0.09527  0.64112  0.31862  1.0000
  C   C347      1.0  0.36060  0.36937  0.24487  1.0000
  H   H616      1.0  0.83518  0.39966  0.24922  1.0000
  C   C348      1.0  0.10217  0.49584  0.24915  1.0000
  H   H617      1.0  0.96586  0.33345  0.37907  1.0000
  H   H618      1.0  0.73494  0.31205  0.28014  1.0000
  H   H619      1.0  0.68808  0.31177  0.24688  1.0000
  H   H620      1.0  0.31876  0.63107  0.24409  1.0000
  Fe  Fe34      1.0  0.23209  0.35502  0.24243  1.0000
  Fe  Fe35      1.0  0.93533  0.42566  0.58045  1.0000
  S   S73       1.0  0.95206  0.46552  0.58716  1.0000
  S   S74       1.0  0.94844  0.41284  0.54428  1.0000
  Fe  Fe36      1.0  0.91285  0.40715  0.63473  1.0000
  S   S75       1.0  0.92878  0.44577  0.64498  1.0000
  S   S76       1.0  0.89416  0.38050  0.66854  1.0000
  Fe  Fe37      1.0  0.88288  0.44408  0.61469  1.0000
  S   S77       1.0  0.81811  0.45075  0.62230  1.0000
  Fe  Fe38      1.0  0.99627  0.46344  0.61722  1.0000
  S   S78       1.0  0.07304  0.49804  0.62520  1.0000
  S   S79       1.0  0.86211  0.40404  0.60585  1.0000
  S   S80       1.0  0.98423  0.42508  0.60911  1.0000
  Fe  Fe39      1.0  0.28090  0.50492  0.70144  1.0000
  S   S81       1.0  0.22794  0.47652  0.67604  1.0000
  H   H621      1.0  0.92107  0.52831  0.66624  1.0000
  H   H622      1.0  0.26628  0.48285  0.51939  1.0000
  S   S82       1.0  0.84895  0.54016  0.68697  1.0000
  C   C349      1.0  0.23684  0.48347  0.50911  1.0000
  H   H623      1.0  0.92604  0.48637  0.72192  1.0000
  H   H624      1.0  0.09833  0.39710  0.60348  1.0000
  H   H625      1.0  0.83836  0.58477  0.67419  1.0000
  H   H626      1.0  0.48991  0.55267  0.71079  1.0000
  C   C350      1.0  0.76872  0.58525  0.64788  1.0000
  C   C351      1.0  0.21572  0.49630  0.59037  1.0000
  H   H627      1.0  0.23975  0.49130  0.57936  1.0000
  C   C352      1.0  0.82764  0.47530  0.64094  1.0000
  C   C353      1.0  0.87669  0.49381  0.64753  1.0000
  C   C354      1.0  0.88296  0.51366  0.66170  1.0000
  C   C355      1.0  0.84009  0.51465  0.66992  1.0000
  C   C356      1.0  0.79101  0.49577  0.66381  1.0000
  C   C357      1.0  0.78499  0.47646  0.64905  1.0000
  H   H628      1.0  0.90988  0.49323  0.64117  1.0000
  H   H629      1.0  0.75781  0.49651  0.66981  1.0000
  H   H630      1.0  0.74704  0.46233  0.64389  1.0000
  H   H631      1.0  0.75420  0.58823  0.63098  1.0000
  C   C358      1.0  0.11377  0.49174  0.64117  1.0000
  C   C359      1.0  0.15998  0.51264  0.64815  1.0000
  C   C360      1.0  0.19487  0.50817  0.65936  1.0000
  C   C361      1.0  0.18380  0.48276  0.66345  1.0000
  C   C362      1.0  0.13722  0.46185  0.65676  1.0000
  C   C363      1.0  0.10194  0.46630  0.64599  1.0000
  H   H632      1.0  0.16943  0.53240  0.64442  1.0000
  H   H633      1.0  0.23107  0.52445  0.66408  1.0000
  H   H634      1.0  0.12865  0.44221  0.65987  1.0000
  H   H635      1.0  0.06615  0.45012  0.64094  1.0000
  C   C364      1.0  0.94760  0.42482  0.51462  1.0000
  C   C365      1.0  0.93599  0.44391  0.51038  1.0000
  C   C366      1.0  0.50347  0.50238  0.70650  1.0000
  H   H636      1.0  0.92639  0.45155  0.52546  1.0000
  S   S83       1.0  0.36733  0.52473  0.69960  1.0000
  Fe  Fe40      1.0  0.77948  0.53186  0.71119  1.0000
  H   H637      1.0  0.14796  0.46308  0.71664  1.0000
  C   C367      1.0  0.88935  0.48570  0.72448  1.0000
  H   H638      1.0  0.87766  0.34473  0.70736  1.0000
  C   C368      1.0  0.96906  0.60649  0.62669  1.0000
  C   C369      1.0  0.47489  0.62398  0.70692  1.0000
  S   S84       1.0  0.73765  0.55289  0.70972  1.0000
  H   H639      1.0  0.77656  0.40930  0.71702  1.0000
  H   H640      1.0  0.89400  0.58634  0.64597  1.0000
  H   H641      1.0  0.04564  0.40899  0.70300  1.0000
  C   C370      1.0  0.77648  0.62275  0.72643  1.0000
  S   S85       1.0  0.28216  0.54098  0.70899  1.0000
  C   C371      1.0  0.01417  0.39068  0.69675  1.0000
  H   H642      1.0  0.15163  0.44531  0.59155  1.0000
  C   C372      1.0  0.06454  0.39728  0.59755  1.0000
  C   C373      1.0  0.87777  0.34803  0.66889  1.0000
  H   H643      1.0  0.99079  0.32017  0.72147  1.0000
  H   H644      1.0  0.75476  0.33882  0.67386  1.0000
  C   C374      1.0  0.72410  0.36244  0.68287  1.0000
  H   H645      1.0  0.22858  0.53100  0.60658  1.0000
  N   N21       1.0  0.08497  0.51889  0.72521  1.0000
  H   H646      1.0  0.88815  0.63281  0.72531  1.0000
  C   C375      1.0  0.60333  0.61251  0.70358  1.0000
  H   H647      1.0  0.73619  0.36742  0.70120  1.0000
  C   C376      1.0  0.58360  0.57056  0.72413  1.0000
  C   C377      1.0  0.12585  0.49141  0.71838  1.0000
  H   H648      1.0  0.70025  0.33272  0.73018  1.0000
  C   C378      1.0  0.53475  0.56832  0.67643  1.0000
  N   N22       1.0  0.99206  0.36351  0.73879  1.0000
  H   H649      1.0  0.82090  0.44029  0.70192  1.0000
  H   H650      1.0  0.24316  0.57598  0.71871  1.0000
  H   H651      1.0  0.76976  0.40317  0.66829  1.0000
  H   H652      1.0  0.76624  0.60579  0.71710  1.0000
  C   C379      1.0  0.70760  0.31911  0.72082  1.0000
  C   C380      1.0  0.76558  0.38437  0.66479  1.0000
  H   H653      1.0  0.62851  0.60912  0.69128  1.0000
  H   H654      1.0  0.58482  0.61992  0.69174  1.0000
  H   H655      1.0  0.73082  0.43070  0.73752  1.0000
  H   H656      1.0  0.69761  0.33058  0.66036  1.0000
  C   C381      1.0  0.51901  0.57240  0.70200  1.0000
  H   H657      1.0  0.06509  0.39162  0.66737  1.0000
  H   H658      1.0  0.82062  0.62595  0.65058  1.0000
  H   H659      1.0  0.03072  0.40710  0.65961  1.0000
  C   C382      1.0  0.87146  0.33478  0.69126  1.0000
  C   C383      1.0  0.71133  0.38355  0.49914  1.0000
  H   H660      1.0  0.66416  0.59703  0.73074  1.0000
  Fe  Fe41      1.0  0.35571  0.51295  0.73922  1.0000
  H   H661      1.0  0.76846  0.56694  0.64748  1.0000
  H   H662      1.0  0.84514  0.59839  0.72341  1.0000
  C   C384      1.0  0.12051  0.46599  0.72760  1.0000
  C   C385      1.0  0.93385  0.60185  0.64927  1.0000
  H   H663      1.0  0.92997  0.63499  0.63816  1.0000
  H   H664      1.0  0.09405  0.41019  0.73040  1.0000
  C   C386      1.0  0.97601  0.31702  0.74069  1.0000
  H   H665      1.0  0.03623  0.37775  0.59183  1.0000
  H   H666      1.0  0.50037  0.55222  0.64357  1.0000
  H   H667      1.0  0.78906  0.34980  0.70906  1.0000
  H   H668      1.0  0.90862  0.45350  0.70135  1.0000
  H   H669      1.0  0.04585  0.40094  0.61305  1.0000
  H   H670      1.0  0.27159  0.53766  0.58008  1.0000
  H   H671      1.0  0.91796  0.32721  0.73888  1.0000
  S   S86       1.0  0.42856  0.59879  0.69083  1.0000
  C   C387      1.0  0.90314  0.51290  0.73012  1.0000
  C   C388      1.0  0.63871  0.63580  0.71807  1.0000
  H   H672      1.0  0.84741  0.61062  0.63343  1.0000
  H   H673      1.0  0.77540  0.31709  0.71243  1.0000
  Fe  Fe42      1.0  0.36771  0.55985  0.71075  1.0000
  H   H674      1.0  0.95774  0.62905  0.69992  1.0000
  H   H675      1.0  0.96647  0.58802  0.62321  1.0000
  H   H676      1.0  0.95800  0.43356  0.69163  1.0000
  H   H677      1.0  0.25724  0.49972  0.49459  1.0000
  H   H678      1.0  0.16677  0.50719  0.71928  1.0000
  C   C389      1.0  0.86922  0.33492  0.64803  1.0000
  H   H679      1.0  0.87419  0.34505  0.63063  1.0000
  H   H680      1.0  0.20092  0.48349  0.60754  1.0000
  C   C390      1.0  0.25111  0.52433  0.59669  1.0000
  H   H681      1.0  0.80357  0.38656  0.66635  1.0000
  H   H682      1.0  0.94653  0.59449  0.66421  1.0000
  N   N23       1.0  0.13900  0.46818  0.56497  1.0000
  C   C391      1.0  0.16995  0.49315  0.57694  1.0000
  C   C392      1.0  0.09282  0.46668  0.55471  1.0000
  C   C393      1.0  0.11909  0.44581  0.58426  1.0000
  C   C394      1.0  0.17140  0.46519  0.54573  1.0000
  C   C395      1.0  0.93987  0.43020  0.71029  1.0000
  H   H683      1.0  0.56218  0.58723  0.66583  1.0000
  C   C396      1.0  0.08138  0.41807  0.57649  1.0000
  C   C397      1.0  0.09961  0.49273  0.54472  1.0000
  C   C398      1.0  0.05513  0.48783  0.53004  1.0000
  H   H684      1.0  0.01769  0.47574  0.54121  1.0000
  H   H685      1.0  0.75494  0.38034  0.64605  1.0000
  H   H686      1.0  0.14404  0.49487  0.59038  1.0000
  H   H687      1.0  0.18555  0.51055  0.56391  1.0000
  H   H688      1.0  0.07853  0.45286  0.54042  1.0000
  H   H689      1.0  0.05963  0.45835  0.56880  1.0000
  H   H690      1.0  0.09904  0.44870  0.59982  1.0000
  H   H691      1.0  0.19933  0.46145  0.55398  1.0000
  H   H692      1.0  0.14665  0.44761  0.53618  1.0000
  H   H693      1.0  0.22633  0.50684  0.53314  1.0000
  H   H694      1.0  0.74201  0.58316  0.66331  1.0000
  H   H695      1.0  0.09998  0.41335  0.56183  1.0000
  H   H696      1.0  0.04606  0.41625  0.57010  1.0000
  H   H697      1.0  0.09983  0.50386  0.56000  1.0000
  H   H698      1.0  0.13600  0.50532  0.53310  1.0000
  H   H699      1.0  0.77549  0.45984  0.71838  1.0000
  H   H700      1.0  0.05442  0.47763  0.51393  1.0000
  H   H701      1.0  0.43264  0.50202  0.70762  1.0000
  H   H702      1.0  0.17413  0.48897  0.51425  1.0000
  H   H703      1.0  0.46705  0.56402  0.66093  1.0000
  H   H704      1.0  0.74382  0.43362  0.68227  1.0000
  N   N24       1.0  0.68390  0.31355  0.69702  1.0000
  H   H705      1.0  0.65646  0.63075  0.73225  1.0000
  H   H706      1.0  0.93057  0.37006  0.73415  1.0000
  C   C399      1.0  0.06292  0.51350  0.70104  1.0000
  H   H707      1.0  0.50838  0.50390  0.68703  1.0000
  N   N25       1.0  0.56251  0.58723  0.71777  1.0000
  H   H708      1.0  0.64174  0.55089  0.73607  1.0000
  H   H709      1.0  0.69654  0.40583  0.70253  1.0000
  C   C400      1.0  0.04470  0.53154  0.69184  1.0000
  C   C401      1.0  0.20150  0.48789  0.52568  1.0000
  C   C402      1.0  0.95966  0.41503  0.49471  1.0000
  C   C403      1.0  0.03554  0.52945  0.66519  1.0000
  H   H710      1.0  0.17988  0.53969  0.69484  1.0000
  H   H711      1.0  0.09082  0.51459  0.68684  1.0000
  H   H712      1.0  0.28031  0.52541  0.60837  1.0000
  S   S87       1.0  0.70739  0.49247  0.72084  1.0000
  C   C404      1.0  0.46067  0.50147  0.71812  1.0000
  H   H713      1.0  0.46091  0.53355  0.67075  1.0000
  H   H714      1.0  0.15487  0.55913  0.68599  1.0000
  C   C405      1.0  0.48775  0.55364  0.66212  1.0000
  H   H715      1.0  0.02901  0.49305  0.70172  1.0000
  H   H716      1.0  0.07335  0.55225  0.69443  1.0000
  H   H717      1.0  0.87087  0.48170  0.70734  1.0000
  H   H718      1.0  0.00750  0.52581  0.70189  1.0000
  H   H719      1.0  0.67663  0.38378  0.49492  1.0000
  C   C406      1.0  0.17220  0.55444  0.70079  1.0000
  H   H720      1.0  0.12974  0.56072  0.72827  1.0000
  H   H721      1.0  0.01945  0.54127  0.65960  1.0000
  H   H722      1.0  0.07256  0.53697  0.65403  1.0000
  H   H723      1.0  0.00765  0.50886  0.66176  1.0000
  H   H724      1.0  0.69483  0.43503  0.69999  1.0000
  H   H725      1.0  0.90796  0.59606  0.69717  1.0000
  H   H726      1.0  0.49794  0.58247  0.69956  1.0000
  S   S88       1.0  0.26876  0.48972  0.74029  1.0000
  C   C407      1.0  0.02766  0.39029  0.67008  1.0000
  C   C408      1.0  0.91546  0.61597  0.69835  1.0000
  C   C409      1.0  0.84520  0.60470  0.67301  1.0000
  N   N26       1.0  0.90093  0.62482  0.67603  1.0000
  H   H727      1.0  0.98972  0.39854  0.73920  1.0000
  H   H728      1.0  0.25009  0.58521  0.68691  1.0000
  C   C410      1.0  0.79674  0.43054  0.71921  1.0000
  H   H729      1.0  0.92848  0.52740  0.71487  1.0000
  H   H730      1.0  0.11650  0.48961  0.69943  1.0000
  H   H731      1.0  0.00990  0.62149  0.62915  1.0000
  H   H732      1.0  0.55187  0.55093  0.73202  1.0000
  C   C411      1.0  0.72073  0.42747  0.70001  1.0000
  C   C412      1.0  0.75599  0.43825  0.72036  1.0000
  C   C413      1.0  0.89441  0.43393  0.71025  1.0000
  C   C414      1.0  0.88637  0.61443  0.72263  1.0000
  C   C415      1.0  0.54006  0.50150  0.71992  1.0000
  C   C416      1.0  0.13603  0.54475  0.72456  1.0000
  H   H733      1.0  0.81995  0.60422  0.68820  1.0000
  S   S89       1.0  0.59440  0.50376  0.70456  1.0000
  H   H734      1.0  0.21872  0.59544  0.70768  1.0000
  H   H735      1.0  0.63505  0.32780  0.70793  1.0000
  H   H736      1.0  0.59957  0.56671  0.70769  1.0000
  H   H737      1.0  0.86577  0.41930  0.69898  1.0000
  H   H738      1.0  0.05133  0.47828  0.73720  1.0000
  H   H739      1.0  0.86764  0.51348  0.73252  1.0000
  C   C417      1.0  0.46491  0.62505  0.73143  1.0000
  H   H740      1.0  0.05980  0.50666  0.52390  1.0000
  H   H741      1.0  0.21396  0.46491  0.50060  1.0000
  C   C418      1.0  0.22412  0.57929  0.70378  1.0000
  H   H742      1.0  0.52457  0.60458  0.73427  1.0000
  C   C419      1.0  0.82338  0.60855  0.64992  1.0000
  Fe  Fe43      1.0  0.66630  0.51408  0.72303  1.0000
  H   H743      1.0  0.03948  0.36487  0.70761  1.0000
  H   H744      1.0  0.96853  0.40021  0.49776  1.0000
  H   H745      1.0  0.68780  0.36204  0.68127  1.0000
  H   H746      1.0  0.99680  0.37220  0.66297  1.0000
  H   H747      1.0  0.55289  0.55675  0.67746  1.0000
  H   H748      1.0  0.97856  0.39116  0.69787  1.0000
  H   H749      1.0  0.97298  0.34945  0.70334  1.0000
  C   C420      1.0  0.71586  0.33572  0.67768  1.0000
  C   C421      1.0  0.00504  0.36612  0.71172  1.0000
  H   H750      1.0  0.92620  0.40994  0.71732  1.0000
  H   H751      1.0  0.70062  0.36304  0.50256  1.0000
  C   C422      1.0  0.76638  0.33070  0.71999  1.0000
  H   H752      1.0  0.95694  0.61285  0.61074  1.0000
  H   H753      1.0  0.61631  0.64312  0.72696  1.0000
  H   H754      1.0  0.72521  0.39341  0.51587  1.0000
  H   H755      1.0  0.96970  0.44415  0.72148  1.0000
  C   C423      1.0  0.93681  0.62732  0.65502  1.0000
  C   C424      1.0  0.09021  0.49668  0.73423  1.0000
  H   H756      1.0  0.04278  0.53611  0.73773  1.0000
  H   H757      1.0  0.08067  0.44928  0.72607  1.0000
  C   C425      1.0  0.54052  0.59270  0.73985  1.0000
  C   C426      1.0  0.86914  0.42973  0.73627  1.0000
  H   H758      1.0  0.97759  0.64201  0.65818  1.0000
  H   H759      1.0  0.53055  0.64273  0.67586  1.0000
  C   C427      1.0  0.52275  0.64336  0.69486  1.0000
  H   H760      1.0  0.00694  0.50140  0.74202  1.0000
  H   H761      1.0  0.85145  0.40851  0.74147  1.0000
  H   H762      1.0  0.15856  0.54423  0.73939  1.0000
  H   H763      1.0  0.42803  0.61036  0.74083  1.0000
  N   N27       1.0  0.82914  0.43682  0.74031  1.0000
  C   C428      1.0  0.62741  0.58171  0.74106  1.0000
  S   S90       1.0  0.04591  0.42882  0.83964  1.0000
  S   S91       1.0  0.21586  0.52912  0.77252  1.0000
  C   C429      1.0  0.09262  0.45674  0.82095  1.0000
  C   C430      1.0  0.09122  0.47935  0.81924  1.0000
  C   C431      1.0  0.12991  0.50159  0.80472  1.0000
  C   C432      1.0  0.16943  0.50119  0.79139  1.0000
  C   C433      1.0  0.17080  0.47858  0.79317  1.0000
  C   C434      1.0  0.13269  0.45649  0.80804  1.0000
  H   H764      1.0  0.06070  0.47981  0.82927  1.0000
  H   H765      1.0  0.20158  0.47820  0.78340  1.0000
  H   H766      1.0  0.13450  0.43923  0.80967  1.0000
  H   H767      1.0  0.12923  0.51919  0.80384  1.0000
  N   N28       1.0  0.11247  0.46317  0.90664  1.0000
  C   C435      1.0  0.09708  0.48294  0.90514  1.0000
  C   C436      1.0  0.14971  0.46797  0.88511  1.0000
  C   C437      1.0  0.06403  0.43650  0.90576  1.0000
  C   C438      1.0  0.13513  0.46299  0.92996  1.0000
  C   C439      1.0  0.18125  0.48944  0.93619  1.0000
  C   C440      1.0  0.05673  0.47948  0.92534  1.0000
  C   C441      1.0  0.07198  0.41338  0.90468  1.0000
  C   C442      1.0  0.18662  0.49656  0.87397  1.0000
  H   H768      1.0  0.08540  0.52077  0.92683  1.0000
  H   H769      1.0  0.90059  0.44023  0.74832  1.0000
  C   C443      1.0  0.02111  0.38792  0.90183  1.0000
  H   H770      1.0  0.08108  0.48254  0.88757  1.0000
  H   H771      1.0  0.13101  0.50311  0.90510  1.0000
  H   H772      1.0  0.17350  0.45974  0.88945  1.0000
  H   H773      1.0  0.12811  0.45738  0.86980  1.0000
  H   H774      1.0  0.04326  0.43655  0.88998  1.0000
  H   H775      1.0  0.03649  0.43138  0.92191  1.0000
  H   H776      1.0  0.10472  0.45485  0.94541  1.0000
  H   H777      1.0  0.14919  0.44953  0.92982  1.0000
  H   H778      1.0  0.17160  0.50456  0.93643  1.0000
  H   H779      1.0  0.21518  0.49611  0.92305  1.0000
  H   H780      1.0  0.01881  0.46163  0.92340  1.0000
  H   H781      1.0  0.06841  0.47804  0.94353  1.0000
  H   H782      1.0  0.08653  0.41047  0.92158  1.0000
  H   H783      1.0  0.09968  0.41662  0.88928  1.0000
  H   H784      1.0  0.20693  0.51014  0.88772  1.0000
  H   H785      1.0  0.77780  0.34914  0.75376  1.0000
  C   C444      1.0  0.90944  0.60887  0.74395  1.0000
  H   H786      1.0  0.76784  0.39944  0.75808  1.0000
  H   H787      1.0  0.00684  0.38903  0.88420  1.0000
  H   H788      1.0  0.02728  0.37151  0.90237  1.0000
  H   H789      1.0  0.99132  0.38376  0.91660  1.0000
  H   H790      1.0  0.16416  0.50324  0.86446  1.0000
  H   H791      1.0  0.03662  0.50446  0.90600  1.0000
  C   C445      1.0  0.04911  0.50233  0.92383  1.0000
  H   H792      1.0  0.01850  0.49864  0.93795  1.0000
  H   H793      1.0  0.04962  0.50175  0.77748  1.0000
  H   H794      1.0  0.73513  0.37897  0.97883  1.0000
  H   H795      1.0  0.12961  0.46660  0.74666  1.0000
  H   H796      1.0  0.48467  0.49630  0.77620  1.0000
  Fe  Fe44      1.0  0.97586  0.42846  0.85472  1.0000
  S   S92       1.0  0.40168  0.49932  0.75859  1.0000
  C   C446      1.0  0.48987  0.49807  0.75672  1.0000
  H   H797      1.0  0.46513  0.58917  0.77250  1.0000
  C   C447      1.0  0.22748  0.49881  0.85540  1.0000
  C   C448      1.0  0.63554  0.56060  0.75101  1.0000
  C   C449      1.0  0.70997  0.50982  0.83976  1.0000
  H   H798      1.0  0.61941  0.58987  0.75674  1.0000
  C   C450      1.0  0.02373  0.52736  0.78443  1.0000
  H   H799      1.0  0.06154  0.36439  0.74583  1.0000
  H   H800      1.0  0.03022  0.52660  0.80380  1.0000
  H   H801      1.0  0.51236  0.58773  0.78950  1.0000
  C   C451      1.0  0.47995  0.57679  0.77817  1.0000
  C   C452      1.0  0.76021  0.31799  0.81934  1.0000
  H   H802      1.0  0.67706  0.50859  0.85038  1.0000
  H   H803      1.0  0.25118  0.51906  0.84663  1.0000
  H   H804      1.0  0.25342  0.49403  0.86419  1.0000
  H   H805      1.0  0.03308  0.54725  0.77866  1.0000
  C   C453      1.0  0.67131  0.46232  0.85446  1.0000
  H   H806      1.0  0.97870  0.39602  0.98734  1.0000
  C   C454      1.0  0.12586  0.41028  0.76350  1.0000
  H   H807      1.0  0.88732  0.60741  0.76097  1.0000
  C   C455      1.0  0.07919  0.40310  0.74950  1.0000
  H   H808      1.0  0.88256  0.55477  0.78520  1.0000
  Fe  Fe45      1.0  0.74944  0.55775  0.74883  1.0000
  C   C456      1.0  0.85610  0.32305  0.81645  1.0000
  H   H809      1.0  0.02912  0.36689  0.77165  1.0000
  C   C457      1.0  0.71873  0.49008  0.85369  1.0000
  H   H810      1.0  0.56001  0.49776  0.75563  1.0000
  H   H811      1.0  0.78790  0.53980  0.90775  1.0000
  H   H812      1.0  0.89321  0.32494  0.81558  1.0000
  H   H813      1.0  0.66990  0.56946  0.76128  1.0000
  C   C458      1.0  0.95558  0.33480  0.74677  1.0000
  H   H814      1.0  0.11355  0.40375  0.78296  1.0000
  C   C459      1.0  0.95243  0.41582  0.96485  1.0000
  H   H815      1.0  0.09883  0.53604  0.77149  1.0000
  H   H816      1.0  0.69506  0.55605  0.85432  1.0000
  H   H817      1.0  0.15320  0.43180  0.76161  1.0000
  S   S93       1.0  0.97736  0.46123  0.87208  1.0000
  S   S94       1.0  0.36029  0.54916  0.75044  1.0000
  C   C460      1.0  0.79180  0.64380  0.76339  1.0000
  H   H818      1.0  0.98232  0.51297  0.78244  1.0000
  C   C461      1.0  0.81250  0.46124  0.82587  1.0000
  Fe  Fe46      1.0  0.72361  0.50192  0.75903  1.0000
  H   H819      1.0  0.44829  0.55912  0.78915  1.0000
  H   H820      1.0  0.82672  0.34273  0.74437  1.0000
  H   H821      1.0  0.74050  0.54036  0.87349  1.0000
  C   C462      1.0  0.81656  0.54573  0.86990  1.0000
  C   C463      1.0  0.45399  0.49961  0.74329  1.0000
  H   H822      1.0  0.63704  0.46091  0.86386  1.0000
  S   S95       1.0  0.67609  0.51987  0.76229  1.0000
  C   C464      1.0  0.79734  0.53867  0.81944  1.0000
  H   H823      1.0  0.67894  0.44857  0.86429  1.0000
  H   H824      1.0  0.81300  0.52787  0.82814  1.0000
  H   H825      1.0  0.84336  0.43922  0.79136  1.0000
  H   H826      1.0  0.66258  0.45631  0.83595  1.0000
  C   C465      1.0  0.85390  0.46498  0.74538  1.0000
  C   C466      1.0  0.93897  0.43445  0.96354  1.0000
  H   H827      1.0  0.60169  0.54598  0.76344  1.0000
  H   H828      1.0  0.23080  0.50592  0.96514  1.0000
  H   H829      1.0  0.82491  0.51012  0.77465  1.0000
  H   H830      1.0  0.83444  0.57355  0.89679  1.0000
  H   H831      1.0  0.76973  0.57439  0.81971  1.0000
  C   C467      1.0  0.82386  0.55310  0.89584  1.0000
  H   H832      1.0  0.00773  0.32084  0.75193  1.0000
  H   H833      1.0  0.94805  0.40465  0.94966  1.0000
  C   C468      1.0  0.86547  0.50022  0.79871  1.0000
  C   C469      1.0  0.89094  0.56649  0.80090  1.0000
  H   H834      1.0  0.78068  0.52821  0.80323  1.0000
  H   H835      1.0  0.75013  0.40675  0.80918  1.0000
  C   C470      1.0  0.77393  0.54887  0.85951  1.0000
  S   S96       1.0  0.77517  0.59464  0.76732  1.0000
  C   C471      1.0  0.84327  0.56649  0.81014  1.0000
  H   H836      1.0  0.87958  0.35466  0.83909  1.0000
  C   C472      1.0  0.84851  0.33993  0.82975  1.0000
  Fe  Fe47      1.0  0.91503  0.43004  0.89906  1.0000
  H   H837      1.0  0.20894  0.48544  0.84118  1.0000
  H   H838      1.0  0.91205  0.35379  0.77642  1.0000
  H   H839      1.0  0.73029  0.44153  0.82336  1.0000
  H   H840      1.0  0.87788  0.46927  0.76083  1.0000
  C   C473      1.0  0.73782  0.55347  0.82257  1.0000
  H   H841      1.0  0.90317  0.51666  0.79184  1.0000
  S   S97       1.0  0.85059  0.42454  0.87715  1.0000
  H   H842      1.0  0.78991  0.57024  0.85804  1.0000
  S   S98       1.0  0.78942  0.35782  0.84847  1.0000
  H   H843      1.0  0.85424  0.55872  0.85913  1.0000
  Fe  Fe48      1.0  0.27431  0.52689  0.74792  1.0000
  Fe  Fe49      1.0  0.85940  0.39459  0.85922  1.0000
  H   H844      1.0  0.69574  0.50233  0.82208  1.0000
  H   H845      1.0  0.75214  0.49005  0.84534  1.0000
  H   H846      1.0  0.76708  0.42661  0.76795  1.0000
  C   C474      1.0  0.92245  0.39127  0.77543  1.0000
  C   C475      1.0  0.77224  0.47569  0.79801  1.0000
  C   C476      1.0  0.81973  0.41949  0.78520  1.0000
  H   H847      1.0  0.92311  0.58677  0.79503  1.0000
  H   H848      1.0  0.72807  0.54703  0.80418  1.0000
  H   H849      1.0  0.97503  0.37948  0.78370  1.0000
  H   H850      1.0  0.75978  0.38091  0.80191  1.0000
  C   C477      1.0  0.69068  0.55284  0.83496  1.0000
  H   H851      1.0  0.80793  0.52563  0.86978  1.0000
  H   H852      1.0  0.64978  0.57284  0.83207  1.0000
  H   H853      1.0  0.67751  0.57075  0.80372  1.0000
  S   S99       1.0  0.91806  0.48713  0.82790  1.0000
  N   N29       1.0  0.75552  0.53770  0.83578  1.0000
  H   H854      1.0  0.84530  0.41203  0.78200  1.0000
  C   C478      1.0  0.05788  0.52086  0.76957  1.0000
  C   C479      1.0  0.68388  0.57383  0.82299  1.0000
  H   H855      1.0  0.83194  0.57435  0.79497  1.0000
  H   H856      1.0  0.80898  0.44746  0.84005  1.0000
  H   H857      1.0  0.85543  0.55136  0.90254  1.0000
  H   H858      1.0  0.89188  0.38687  0.76324  1.0000
  C   C480      1.0  0.94426  0.37418  0.77141  1.0000
  C   C481      1.0  0.77948  0.40165  0.80588  1.0000
  S   S100      1.0  0.91837  0.39745  0.88339  1.0000
  S   S101      1.0  0.91715  0.42323  0.82970  1.0000
  Fe  Fe50      1.0  0.91321  0.45336  0.84934  1.0000
  C   C482      1.0  0.76804  0.45787  0.81635  1.0000
  H   H859      1.0  0.65452  0.53377  0.83334  1.0000
  H   H860      1.0  0.90476  0.38707  0.79427  1.0000
  H   H861      1.0  0.79885  0.40383  0.82266  1.0000
  H   H862      1.0  0.94603  0.33147  0.76667  1.0000
  H   H863      1.0  0.72499  0.49473  0.87267  1.0000
  C   C483      1.0  0.79334  0.42006  0.76231  1.0000
  S   S102      1.0  0.91293  0.44007  0.93795  1.0000
  H   H864      1.0  0.72280  0.31579  0.82069  1.0000
  S   S103      1.0  0.71589  0.47162  0.78704  1.0000
  C   C484      1.0  0.82114  0.49668  0.78907  1.0000
  H   H865      1.0  0.85431  0.58015  0.82438  1.0000
  C   C485      1.0  0.86133  0.48243  0.81700  1.0000
  H   H866      1.0  0.71856  0.59360  0.82421  1.0000
  H   H867      1.0  0.90359  0.55842  0.81531  1.0000
  C   C486      1.0  0.80043  0.33737  0.83134  1.0000
  C   C487      1.0  0.19722  0.48683  0.96116  1.0000
  H   H868      1.0  0.20852  0.47226  0.96197  1.0000
  H   H869      1.0  0.82357  0.46880  0.75131  1.0000
  H   H870      1.0  0.16495  0.48076  0.97524  1.0000
  C   C488      1.0  0.04616  0.51919  0.74277  1.0000
  C   C489      1.0  0.96963  0.41092  0.98627  1.0000
  C   C490      1.0  0.03986  0.37331  0.75203  1.0000
  C   C491      1.0  0.49766  0.56857  0.75616  1.0000
  H   H871      1.0  0.95361  0.41227  0.77248  1.0000
  H   H872      1.0  0.93526  0.46346  0.98254  1.0000
  H   H873      1.0  0.10630  0.50012  0.75207  1.0000
  C   C492      1.0  0.53273  0.49900  0.74510  1.0000
  H   H874      1.0  0.92373  0.51851  0.74670  1.0000
  H   H875      1.0  0.95034  0.62493  0.74461  1.0000
  H   H876      1.0  0.06162  0.41353  0.75683  1.0000
  H   H877      1.0  0.51162  0.55616  0.76290  1.0000
  S   S104      1.0  0.79760  0.54023  0.74929  1.0000
  C   C493      1.0  0.78472  0.33499  0.74531  1.0000
  H   H878      1.0  0.46338  0.55669  0.74626  1.0000
  C   C494      1.0  0.78078  0.62198  0.75125  1.0000
  H   H879      1.0  0.57079  0.60484  0.75169  1.0000
  H   H880      1.0  0.76419  0.31625  0.75686  1.0000
  C   C495      1.0  0.94481  0.44873  0.98350  1.0000
  H   H881      1.0  0.79489  0.64336  0.78261  1.0000
  C   C496      1.0  0.96464  0.37731  0.74472  1.0000
  H   H882      1.0  0.14660  0.40127  0.75637  1.0000
  H   H883      1.0  0.90733  0.59018  0.74263  1.0000
  H   H884      1.0  0.89728  0.86772  0.05619  1.0000
  S   S105      1.0  0.28244  0.69640  0.19057  1.0000
  H   H885      1.0  0.98092  0.88768  0.01357  1.0000
  C   C497      1.0  0.43981  0.92006  0.18054  1.0000
  H   H886      1.0  0.77071  0.89530  0.03803  1.0000
  S   S106      1.0  0.54797  0.82988  0.20410  1.0000
  Fe  Fe51      1.0  0.12979  0.83258  0.19817  1.0000
  S   S107      1.0  0.08713  0.83490  0.16713  1.0000
  H   H887      1.0  0.41172  0.79572  0.15067  1.0000
  H   H888      1.0  0.94530  0.94732  0.01268  1.0000
  Fe  Fe52      1.0  0.22676  0.83549  0.21287  1.0000
  S   S108      1.0  0.30125  0.84128  0.19587  1.0000
  H   H889      1.0  0.40051  0.78786  0.11993  1.0000
  S   S109      1.0  0.15208  0.80280  0.20112  1.0000
  C   C498      1.0  0.08895  0.86399  0.15975  1.0000
  C   C499      1.0  0.06516  0.86577  0.13955  1.0000
  C   C500      1.0  0.06544  0.88854  0.13328  1.0000
  C   C501      1.0  0.08953  0.90973  0.14720  1.0000
  C   C502      1.0  0.11333  0.90797  0.16741  1.0000
  C   C503      1.0  0.11289  0.88516  0.17374  1.0000
  H   H890      1.0  0.04667  0.84950  0.12862  1.0000
  H   H891      1.0  0.04751  0.88978  0.11753  1.0000
  H   H892      1.0  0.13114  0.88397  0.18940  1.0000
  N   N30       1.0  0.84821  0.92861  0.24175  1.0000
  C   C504      1.0  0.42111  0.83611  0.21510  1.0000
  C   C505      1.0  0.38421  0.83674  0.20166  1.0000
  H   H893      1.0  0.38610  0.76263  0.14317  1.0000
  H   H894      1.0  0.45440  0.83736  0.20598  1.0000
  H   H895      1.0  0.38919  0.83835  0.18218  1.0000
  C   C506      1.0  0.42356  0.75088  0.20953  1.0000
  C   C507      1.0  0.37033  0.73660  0.20683  1.0000
  H   H896      1.0  0.44182  0.77015  0.21579  1.0000
  H   H897      1.0  0.34784  0.74498  0.21114  1.0000
  S   S110      1.0  0.97082  0.94025  0.13091  1.0000
  C   C508      1.0  0.45308  0.74022  0.20407  1.0000
  C   C509      1.0  0.91659  0.87973  0.03893  1.0000
  C   C510      1.0  0.88729  0.93566  0.22054  1.0000
  H   H898      1.0  0.93494  0.90051  0.04250  1.0000
  C   C511      1.0  0.34653  0.71180  0.19826  1.0000
  Fe  Fe53      1.0  0.03714  0.93920  0.11371  1.0000
  H   H899      1.0  0.87061  0.85528  0.01162  1.0000
  H   H900      1.0  0.04357  0.92344  0.19097  1.0000
  H   H901      1.0  0.31928  0.88253  0.23759  1.0000
  H   H902      1.0  0.73382  0.79300  0.05527  1.0000
  S   S111      1.0  0.09072  0.93867  0.13986  1.0000
  N   N31       1.0  0.25333  0.75532  0.17650  1.0000
  C   C512      1.0  0.21982  0.73159  0.16334  1.0000
  C   C513      1.0  0.30936  0.76489  0.16993  1.0000
  C   C514      1.0  0.24185  0.74673  0.20322  1.0000
  C   C515      1.0  0.24355  0.77689  0.17149  1.0000
  C   C516      1.0  0.22784  0.77978  0.14603  1.0000
  C   C517      1.0  0.16107  0.71632  0.17145  1.0000
  H   H903      1.0  0.90239  0.88942  0.00448  1.0000
  C   C518      1.0  0.33057  0.77461  0.14327  1.0000
  C   C519      1.0  0.38558  0.78055  0.13908  1.0000
  C   C520      1.0  0.23288  0.80602  0.14123  1.0000
  C   C521      1.0  0.12923  0.69777  0.15297  1.0000
  C   C522      1.0  0.37614  0.70120  0.19278  1.0000
  H   H904      1.0  0.23208  0.71743  0.16566  1.0000
  H   H905      1.0  0.22504  0.73660  0.14362  1.0000
  H   H906      1.0  0.33516  0.78162  0.18014  1.0000
  H   H907      1.0  0.31623  0.74918  0.17501  1.0000
  H   H908      1.0  0.24699  0.73016  0.20725  1.0000
  H   H909      1.0  0.20088  0.73937  0.20898  1.0000
  H   H910      1.0  0.21225  0.77455  0.18449  1.0000
  H   H911      1.0  0.27841  0.79590  0.17473  1.0000
  H   H912      1.0  0.18695  0.76420  0.14452  1.0000
  H   H913      1.0  0.25158  0.77832  0.13142  1.0000
  H   H914      1.0  0.15293  0.70421  0.18865  1.0000
  H   H915      1.0  0.14748  0.72968  0.17441  1.0000
  C   C523      1.0  0.34209  0.83632  0.21329  1.0000
  H   H916      1.0  0.30675  0.75990  0.13091  1.0000
  H   H917      1.0  0.33245  0.79304  0.13852  1.0000
  C   C524      1.0  0.42955  0.94569  0.22588  1.0000
  C   C525      1.0  0.81242  0.87961  0.00362  1.0000
  H   H918      1.0  0.27363  0.82236  0.14178  1.0000
  H   H919      1.0  0.22056  0.80738  0.12313  1.0000
  H   H920      1.0  0.20807  0.80814  0.15485  1.0000
  H   H921      1.0  0.13393  0.70887  0.13559  1.0000
  H   H922      1.0  0.14136  0.68380  0.14997  1.0000
  H   H923      1.0  0.08769  0.68649  0.15979  1.0000
  C   C526      1.0  0.96554  0.84247  0.19296  1.0000
  C   C527      1.0  0.92850  0.85368  0.13851  1.0000
  C   C528      1.0  0.90916  0.83742  0.11700  1.0000
  C   C529      1.0  0.97706  0.82862  0.21284  1.0000
  H   H924      1.0  0.97873  0.88646  0.16913  1.0000
  H   H925      1.0  0.99866  0.86300  0.19059  1.0000
  H   H926      1.0  0.96370  0.83287  0.17635  1.0000
  H   H927      1.0  0.94275  0.87418  0.13212  1.0000
  H   H928      1.0  0.96142  0.85296  0.14433  1.0000
  H   H929      1.0  0.89671  0.81689  0.12220  1.0000
  H   H930      1.0  0.87633  0.83787  0.11013  1.0000
  H   H931      1.0  0.94091  0.84556  0.10226  1.0000
  H   H932      1.0  0.13351  0.74390  0.23256  1.0000
  H   H933      1.0  0.13215  0.92428  0.17826  1.0000
  S   S112      1.0  0.20677  0.86585  0.20686  1.0000
  H   H934      1.0  0.18314  0.97416  0.18315  1.0000
  C   C530      1.0  0.78852  0.89148  0.05312  1.0000
  N   N32       1.0  0.43159  0.92133  0.22698  1.0000
  H   H935      1.0  0.80382  0.84692  0.07339  1.0000
  H   H936      1.0  0.36979  0.90172  0.20376  1.0000
  H   H937      1.0  0.92254  0.93707  0.22640  1.0000
  H   H938      1.0  0.90815  0.97670  0.21600  1.0000
  H   H939      1.0  0.77290  0.87581  0.00700  1.0000
  Fe  Fe54      1.0  0.21896  0.65935  0.21173  1.0000
  H   H940      1.0  0.77060  0.83446  0.23127  1.0000
  H   H941      1.0  0.01430  0.83041  0.20770  1.0000
  Fe  Fe55      1.0  0.99267  0.97246  0.10246  1.0000
  C   C531      1.0  0.27349  0.76798  0.22036  1.0000
  Fe  Fe56      1.0  0.55357  0.79724  0.22099  1.0000
  H   H942      1.0  0.78167  0.83075  0.02177  1.0000
  H   H943      1.0  0.71284  0.81049  0.07293  1.0000
  C   C532      1.0  0.40982  0.90647  0.20533  1.0000
  C   C533      1.0  0.42919  0.71529  0.19586  1.0000
  S   S113      1.0  0.51940  0.75722  0.20803  1.0000
  C   C534      1.0  0.90390  0.96119  0.20484  1.0000
  C   C535      1.0  0.74510  0.80762  0.06867  1.0000
  H   H944      1.0  0.35842  0.68243  0.18552  1.0000
  H   H945      1.0  0.87154  0.91976  0.20818  1.0000
  H   H946      1.0  0.87401  0.95727  0.19230  1.0000
  H   H947      1.0  0.26845  0.78456  0.21721  1.0000
  H   H948      1.0  0.98686  0.97695  0.20108  1.0000
  H   H949      1.0  0.75930  0.87253  0.06322  1.0000
  H   H950      1.0  0.74422  0.95082  0.24144  1.0000
  H   H951      1.0  0.78788  0.91486  0.21723  1.0000
  C   C536      1.0  0.80215  0.91275  0.07014  1.0000
  Fe  Fe57      1.0  0.92476  0.91383  0.10341  1.0000
  S   S114      1.0  0.63872  0.82224  0.22464  1.0000
  H   H952      1.0  0.12072  0.97017  0.18646  1.0000
  Fe  Fe58      1.0  0.63189  0.85540  0.21121  1.0000
  S   S115      1.0  0.69758  0.88998  0.18777  1.0000
  H   H953      1.0  0.31519  0.77520  0.21800  1.0000
  S   S116      1.0  0.94067  0.94608  0.07583  1.0000
  H   H954      1.0  0.85249  0.88816  0.06054  1.0000
  H   H955      1.0  0.39537  0.94231  0.21666  1.0000
  S   S117      1.0  0.98942  0.91010  0.08808  1.0000
  S   S118      1.0  0.84659  0.87753  0.11460  1.0000
  H   H956      1.0  0.85541  0.92285  0.13437  1.0000
  H   H957      1.0  0.81399  0.88739  0.23834  1.0000
  C   C537      1.0  0.33568  0.83398  0.23845  1.0000
  H   H958      1.0  0.83835  0.90097  0.99849  1.0000
  H   H959      1.0  0.86732  0.91146  0.03633  1.0000
  C   C538      1.0  0.80241  0.92794  0.23211  1.0000
  Fe  Fe59      1.0  0.00916  0.94460  0.06224  1.0000
  H   H960      1.0  0.02025  0.93671  0.21251  1.0000
  C   C539      1.0  0.80660  0.88097  0.13587  1.0000
  C   C540      1.0  0.81996  0.90559  0.14233  1.0000
  C   C541      1.0  0.78642  0.90802  0.15848  1.0000
  C   C542      1.0  0.73962  0.88588  0.16849  1.0000
  C   C543      1.0  0.72684  0.86120  0.16249  1.0000
  C   C544      1.0  0.76021  0.85877  0.14615  1.0000
  H   H961      1.0  0.79635  0.92718  0.16291  1.0000
  H   H962      1.0  0.69070  0.84403  0.17001  1.0000
  H   H963      1.0  0.74960  0.83967  0.14121  1.0000
  S   S119      1.0  0.03771  0.94708  0.02285  1.0000
  H   H964      1.0  0.75490  0.84424  0.20356  1.0000
  C   C545      1.0  0.79416  0.83347  0.05910  1.0000
  H   H965      1.0  0.72357  0.81018  0.21373  1.0000
  S   S120      1.0  0.09364  0.82252  0.23623  1.0000
  H   H966      1.0  0.42131  0.88452  0.16427  1.0000
  H   H967      1.0  0.81898  0.90971  0.08613  1.0000
  N   N33       1.0  0.82886  0.87204  0.02607  1.0000
  C   C546      1.0  0.83706  0.89136  0.04411  1.0000
  H   H968      1.0  0.31986  0.65793  0.22822  1.0000
  H   H969      1.0  0.76667  0.91215  0.07656  1.0000
  H   H970      1.0  0.82527  0.82955  0.05601  1.0000
  C   C547      1.0  0.95488  0.97167  0.18952  1.0000
  N   N34       1.0  0.90030  0.85584  0.18298  1.0000
  C   C548      1.0  0.94385  0.88417  0.17880  1.0000
  C   C549      1.0  0.88505  0.84387  0.15925  1.0000
  C   C550      1.0  0.85420  0.85510  0.19496  1.0000
  C   C551      1.0  0.91357  0.84021  0.19948  1.0000
  C   C552      1.0  0.96118  0.89905  0.20176  1.0000
  C   C553      1.0  0.80282  0.82796  0.19851  1.0000
  C   C554      1.0  0.01103  0.92579  0.19623  1.0000
  C   C555      1.0  0.76061  0.82943  0.21262  1.0000
  H   H971      1.0  0.93243  0.89489  0.16654  1.0000
  H   H972      1.0  0.86468  0.82223  0.16204  1.0000
  H   H973      1.0  0.85655  0.84762  0.15167  1.0000
  H   H974      1.0  0.84643  0.86854  0.18438  1.0000
  H   H975      1.0  0.86222  0.86226  0.21308  1.0000
  H   H976      1.0  0.91320  0.84522  0.21838  1.0000
  H   H977      1.0  0.88337  0.81906  0.20023  1.0000
  H   H978      1.0  0.93117  0.90230  0.20926  1.0000
  H   H979      1.0  0.96839  0.88818  0.21588  1.0000
  H   H980      1.0  0.80745  0.81338  0.20875  1.0000
  H   H981      1.0  0.78875  0.82069  0.18087  1.0000
  H   H982      1.0  0.94621  0.80756  0.21551  1.0000
  H   H983      1.0  0.00726  0.93734  0.18138  1.0000
  H   H984      1.0  0.45197  0.70704  0.19150  1.0000
  H   H985      1.0  0.94348  0.85468  0.02800  1.0000
  C   C556      1.0  0.96034  0.94381  0.99637  1.0000
  H   H986      1.0  0.75214  0.79991  0.08551  1.0000
  H   H987      1.0  0.98054  0.83765  0.23002  1.0000
  H   H988      1.0  0.83014  0.93235  0.06073  1.0000
  H   H989      1.0  0.48114  0.92668  0.18038  1.0000
  Fe  Fe60      1.0  0.12351  0.79605  0.24016  1.0000
  H   H990      1.0  0.70734  0.92232  0.22525  1.0000
  H   H991      1.0  0.51318  0.94151  0.21428  1.0000
  C   C557      1.0  0.78653  0.84456  0.03524  1.0000
  H   H992      1.0  0.74861  0.84288  0.03735  1.0000
  H   H993      1.0  0.43629  0.93689  0.17565  1.0000
  C   C558      1.0  0.95965  0.87552  0.03068  1.0000
  S   S121      1.0  0.06283  0.97368  0.08692  1.0000
  C   C559      1.0  0.41617  0.83523  0.24024  1.0000
  C   C560      1.0  0.47794  0.97135  0.21387  1.0000
  C   C561      1.0  0.87884  0.87359  0.01919  1.0000
  C   C562      1.0  0.41725  0.90144  0.16081  1.0000
  H   H994      1.0  0.43816  0.91176  0.14303  1.0000
  H   H995      1.0  0.40586  0.88732  0.20766  1.0000
  H   H996      1.0  0.98764  0.88130  0.04453  1.0000
  H   H997      1.0  0.95145  0.95691  0.17755  1.0000
  H   H998      1.0  0.13242  0.70224  0.23310  1.0000
  H   H999      1.0  0.37561  0.89415  0.16003  1.0000
  H   H1000     1.0  0.48004  0.89310  0.21597  1.0000
  C   C563      1.0  0.00469  0.94276  0.99651  1.0000
  C   C564      1.0  0.48603  0.92804  0.22963  1.0000
  H   H1001     1.0  0.81420  0.94759  0.22396  1.0000
  H   H1002     1.0  0.49156  0.96877  0.19612  1.0000
  H   H1003     1.0  0.57369  0.92640  0.21575  1.0000
  S   S122      1.0  0.13807  0.64595  0.20249  1.0000
  C   C565      1.0  0.49365  0.90477  0.23167  1.0000
  C   C566      1.0  0.55064  0.91419  0.23256  1.0000
  H   H1004     1.0  0.55453  0.89705  0.23432  1.0000
  C   C567      1.0  0.96021  0.78158  0.26654  1.0000
  H   H1005     1.0  0.11340  0.94915  0.27583  1.0000
  H   H1006     1.0  0.21428  0.75068  0.25083  1.0000
  H   H1007     1.0  0.81072  0.85820  0.27960  1.0000
  H   H1008     1.0  0.54619  0.71459  0.28509  1.0000
  S   S123      1.0  0.53153  0.80079  0.25871  1.0000
  H   H1009     1.0  0.87620  0.90691  0.28263  1.0000
  H   H1010     1.0  0.33649  0.72702  0.26635  1.0000
  S   S124      1.0  0.65764  0.82472  0.29190  1.0000
  S   S125      1.0  0.18166  0.88337  0.27163  1.0000
  C   C568      1.0  0.98002  0.90962  0.47293  1.0000
  S   S126      1.0  0.97110  0.93877  0.31802  1.0000
  Fe  Fe61      1.0  0.96392  0.91784  0.38597  1.0000
  S   S127      1.0  0.90707  0.89059  0.36104  1.0000
  S   S128      1.0  0.96607  0.90411  0.42463  1.0000
  Fe  Fe62      1.0  0.97572  0.90568  0.33383  1.0000
  S   S129      1.0  0.97859  0.88001  0.30664  1.0000
  Fe  Fe63      1.0  0.90596  0.92537  0.34659  1.0000
  S   S130      1.0  0.83678  0.92556  0.33461  1.0000
  S   S131      1.0  0.03272  0.92959  0.35968  1.0000
  H   H1011     1.0  0.97972  0.80085  0.25591  1.0000
  C   C569      1.0  0.97054  0.91928  0.45170  1.0000
  C   C570      1.0  0.96603  0.94092  0.45246  1.0000
  S   S132      1.0  0.61415  0.86354  0.24822  1.0000
  H   H1012     1.0  0.12174  0.91614  0.41787  1.0000
  H   H1013     1.0  0.68828  0.92179  0.25645  1.0000
  H   H1014     1.0  0.18937  0.66620  0.30829  1.0000
  C   C571      1.0  0.12708  0.88495  0.27974  1.0000
  C   C572      1.0  0.12751  0.89887  0.29919  1.0000
  C   C573      1.0  0.08288  0.89860  0.30707  1.0000
  C   C574      1.0  0.03756  0.88418  0.29562  1.0000
  C   C575      1.0  0.03793  0.87128  0.27560  1.0000
  C   C576      1.0  0.08254  0.87179  0.26759  1.0000
  H   H1015     1.0  0.16201  0.90934  0.30853  1.0000
  H   H1016     1.0  0.08305  0.90878  0.32245  1.0000
  H   H1017     1.0  0.00318  0.86040  0.26653  1.0000
  Fe  Fe64      1.0  0.12281  0.64503  0.24236  1.0000
  H   H1018     1.0  0.36864  0.83277  0.27132  1.0000
  C   C577      1.0  0.70597  0.85269  0.30444  1.0000
  C   C578      1.0  0.74378  0.85139  0.31634  1.0000
  C   C579      1.0  0.78427  0.87363  0.32553  1.0000
  C   C580      1.0  0.78598  0.89706  0.32378  1.0000
  C   C581      1.0  0.74682  0.89805  0.31287  1.0000
  C   C582      1.0  0.70734  0.87605  0.30290  1.0000
  H   H1019     1.0  0.74251  0.83327  0.31793  1.0000
  H   H1020     1.0  0.81387  0.87253  0.33410  1.0000
  H   H1021     1.0  0.74721  0.91594  0.31202  1.0000
  H   H1022     1.0  0.67753  0.87704  0.29437  1.0000
  C   C583      1.0  0.75561  0.91910  0.25080  1.0000
  H   H1023     1.0  0.06711  0.95658  0.42860  1.0000
  H   H1024     1.0  0.40418  0.71485  0.31756  1.0000
  S   S133      1.0  0.06828  0.65258  0.26362  1.0000
  H   H1025     1.0  0.30821  0.69162  0.30504  1.0000
  H   H1026     1.0  0.15520  0.95841  0.43481  1.0000
  N   N35       1.0  0.40667  0.71133  0.27916  1.0000
  C   C584      1.0  0.25545  0.75735  0.24676  1.0000
  C   C585      1.0  0.39817  0.90404  0.24921  1.0000
  C   C586      1.0  0.45885  0.71503  0.27291  1.0000
  C   C587      1.0  0.38770  0.69932  0.30487  1.0000
  C   C588      1.0  0.07404  0.72959  0.26196  1.0000
  C   C589      1.0  0.31379  0.88245  0.27600  1.0000
  C   C590      1.0  0.50305  0.73367  0.28804  1.0000
  H   H1027     1.0  0.01398  0.70960  0.29110  1.0000
  H   H1028     1.0  0.95733  0.94814  0.43651  1.0000
  C   C591      1.0  0.03916  0.68500  0.27850  1.0000
  H   H1029     1.0  0.76814  0.92632  0.26853  1.0000
  C   C592      1.0  0.09862  0.92525  0.41832  1.0000
  C   C593      1.0  0.92756  0.96198  0.26390  1.0000
  H   H1030     1.0  0.33118  0.69007  0.26526  1.0000
  H   H1031     1.0  0.56634  0.92554  0.24835  1.0000
  H   H1032     1.0  0.33292  0.89549  0.29039  1.0000
  H   H1033     1.0  0.40943  0.78103  0.28394  1.0000
  H   H1034     1.0  0.45615  0.69607  0.27512  1.0000
  H   H1035     1.0  0.40240  0.68661  0.30979  1.0000
  C   C594      1.0  0.08758  0.97505  0.26487  1.0000
  C   C595      1.0  0.37091  0.69449  0.26119  1.0000
  C   C596      1.0  0.86977  0.89804  0.26517  1.0000
  C   C597      1.0  0.37946  0.76736  0.27258  1.0000
  C   C598      1.0  0.86895  0.94795  0.26066  1.0000
  H   H1036     1.0  0.49199  0.72755  0.30761  1.0000
  H   H1037     1.0  0.51305  0.75399  0.28471  1.0000
  H   H1038     1.0  0.31401  0.86436  0.27932  1.0000
  H   H1039     1.0  0.43923  0.75060  0.28969  1.0000
  H   H1040     1.0  0.34791  0.73361  0.29755  1.0000
  C   C599      1.0  0.04005  0.70823  0.27839  1.0000
  H   H1041     1.0  0.95665  0.75575  0.38663  1.0000
  H   H1042     1.0  0.56530  0.74079  0.26181  1.0000
  C   C600      1.0  0.36543  0.73940  0.27866  1.0000
  H   H1043     1.0  0.95100  0.97440  0.24738  1.0000
  C   C601      1.0  0.13439  0.95478  0.41843  1.0000
  H   H1044     1.0  0.08222  0.86189  0.25206  1.0000
  H   H1045     1.0  0.58372  0.74817  0.29190  1.0000
  C   C602      1.0  0.41427  0.73801  0.27615  1.0000
  N   N36       1.0  0.02889  0.80852  0.32513  1.0000
  C   C603      1.0  0.03243  0.83082  0.33760  1.0000
  C   C604      1.0  0.08202  0.81601  0.31454  1.0000
  C   C605      1.0  0.99549  0.80362  0.30458  1.0000
  C   C606      1.0  0.00384  0.78364  0.34160  1.0000
  C   C607      1.0  0.02845  0.78493  0.36540  1.0000
  C   C608      1.0  0.98059  0.82700  0.34772  1.0000
  C   C609      1.0  0.99060  0.78291  0.28784  1.0000
  C   C610      1.0  0.12883  0.83427  0.32862  1.0000
  C   C611      1.0  0.17746  0.83524  0.31924  1.0000
  C   C612      1.0  0.99554  0.75938  0.38151  1.0000
  C   C613      1.0  0.98987  0.84889  0.36325  1.0000
  S   S134      1.0  0.46533  0.83862  0.25768  1.0000
  H   H1046     1.0  0.05213  0.84872  0.32484  1.0000
  H   H1047     1.0  0.05721  0.83588  0.35271  1.0000
  H   H1048     1.0  0.08273  0.79821  0.31158  1.0000
  H   H1049     1.0  0.09133  0.82664  0.29626  1.0000
  H   H1050     1.0  0.01039  0.82214  0.29311  1.0000
  H   H1051     1.0  0.95530  0.79695  0.31142  1.0000
  H   H1052     1.0  0.96211  0.77591  0.34604  1.0000
  H   H1053     1.0  0.00450  0.76811  0.33218  1.0000
  H   H1054     1.0  0.03218  0.80074  0.37589  1.0000
  H   H1055     1.0  0.06693  0.78772  0.36150  1.0000
  H   H1056     1.0  0.95849  0.82744  0.33276  1.0000
  H   H1057     1.0  0.95644  0.80828  0.35908  1.0000
  H   H1058     1.0  0.96996  0.76319  0.29766  1.0000
  H   H1059     1.0  0.02900  0.78760  0.28039  1.0000
  H   H1060     1.0  0.13718  0.85446  0.32630  1.0000
  H   H1061     1.0  0.12181  0.82821  0.34815  1.0000
  H   H1062     1.0  0.18731  0.84236  0.29987  1.0000
  H   H1063     1.0  0.21046  0.84888  0.32923  1.0000
  H   H1064     1.0  0.17171  0.81560  0.32166  1.0000
  H   H1065     1.0  0.91953  0.96857  0.30156  1.0000
  H   H1066     1.0  0.32803  0.69295  0.34790  1.0000
  H   H1067     1.0  0.99126  0.74274  0.37212  1.0000
  H   H1068     1.0  0.39638  0.88533  0.25031  1.0000
  H   H1069     1.0  0.01456  0.86823  0.35283  1.0000
  H   H1070     1.0  0.95238  0.84652  0.36913  1.0000
  H   H1071     1.0  0.03052  0.97735  0.40851  1.0000
  C   C614      1.0  0.97203  0.95303  0.47404  1.0000
  H   H1072     1.0  0.33297  0.66475  0.34544  1.0000
  C   C615      1.0  0.32818  0.68203  0.31125  1.0000
  H   H1073     1.0  0.41566  0.91353  0.26574  1.0000
  H   H1074     1.0  0.79684  0.89433  0.26646  1.0000
  H   H1075     1.0  0.98339  0.89283  0.47258  1.0000
  H   H1076     1.0  0.01235  0.66866  0.29126  1.0000
  H   H1077     1.0  0.12229  0.96520  0.46747  1.0000
  H   H1078     1.0  0.87620  0.86761  0.28321  1.0000
  H   H1079     1.0  0.01450  0.76057  0.39825  1.0000
  S   S135      1.0  0.95750  0.95167  0.37351  1.0000
  H   H1080     1.0  0.31156  0.66343  0.30269  1.0000
  H   H1081     1.0  0.34480  0.76843  0.27600  1.0000
  H   H1082     1.0  0.00875  0.84839  0.37954  1.0000
  C   C616      1.0  0.31474  0.67507  0.33844  1.0000
  H   H1083     1.0  0.09357  0.96104  0.30060  1.0000
  C   C617      1.0  0.07245  0.68273  0.26226  1.0000
  S   S136      1.0  0.19938  0.82689  0.25225  1.0000
  H   H1084     1.0  0.93943  0.94808  0.26797  1.0000
  H   H1085     1.0  0.27862  0.77308  0.25848  1.0000
  H   H1086     1.0  0.27304  0.87708  0.27692  1.0000
  H   H1087     1.0  0.07131  0.91698  0.43488  1.0000
  H   H1088     1.0  0.43517  0.74793  0.25818  1.0000
  H   H1089     1.0  0.92022  0.77560  0.27291  1.0000
  Fe  Fe65      1.0  0.61631  0.82878  0.26119  1.0000
  Fe  Fe66      1.0  0.02279  0.96177  0.34587  1.0000
  C   C618      1.0  0.08527  0.95420  0.28230  1.0000
  H   H1090     1.0  0.36641  0.65888  0.27612  1.0000
  S   S137      1.0  0.07230  0.75809  0.26334  1.0000
  H   H1091     1.0  0.04606  0.93620  0.28354  1.0000
  C   C619      1.0  0.55245  0.73420  0.28125  1.0000
  H   H1092     1.0  0.84768  0.93824  0.27865  1.0000
  H   H1093     1.0  0.07625  0.92022  0.40230  1.0000
  C   C620      1.0  0.37279  0.83360  0.25186  1.0000
  H   H1094     1.0  0.95833  0.76708  0.25458  1.0000
  H   H1095     1.0  0.39419  0.77388  0.25330  1.0000
  H   H1096     1.0  0.96872  0.96984  0.47437  1.0000
  H   H1097     1.0  0.86147  0.96374  0.25684  1.0000
  C   C621      1.0  0.10685  0.70404  0.24569  1.0000
  H   H1098     1.0  0.26049  0.74086  0.25104  1.0000
  H   H1099     1.0  0.33735  0.91338  0.24844  1.0000
  C   C622      1.0  0.82967  0.90139  0.25245  1.0000
  C   C623      1.0  0.85072  0.86930  0.27082  1.0000
  C   C624      1.0  0.34087  0.89625  0.25118  1.0000
  H   H1100     1.0  0.85155  0.86034  0.25418  1.0000
  C   C625      1.0  0.31965  0.64933  0.24627  1.0000
  H   H1101     1.0  0.09295  0.96722  0.39824  1.0000
  H   H1102     1.0  0.42358  0.95034  0.24440  1.0000
  C   C626      1.0  0.10422  0.96869  0.41707  1.0000
  H   H1103     1.0  0.07618  0.96650  0.24749  1.0000
  H   H1104     1.0  0.50045  0.93881  0.24593  1.0000
  H   H1105     1.0  0.40191  0.67212  0.24694  1.0000
  H   H1106     1.0  0.73122  0.89745  0.25310  1.0000
  S   S138      1.0  0.20381  0.66025  0.25138  1.0000
  H   H1107     1.0  0.30318  0.83341  0.24756  1.0000
  H   H1108     1.0  0.47211  0.72237  0.25352  1.0000
  H   H1109     1.0  0.47287  0.89186  0.24843  1.0000
  C   C627      1.0  0.72194  0.92917  0.24289  1.0000
  C   C628      1.0  0.36754  0.66840  0.25842  1.0000
  H   H1110     1.0  0.27220  0.66199  0.34240  1.0000
  H   H1111     1.0  0.16337  0.96196  0.40252  1.0000
  C   C629      1.0  0.10747  0.72751  0.24543  1.0000
  H   H1112     1.0  0.90724  0.90714  0.25414  1.0000
  Fe  Fe67      1.0  0.17172  0.85408  0.24530  1.0000
  H   H1113     1.0  0.17346  0.65075  0.33860  1.0000
  C   C630      1.0  0.17048  0.64712  0.31926  1.0000
  Fe  Fe68      1.0  0.53081  0.83500  0.24237  1.0000
  H   H1114     1.0  0.38342  0.70535  0.24309  1.0000
  Fe  Fe69      1.0  0.99040  0.94849  0.56132  1.0000
  H   H1115     1.0  0.94131  0.70341  0.67792  1.0000
  H   H1116     1.0  0.79376  0.83103  0.57088  1.0000
  Fe  Fe70      1.0  0.98679  0.91231  0.60210  1.0000
  S   S139      1.0  0.98415  0.93592  0.63078  1.0000
  S   S140      1.0  0.98583  0.87619  0.61461  1.0000
  Fe  Fe71      1.0  0.92746  0.93881  0.60968  1.0000
  S   S141      1.0  0.85534  0.93128  0.63099  1.0000
  C   C631      1.0  0.91674  0.69298  0.66337  1.0000
  H   H1117     1.0  0.09033  0.95471  0.68535  1.0000
  S   S142      1.0  0.92467  0.91216  0.58239  1.0000
  S   S143      1.0  0.05313  0.94675  0.57924  1.0000
  H   H1118     1.0  0.89581  0.92519  0.69057  1.0000
  H   H1119     1.0  0.76157  0.94660  0.71217  1.0000
  C   C632      1.0  0.88466  0.90492  0.68820  1.0000
  Fe  Fe72      1.0  0.77410  0.76639  0.70892  1.0000
  S   S144      1.0  0.78727  0.80170  0.68647  1.0000
  H   H1120     1.0  0.99288  0.91394  0.51074  1.0000
  S   S145      1.0  0.72951  0.72463  0.70020  1.0000
  H   H1121     1.0  0.75149  0.85560  0.68086  1.0000
  H   H1122     1.0  0.89747  0.66085  0.64251  1.0000
  S   S146      1.0  0.83301  0.76386  0.72903  1.0000
  H   H1123     1.0  0.95919  0.90770  0.71154  1.0000
  C   C633      1.0  0.78628  0.64567  0.71363  1.0000
  H   H1124     1.0  0.88387  0.85443  0.58498  1.0000
  H   H1125     1.0  0.22527  0.94793  0.63645  1.0000
  H   H1126     1.0  0.77897  0.80228  0.58899  1.0000
  H   H1127     1.0  0.70093  0.85999  0.67124  1.0000
  H   H1128     1.0  0.93985  0.66209  0.69160  1.0000
  H   H1129     1.0  0.29713  0.95582  0.66050  1.0000
  H   H1130     1.0  0.86128  0.86927  0.70914  1.0000
  C   C634      1.0  0.87620  0.88975  0.71247  1.0000
  H   H1131     1.0  0.83490  0.94067  0.71631  1.0000
  C   C635      1.0  0.56073  0.66347  0.70729  1.0000
  C   C636      1.0  0.76833  0.94035  0.72988  1.0000
  H   H1132     1.0  0.91587  0.85693  0.70469  1.0000
  H   H1133     1.0  0.02421  0.93342  0.67898  1.0000
  H   H1134     1.0  0.78022  0.93686  0.65841  1.0000
  C   C637      1.0  0.93323  0.85597  0.63616  1.0000
  C   C638      1.0  0.92353  0.83168  0.64525  1.0000
  C   C639      1.0  0.87937  0.81482  0.66122  1.0000
  C   C640      1.0  0.84540  0.82248  0.66833  1.0000
  C   C641      1.0  0.85619  0.84702  0.65983  1.0000
  C   C642      1.0  0.89949  0.86359  0.64362  1.0000
  H   H1135     1.0  0.94920  0.82555  0.63934  1.0000
  H   H1136     1.0  0.87100  0.79575  0.66759  1.0000
  H   H1137     1.0  0.83003  0.85292  0.66537  1.0000
  H   H1138     1.0  0.90577  0.88194  0.63642  1.0000
  C   C643      1.0  0.85865  0.83284  0.58595  1.0000
  H   H1139     1.0  0.78457  0.64639  0.69431  1.0000
  H   H1140     1.0  0.84858  0.89541  0.67908  1.0000
  H   H1141     1.0  0.86678  0.82427  0.60180  1.0000
  H   H1142     1.0  0.76532  0.88785  0.67211  1.0000
  C   C644      1.0  0.81581  0.95582  0.65560  1.0000
  H   H1143     1.0  0.91507  0.90527  0.67625  1.0000
  H   H1144     1.0  0.70619  0.65225  0.69194  1.0000
  C   C645      1.0  0.06097  0.93460  0.68133  1.0000
  H   H1145     1.0  0.28964  0.92639  0.65007  1.0000
  Fe  Fe73      1.0  0.78502  0.72102  0.72270  1.0000
  N   N37       1.0  0.14439  0.91712  0.64171  1.0000
  C   C646      1.0  0.13145  0.93089  0.65978  1.0000
  C   C647      1.0  0.20088  0.92653  0.64201  1.0000
  C   C648      1.0  0.13711  0.92531  0.61695  1.0000
  C   C649      1.0  0.11036  0.88769  0.64606  1.0000
  C   C650      1.0  0.08948  0.87579  0.67251  1.0000
  C   C651      1.0  0.07833  0.92787  0.65823  1.0000
  C   C652      1.0  0.15411  0.91559  0.59535  1.0000
  C   C653      1.0  0.21836  0.92163  0.66615  1.0000
  C   C654      1.0  0.27698  0.93433  0.66442  1.0000
  H   H1146     1.0  0.12040  0.88356  0.68487  1.0000
  H   H1147     1.0  0.81314  0.91167  0.56189  1.0000
  C   C655      1.0  0.13428  0.91973  0.57206  1.0000
  H   H1148     1.0  0.75712  0.88403  0.55131  1.0000
  H   H1149     1.0  0.13340  0.92470  0.67850  1.0000
  H   H1150     1.0  0.21203  0.91703  0.62865  1.0000
  H   H1151     1.0  0.15834  0.94695  0.61392  1.0000
  H   H1152     1.0  0.05457  0.92058  0.69670  1.0000
  H   H1153     1.0  0.09572  0.91823  0.61548  1.0000
  H   H1154     1.0  0.07534  0.88000  0.63597  1.0000
  H   H1155     1.0  0.13094  0.87869  0.63855  1.0000
  H   H1156     1.0  0.02927  0.83733  0.66334  1.0000
  S   S147      1.0  0.99125  0.96037  0.52155  1.0000
  H   H1157     1.0  0.08147  0.94142  0.64315  1.0000
  H   H1158     1.0  0.04793  0.90774  0.65478  1.0000
  H   H1159     1.0  0.13922  0.89450  0.59849  1.0000
  H   H1160     1.0  0.19695  0.92667  0.59236  1.0000
  H   H1161     1.0  0.90744  0.97397  0.69294  1.0000
  H   H1162     1.0  0.20068  0.90041  0.67055  1.0000
  C   C656      1.0  0.80169  0.82394  0.58777  1.0000
  H   H1163     1.0  0.87587  0.68580  0.66937  1.0000
  S   S148      1.0  0.81635  0.69714  0.70878  1.0000
  H   H1164     1.0  0.28858  0.93041  0.68186  1.0000
  H   H1165     1.0  0.92888  0.70702  0.64719  1.0000
  C   C657      1.0  0.82532  0.94978  0.73067  1.0000
  C   C658      1.0  0.98535  0.92152  0.49462  1.0000
  H   H1166     1.0  0.20836  0.92987  0.68116  1.0000
  H   H1167     1.0  0.09021  0.84052  0.66822  1.0000
  H   H1168     1.0  0.14834  0.91338  0.55680  1.0000
  H   H1169     1.0  0.16108  0.95218  0.65753  1.0000
  H   H1170     1.0  0.14843  0.94068  0.56806  1.0000
  N   N38       1.0  0.73524  0.83101  0.61073  1.0000
  C   C659      1.0  0.78679  0.83339  0.61031  1.0000
  C   C660      1.0  0.72261  0.83654  0.63538  1.0000
  C   C661      1.0  0.69492  0.80291  0.60738  1.0000
  C   C662      1.0  0.73371  0.84857  0.59106  1.0000
  C   C663      1.0  0.78496  0.87513  0.58331  1.0000
  H   H1171     1.0  0.66655  0.66579  0.68810  1.0000
  C   C664      1.0  0.63770  0.79511  0.60993  1.0000
  C   C665      1.0  0.75660  0.86488  0.64212  1.0000
  C   C666      1.0  0.74258  0.86707  0.66822  1.0000
  C   C667      1.0  0.77558  0.89327  0.56767  1.0000
  H   H1172     1.0  0.93367  0.92132  0.73052  1.0000
  C   C668      1.0  0.60211  0.76856  0.60055  1.0000
  H   H1173     1.0  0.78717  0.82169  0.62622  1.0000
  H   H1174     1.0  0.81857  0.85371  0.61225  1.0000
  H   H1175     1.0  0.68281  0.83251  0.63719  1.0000
  H   H1176     1.0  0.72371  0.82329  0.64959  1.0000
  H   H1177     1.0  0.69821  0.78948  0.62046  1.0000
  H   H1178     1.0  0.70171  0.79813  0.58911  1.0000
  H   H1179     1.0  0.72157  0.83856  0.57424  1.0000
  H   H1180     1.0  0.70347  0.85268  0.59642  1.0000
  H   H1181     1.0  0.81232  0.87206  0.57254  1.0000
  H   H1182     1.0  0.80482  0.88563  0.59879  1.0000
  H   H1183     1.0  0.91491  0.81643  0.70652  1.0000
  H   H1184     1.0  0.04842  0.83806  0.69345  1.0000
  H   H1185     1.0  0.63275  0.80968  0.59980  1.0000
  H   H1186     1.0  0.62423  0.79335  0.62920  1.0000
  H   H1187     1.0  0.79823  0.87202  0.64007  1.0000
  H   H1188     1.0  0.74982  0.87799  0.63060  1.0000
  H   H1189     1.0  0.96290  0.67853  0.65019  1.0000
  H   H1190     1.0  0.92489  0.96001  0.71638  1.0000
  C   C669      1.0  0.85920  0.95862  0.64266  1.0000
  H   H1191     1.0  0.06041  0.88011  0.67918  1.0000
  H   H1192     1.0  0.98672  0.88202  0.72859  1.0000
  H   H1193     1.0  0.75071  0.89828  0.57806  1.0000
  C   C670      1.0  0.92682  0.90236  0.72530  1.0000
  C   C671      1.0  0.92209  0.67027  0.65722  1.0000
  H   H1194     1.0  0.56136  0.76311  0.60332  1.0000
  H   H1195     1.0  0.61193  0.76924  0.58096  1.0000
  H   H1196     1.0  0.60546  0.75328  0.61042  1.0000
  C   C672      1.0  0.93798  0.83145  0.71880  1.0000
  H   H1197     1.0  0.09130  0.90800  0.57358  1.0000
  H   H1198     1.0  0.59747  0.67830  0.69787  1.0000
  C   C673      1.0  0.06276  0.84611  0.67440  1.0000
  H   H1199     1.0  0.97837  0.84363  0.71046  1.0000
  H   H1200     1.0  0.86825  0.82623  0.56944  1.0000
  Fe  Fe74      1.0  0.04544  0.97044  0.60689  1.0000
  H   H1201     1.0  0.02712  0.93296  0.73529  1.0000
  C   C674      1.0  0.98161  0.94341  0.49527  1.0000
  C   C675      1.0  0.79843  0.66771  0.72568  1.0000
  H   H1202     1.0  0.70713  0.67412  0.71266  1.0000
  H   H1203     1.0  0.84540  0.88987  0.72367  1.0000
  H   H1204     1.0  0.74431  0.91872  0.73258  1.0000
  H   H1205     1.0  0.99697  0.96161  0.69391  1.0000
  C   C676      1.0  0.68221  0.65831  0.70149  1.0000
  C   C677      1.0  0.91528  0.84818  0.72272  1.0000
  C   C678      1.0  0.55069  0.66454  0.73180  1.0000
  S   S149      1.0  0.98832  0.97528  0.58750  1.0000
  C   C679      1.0  0.94832  0.86993  0.73903  1.0000
  H   H1206     1.0  0.87290  0.64819  0.68987  1.0000
  H   H1207     1.0  0.51182  0.97109  0.72319  1.0000
  C   C680      1.0  0.90807  0.65101  0.67984  1.0000
  Fe  Fe75      1.0  0.68216  0.71529  0.73563  1.0000
  H   H1208     1.0  0.87480  0.83498  0.73063  1.0000
  H   H1209     1.0  0.93701  0.82139  0.73618  1.0000
  H   H1210     1.0  0.97377  0.96907  0.66737  1.0000
  H   H1211     1.0  0.78407  0.97551  0.67389  1.0000
  C   C681      1.0  0.00048  0.97753  0.68170  1.0000
  C   C682      1.0  0.81790  0.97764  0.66440  1.0000
  S   S150      1.0  0.72140  0.75739  0.74202  1.0000
  Fe  Fe76      1.0  0.94432  0.93300  0.88685  1.0000
  C   C683      1.0  0.79991  0.66647  0.75071  1.0000
  S   S151      1.0  0.92472  0.93486  0.92670  1.0000
  Fe  Fe77      1.0  0.95705  0.90531  0.84518  1.0000
  S   S152      1.0  0.96778  0.93589  0.81742  1.0000
  S   S153      1.0  0.96834  0.87532  0.82855  1.0000
  H   H1212     1.0  0.45077  0.70646  0.78157  1.0000
  C   C684      1.0  0.38110  0.97401  0.77682  1.0000
  Fe  Fe78      1.0  0.90217  0.93432  0.83829  1.0000
  S   S154      1.0  0.84080  0.93224  0.81598  1.0000
  S   S155      1.0  0.01346  0.93433  0.86911  1.0000
  S   S156      1.0  0.88713  0.90138  0.86483  1.0000
  H   H1213     1.0  0.61532  0.71039  0.84156  1.0000
  H   H1214     1.0  0.87850  0.85633  0.77491  1.0000
  C   C685      1.0  0.02441  0.93882  0.97492  1.0000
  H   H1215     1.0  0.63721  0.74446  0.77618  1.0000
  H   H1216     1.0  0.65947  0.79266  0.80236  1.0000
  H   H1217     1.0  0.90247  0.94232  0.97487  1.0000
  S   S157      1.0  0.73497  0.70938  0.75748  1.0000
  H   H1218     1.0  0.60293  0.77452  0.78686  1.0000
  S   S158      1.0  0.78344  0.76828  0.79832  1.0000
  C   C686      1.0  0.81141  0.86562  0.98085  1.0000
  C   C687      1.0  0.52607  0.72332  0.79530  1.0000
  H   H1219     1.0  0.79124  0.84912  0.79480  1.0000
  H   H1220     1.0  0.67587  0.79870  0.87079  1.0000
  H   H1221     1.0  0.09199  0.95045  0.90375  1.0000
  H   H1222     1.0  0.45234  0.68713  0.80667  1.0000
  H   H1223     1.0  0.56633  0.70413  0.79207  1.0000
  H   H1224     1.0  0.77334  0.94022  0.78874  1.0000
  H   H1225     1.0  0.36595  0.95287  0.77995  1.0000
  C   C688      1.0  0.91592  0.84700  0.81839  1.0000
  C   C689      1.0  0.92586  0.83306  0.80201  1.0000
  C   C690      1.0  0.88512  0.80972  0.79440  1.0000
  C   C691      1.0  0.83432  0.79971  0.80386  1.0000
  C   C692      1.0  0.82429  0.81386  0.81995  1.0000
  C   C693      1.0  0.86484  0.83768  0.82687  1.0000
  H   H1226     1.0  0.96534  0.84009  0.79555  1.0000
  H   H1227     1.0  0.89328  0.79875  0.78231  1.0000
  H   H1228     1.0  0.78515  0.80613  0.82748  1.0000
  H   H1229     1.0  0.85682  0.84824  0.83954  1.0000
  H   H1230     1.0  0.60770  0.68706  0.80545  1.0000
  H   H1231     1.0  0.48046  0.68807  0.77697  1.0000
  C   C694      1.0  0.17724  0.97260  0.80407  1.0000
  C   C695      1.0  0.96571  0.90536  0.76338  1.0000
  H   H1232     1.0  0.09691  0.95487  0.76253  1.0000
  H   H1233     1.0  0.75444  0.87058  0.96373  1.0000
  C   C696      1.0  0.56014  0.71454  0.80634  1.0000
  C   C697      1.0  0.93619  0.94098  0.97489  1.0000
  H   H1234     1.0  0.10665  0.95859  0.82670  1.0000
  H   H1235     1.0  0.95418  0.86069  0.75528  1.0000
  C   C698      1.0  0.95605  0.93721  0.95327  1.0000
  C   C699      1.0  0.00013  0.93591  0.95345  1.0000
  N   N39       1.0  0.61123  0.73569  0.81417  1.0000
  C   C700      1.0  0.64520  0.70509  0.80791  1.0000
  H   H1236     1.0  0.01551  0.93266  0.93708  1.0000
  S   S159      1.0  0.59650  0.68972  0.74808  1.0000
  H   H1237     1.0  0.68680  0.76228  0.79498  1.0000
  H   H1238     1.0  0.58383  0.75947  0.82771  1.0000
  H   H1239     1.0  0.67275  0.81277  0.76145  1.0000
  H   H1240     1.0  0.63593  0.79908  0.84847  1.0000
  H   H1241     1.0  0.78483  0.87692  0.79332  1.0000
  S   S160      1.0  0.95342  0.96550  0.86138  1.0000
  H   H1242     1.0  0.68168  0.68285  0.80721  1.0000
  H   H1243     1.0  0.90977  0.96528  0.75644  1.0000
  C   C701      1.0  0.84059  0.96068  0.80835  1.0000
  Fe  Fe79      1.0  0.77709  0.75240  0.76187  1.0000
  H   H1244     1.0  0.85021  0.86955  0.97503  1.0000
  C   C702      1.0  0.85552  0.88415  0.77463  1.0000
  H   H1245     1.0  0.54530  0.73512  0.77785  1.0000
  C   C703      1.0  0.79433  0.87515  0.95960  1.0000
  H   H1246     1.0  0.78409  0.84422  0.98419  1.0000
  H   H1247     1.0  0.96431  0.89446  0.78038  1.0000
  H   H1248     1.0  0.82102  0.89654  0.95526  1.0000
  H   H1249     1.0  0.05867  0.93792  0.97483  1.0000
  H   H1250     1.0  0.80949  0.68338  0.76017  1.0000
  C   C704      1.0  0.64133  0.78621  0.86110  1.0000
  H   H1251     1.0  0.17645  0.95470  0.80732  1.0000
  C   C705      1.0  0.47427  0.69974  0.78987  1.0000
  H   H1252     1.0  0.05334  0.93390  0.78794  1.0000
  H   H1253     1.0  0.57184  0.73362  0.84829  1.0000
  H   H1254     1.0  0.95409  0.91897  0.76884  1.0000
  C   C706      1.0  0.67436  0.79504  0.76429  1.0000
  C   C707      1.0  0.87655  0.86954  0.76107  1.0000
  C   C708      1.0  0.67867  0.69631  0.81891  1.0000
  H   H1255     1.0  0.71827  0.71334  0.82038  1.0000
  C   C709      1.0  0.80270  0.95896  0.79414  1.0000
  H   H1256     1.0  0.66407  0.71573  0.79000  1.0000
  C   C710      1.0  0.05572  0.94337  0.76994  1.0000
  H   H1257     1.0  0.68461  0.77906  0.83449  1.0000
  H   H1258     1.0  0.65732  0.75595  0.86053  1.0000
  H   H1259     1.0  0.66129  0.68585  0.83705  1.0000
  C   C711      1.0  0.64950  0.76743  0.84731  1.0000
  H   H1260     1.0  0.87619  0.89152  0.79102  1.0000
  C   C712      1.0  0.64295  0.77942  0.78789  1.0000
  C   C713      1.0  0.79806  0.86608  0.78294  1.0000
  C   C714      1.0  0.63737  0.72263  0.82451  1.0000
  H   H1261     1.0  0.71550  0.80126  0.76487  1.0000
  H   H1262     1.0  0.60705  0.77523  0.87452  1.0000
  H   H1263     1.0  0.65840  0.78318  0.74881  1.0000
  H   H1264     1.0  0.53687  0.69957  0.82174  1.0000
  H   H1265     1.0  0.04236  0.95696  0.77201  1.0000
  H   H1266     1.0  0.51780  0.73467  0.80758  1.0000
  H   H1267     1.0  0.86113  0.90107  0.76319  1.0000
  Fe  Fe80      1.0  0.01858  0.96452  0.84228  1.0000
  C   C715      1.0  0.64545  0.75475  0.79292  1.0000
  H   H1268     1.0  0.67665  0.73756  0.82935  1.0000
  C   C716      1.0  0.60130  0.74865  0.83423  1.0000
  H   H1269     1.0  0.77501  0.85901  0.76720  1.0000
  H   H1270     1.0  0.79508  0.86540  0.94340  1.0000
  H   H1271     1.0  0.84669  0.85614  0.74961  1.0000
  C   C717      1.0  0.13767  0.97477  0.81507  1.0000
  H   H1272     1.0  0.49444  0.64615  0.76269  1.0000
  C   C718      1.0  0.02328  0.92275  0.75305  1.0000
  N   N40       1.0  0.92843  0.88668  0.74674  1.0000
  H   H1273     1.0  0.96684  0.97756  0.79134  1.0000
  C   C719      1.0  0.50258  0.64537  0.74376  1.0000
  H   H1274     1.0  0.15540  0.96738  0.88775  1.0000
  H   H1275     1.0  0.82935  0.94225  0.74838  1.0000
  H   H1276     1.0  0.04054  0.91083  0.75107  1.0000
  C   C720      1.0  0.13048  0.96895  0.90182  1.0000
  H   H1277     1.0  0.04866  0.97560  0.91147  1.0000
  H   H1278     1.0  0.75573  0.94817  0.74436  1.0000
  H   H1279     1.0  0.14808  0.97157  0.91919  1.0000
  H   H1280     1.0  0.34942  0.97705  0.78200  1.0000
