data_image0
_chemical_formula_structural       HSFeS2FeSFeHSFeS2FeS2FeSFeS3H2NH2SHFeS2FeSCFe2SHSFeS2FeS2FeSFeS3FeSCSHSFeSCSHSCHC6H5CH6C6H4CH2CSH4C6H3C6H4C2H5CH3C7H2C8H4CSC4H4C4H4CH7C3H2CHCH3C2FeH2FeC2HCH2C2H2CH3NC8H17C2SNC12H27CSH2FeHC2HCH7CH2C2H2CNCHC5HCNCH24C2SCNC12H28CSHCH3NH12CFeHC2H4CHCH4CH5C2HCH2SH2CH7CH4CH3CH3SHCH4CHCHC2H3CHCHCH3CHSH2CH3CH2CH2CHCHC3NCH2C2H3C2HC2H8C2HCH4CHCHCHSHCFeHC2SHCSH6C2H2FeSH2FeCSHFeS2FeS2FeSFeS2H5FeS2FeS2H4FeSCSFeS2FeS2Fe2S3FeS2FeSCFeSFeS3CHCH2C5HCH2CH2C6H8SHC6H5C2H2C6H5C2H8C6H3C6H5CH3CHNC6HC2H13CH11CHCFeHCH2CSHCHCH2C3H5NH5C3FeH5CH2CSC2HCHC3H2NH12CNC3H2CH7NH3C2H4SCH7C3HCNC8SHC2H17CSH10C2H3CHCHC2SCH2CH5CHCH2CH3CH6C3HC2H3CH2CH2CHCHC2FeHCH5C2H3C2H7SNC4H2C2HCHCHCH4CH3NHCHC5HNCH7CHC3H7CH3C2H7CHC2HCHNH2CH2CHCH3C2HCHCHCH3CHSHCHSCH3CSH2CHNHCH2CH2FeCH4C3H5CHC2H2SHC6H3FeHSH5SHCFeS2FeS2FeSFeS3FeSCSFeSCFeS2FeSCSCHFeS2FeS2FeSFeS3HSFeSHSFeS2FeS2HC2HC7H4C6H6C5H3CH3C6H4NC6H9C6HCHC2H3C2HC7H8C2H4CH2C2H2NC12H31C3H2CH5CHCH4C2H7CH2NH6CH6CHCH3SH4C2HCHCH2CH6CH2FeH2C2HCH6C2H2CH4C2HCH3C2H5C3H3SHCH7SH7SH3CNCHC2HC2N2HCH3NH7CH6C2HCH3C4H2CH2C2HNC11H25CHNH2FeCHCHC2H3C3HC3H3CH4CH2C4H3C3HCHCHCH3SH3CH2CHSCSC2H4C2H2CFe2HCH2CHCH4CHCH2FeHCHC2NC6H2C2H13C2NH3C2H2C2H2CH2CH9CHC2FeC2H3CH2C2HSCH2SC3H3CH6C4H2C2HCHCH5NHCNC2H2C2HCH5CH5CH5CHC2H6NH4CH4C2FeSHCH3SHCH2FeS2FeSFeSFeS3H2NSFeS2HSFeS2FeSCFeCFeS3H4CSHSH2FeS3FeH2SHC4FeHCHC5H4C7H5CH4CH2C2H3CH3NCHC2H3C6H4SHC2HFeC2FeHSCFeHCHC6HCH4C4H2NHCH2FeH2C2H3CNC12H23C2H4CH2CH2C3HCH2C2HCH7CHCH4C2HCHCH3NCHCHC3H2C2H7CSH5CSHCH6SHC3H5CHCH3CH2CHCH3CH2CH2NC6HSH2C2H2CH10CH8C2H6C2FeH10C2H2CHCH2CHC4H2FeH5CH8CH2CHCH6C2SH5C3H3SHC2H2CH4C2H7CHCNC3HC2H2CHC2HC2HNH4NSHC2H2C2H2SCH5CH4C3H5CHCH3CFeS2HSHFeHFeSHSFeS2FeS2FeSFeS2HCHCHSH3SHFeS2FeSFeSFeS3CNCHCHCHC6H5C3HC7H4C6H4CHC2H2C6H5C2H3CH2CH2CH10CSHNC12H26NC11H12SH12SFeHC2H5CHCHC2HCHSH5CHC2NCHCH2CH3CH7C2H2C3H2CH5CH2FeCH5CH12C2H2NHCHCH2CH2C3HC2H2NCNC9H7C2H6CH6CH6NCSC2H3SH2NH2SCH2CHCH2CH3SH8SCH2C3H8CH2CHCHCHC2H2CH2CHCH4CH2C2HCHCH3C4HCH2NC11H8CH11CH10C3H2CH10CH2C2HCH2SH2CFeC2NH2S2C2H3C2H3SHC2H2C2HSH2C2FeSHCSHFeHFeSHFeSHFeS2FeSFeS3CSH3FeHSCHCS2FeS2FeSFeSFeSFeCHFeS2H3CS2HNHCH3CHC7H7NH2C6H4CH3C6H5C4H2C7H4C2H5CSH7C2HCHNC3H2C2H6CHC2H2SHCHCH2CH4C3H2FeH2S2H9C2HSHCHCH2CH3FeCSH2C3HCH5CH5SH2C2H2NC10H2CH4CH2CHCH6CH7CH2CHCH4CH7CH3CH4CH2SHFeCHCH2CHC2NC10H18CHCHFeSH2C2NC2H5SFeH4NC3HC3H4CH17CH10C4HFeSH5CHC3H3C2H2SHC2H3SHCH2CH2CH9CH4CH3NC12H19C2H3CH5CHCH2CH3CHCH2SCNSHC2H3CHFeHC2HFeS2FeSFeCS2FeSHFeSHCHFeSHFeS2FeSFeS4FeSFeS2FeSFeS3HFeS3HCH6CHCH2CFeC4H2C3HCH3SHCHC3H4C2H2CH2C2HNHC6H5C2H5C6H6NCH2C2H3C2HC6H6CH3CH2C4H2NC5HC3H11CHCH9NH3CH4CH3C2H4NC2HSCHFeH2CH4CHC2NC2H2C2H5CH3CH3CH3FeH3C2H2CH3CHSH5CH5CH3CHSH4CH5CH2CHCH9C3H6C2H2C10H2CH4SH2SH3CH3CHC2HCH2C2H2CHSCHC2H3CH4CHSH4CHNC3H5NC12H10CHSH10SH3CHC2SCHCSCH2C2H2CHC2H8CHCH2C2H6CHC4H10Fe2HC2HCHCSCFe2HSHSHCS2H2SFeCSCHCSH3SH3FeS2FeS2FeSFeS3H2C3H4NHCH4C2H2CH2C2HC2HC8H5CH2SH3CH2C2HC6H5C3H3CH3CH2CSC6H4FeCH2C2H3CH10CH3C2HSHCH4C3H6CH2C2FeCH3CHCHFeCSCSCH2CH4C2H5SHC3H2C2H5CHC2SNFeCSH9CH3CHCHC2H5CHCNCHFeH8C2SH3CNH6C2H2C2NHSHC3HCHCHCHCHCH3C2H2CHNH3CHCH2C3H2SHSC2H6CHC3HCH2CFeH2FeHCH2CH3CH3CH3N2CH2NC8SC2H4CHSHCH11Fe2H3CH4SCH2CH5CH7CHCH4C3H3CH3CHNH10FeS2FeS2FeSFeHS2H2FeSFeSHSH2CHSNHC2HFeS2FeSHFeHFeS3H5CSFeS2FeS2FeSFeS3C6H4C2H2C6H4C6H6C5H4CHSNHCHC4H5C6H5C7H4C4H6CHC2H5SH6CHCHSNCH2CH3CH2SHCH4CH8CH2CH3C4HCH6CH7CH4CSH9CH2CH4CH6CH2C2NSNC10H18FeH2CH2CH2CHCHC2HCHCH4CHC2HC2H11C2H3SCHCH3C2H5C3HFeH5CH2CH4C2H6CH2C4HC2H2FeCHFeH3CHC2H2CH2NHC2HCHCH2C3H3CHC2HC2NH3CH8CHNSH3CHCH3CH3CHSH4C2H2NH5C2H2SCFeCH3CHSH2CHCH3CHCNCH2CH2CHCHCH3CH2CSH4FeCSFeCSH2FeNS2FeS2FeS2FeSFeS3H5SC2SCHFeSCFeS2FeSFeHS2FeS2FeSFeSFeS3HSFeS2FeHFeS3CH3C6H4C6H4C6H6NH2C2HCH6C6H4C3HC2H3C6H8CH5C6H4C3HCH4CHCH3C2H5CH3CH3C4HCHCH9CH7C7H13CH3CH2CHC5HNH3CH3NC3HCHSC3H12C2SH6CHC2HCHCHNC3H2CHC2HC2H6C2HC2H10C2H5FeNCH2C2SHC3H5CH2C2HCH3CHCHCH2CH5C3H2CSH5CHNH2CSHCH2C2SHC2FeH4CHCHCH4CH2C2H10SH6CH2C2HSCHSCSH3C3H4CHC2HNCHCH6NH3SH5C2H2C2H4CH3CH5CH8CH3C3H2SH4NCHC2HCH2C2HC3H2CH3CHC3H2CHSCFeSHSCFeS2FeS2FeHFeCS2HFeS2FeS2FeSFeS3FeS2H3FeSHSH5S2H2CH3FeSHFeS2FeHFeS3C6H5CHCHC2SH2C6H2C7H4CHC7H6C3HFeH2CHC6H9FeCH2FeHCHC6H5CHCHCH2C2HFeCH2SH2CHCH4CH3CSHC2H6SH2CH5CH2NHCH2C5SCH3C2H3CH5CH4CH4CHC2FeH3CH3CH2CH3NH4C2H7SH2C2NC3HC3HCH6CSH13CH2NC2SC3HC3H10C2H10NC12H17CH5CH5C2HCH2CH2SCHC2HCH4SH2CHCHC2H2CHCH3CH7SCHNH4CHSNC9H11CH3CH3CHFeH4CH2C2H6CH2CH2CH4SHFeSHFeS2FeSFeS3FeS2HSFeCFeS3FeS2FeS2Fe2S3FeSH3CSH2CFeSCFeS2FeH2FeSFeHS2HSH2C7H8C7H4C6H6NCHCSHNHC5HCH4C6H4C2NC3HCH2CHC4H3CH5CH3C2H7SH7C2H2CNCHC5H2C3H2CH13CH11NC5H2C2H16CHNC3H2C2H3C2H7CH3CH3C2H5CH6CHC3H3CH3C2H3C4SH2CH5C2H2C3HCHC4HCH3C2SH2C2HCH6C2H5CH3SHSNH2CH2C2H2CH2CHNC2HC3HC4H4SH8CH14CSH4FeHC2HCH5CHCSH2C2HCH2S2CHFeH3CH5C3FeHCHCH3CH3C2HC2H2C2NHC4SHCH2SC2HC2H3CHCH3CHNHFeHCSC2HSHCH3C2HCHCH4CH6CH8C3H4CH4CFeS2FeS2FeHFeS3HFeS2FeS2Fe2S3CH2FeSHFeSHFeSFeHS2CSCSH2CSCH6CH3C5HCH2SH4CHCH2C2H4CHC3HSC3H2C2H2C5H4FeCH6CH3SC6H4C2H2CHCH2CH2C2HC4H2CHC4NH4C2NCH2C2HSC2H3C2NH5CH2CHCH2CSHCHCH2C4HCH7CH6CNSH2FeH4C2H3CHCH5S2HCFeC3H2CHC4H2NH3CH15NC2H3CSCH3CSH2C3HC3HCHCH4CH3CH4CHCHCH8NHC6H3CH4CHFeHC3H4CH2CH2CHCNH3CH5FeH2CHC2H7CH3CH4CNHC2H2C4SH2CHCHC3HCSHCHCH5C5H2SH4C2HC2H2C4SCHCH2SC2H7CHCH4CH4CH6Fe2H3C2H3SH4CS2H3FeS2FeSHCSH2FeS2FeS2FeSFeS3H2FeS2FeSHSHCHFeS2H2FeS3C6H4CH2C8HCH2C5H4C2HCH2C3HCH2C6H7CHC6H4C6H2FeHCHCHC4HCHNC7H4CH11CH7CH4C2H9C2HCHCH4SHSHCH2CH4CHFeHCH6SHNH2CHCH3SH3CH2CH3C3H2CNFeCH3CH5CHC4H3CH12CHFeH6SC2H3CH2SC2HCH2C4H2CH3C2H5CH4CH5CH2C3H3CHCH2C2H3C3H3C3H2C2H2CH5SCH3CH8NH4C2HC2NHCH2CNCH5CFeHCNH2CHCHCH2CHCHCHSH5CH2CH4FeH3SH3CHC2H4CHSCH5CHCH4C2HNH4CHSC2FeSHSFeS2FeS2FeHFeS3FeHSCH5SHFeS2FeSFe2S3CFeHSFeCSFeH3S2FeHSHSH4CH4NC7H6CH3CH2CH4C6H4C6H5CH2C2H3C6H4C2H4FeC2H2C2HC2H5NH4C2H6CHSH13CH8NHC3HCH2CH3SHCH3CH4SCH5CH3SHC2HSH3CHC2H2C2H2CH2CSH2CHC2H5C2SH2CH3CHC2HC2H5C2HCHC2H9CSCHCH2C2H2CH3CH5CH4CH2C3NC6HC5H3CH8CHC3H2CH8NHC3H2CH4C2H6C2H6CHNH2C2HC4H2CH3CHCH2C3HCH4CHNH2CH2CH2CH2C3H2CHCH2CH4CHCHCH3NH2SCH6CHCH2CH2C4HCH5NH4CSCH2CHNH2CH10C2H3CH2CH4CHCFeHCH2SH2CFeS2FeS2Fe2S3FeS2HSFeSFeS2HFeSFeS2FeSFeS3H6NHSH2SH2CHC7H5C2HCH6C8H4C6H4CH4CHC4H5C7H4C2SH9CNH2C2FeC2H2FeHFeCH5CH3C2H4CHCHCH2CHC2HCSH3C3HCH2CNCHCH5CH2FeHCHCH4NHCH3CHCNCH3CH3NC12H25C2HC2H5CHNHCHC2H2C3HCSH6CH3CH6CH4CH2C5HC2H8CH2CH5CH8C2H3CHCHNC8H2C2H2CH12CHCFeCHCH10CH3CH4CH3CHCSH8C2H5CH2CH2C2HCH4C2HSH3SCH5CHCHCH5CH2CH2CHFeS2CH2CHC2H2FeS2CHCNS2FeS2FeSHFeSFeS4FeS2FeC2FeCFeS2H5CH2CHC2HCHCH4CH5C6H3CH3C2H2CFeH2FeHCHC7HCH4C4HC2H7C6H6NCHCH2FeCHSHCH3CH2CH2CHSCHCH2CH3CHCH2CHSC2H6CHCH4CHCH2C2H3CH4CH6CNCFeC5HC2H2CHN2H4SH7CH4C2H5SH3CH2CH2CH5C3H6CH2C2H6FeCH7CSCH3CHCSCHC2SC2H13NHCH6SCH3CH2CH7CHC2H2FeHSH2CH3CH7CH3NC11H6SH2CHCH6C2HFeH4CH2CHC2SC2H2SCH3CHCHCH5C2HCH2CH2CSH7C2H2CH7C2H3C2H3SHFeSFeHFeS2FeS2FeSFeS3CFeS2FeS2HC2HCSFeS2FeS2FeSFeS3HS2CSHFeS2FeCHSH4SHC4H3C3H2CH3C8H8CSH2CHCNFeSHC6H4C2FeCHSHC6H5CSC7H3C6H4C4H2C6H4CH3NHC3H4SH2C2H2CH5CH3NHNH6CHCH5FeHCFeHCH3CH2SCH2C3FeHCH2CH5CH5SH3CH10C3H2CHCH3CHCH3FeH10SCHC2H3CH2CH2SCH3CH4C3H3SH9CHCHCH2C4HFeC3H2C3HCHCH3CH6FeHC2HCH4SHNC11H32C2H2CH6C3H3N2C3H2C3H3NCSH2CH3SHCH2C2HNC4HCH10CHCH2C2HCHCHCH7CH2CH9CSH2NHCNC12H30C3H2CHC2HC2HC2H2CHC4HCH5CH4SH3CH3C2H8SHCH2C2H5CH4SCHC2H2C3H2C3H4C2HCH2FeS2FeSHFeS2Fe2S3HCSFeHSFeSHS2CFeS2FeS2FeSFeS3FeSH4FeSHSCFeS2FeSFeSFeS3HCHCHC7H4CH4CH3C6H4C6H3C2HC4H3NSCH3C5H5C6H4C6H5C4H3CHSC2HCHC2H2C2H4C2HFe2H2CSCHC4H4CH3FeCNC2HC2HNH2CH4CHCH8CH3C2H3CH3SHSCH2SCHCH2CH2NCHCH2C3FeCH2C2HC2HC2HC2H2C2H2SFeH5CH2CH5SNH16CHSH5CH2CH5NC10H24CHCH5C2H2CH4CHC2H2NH6CHSH4SHCHC2NHC4H2C3HCHCH9CHCH9C2H2CNC8HC3H14CH2CH9NC12H4CH7CH3CHC2H2CH2CH6CHCH3NHCH3FeCH2CH2SH3CHC2NH3C3H2CHCHCH4NHCHC2HCH3SHFeS2FeS2FeHFeSCSFeS2FeS2FeSFeS3FeSFeH3SFeS2FeS2FeSFeS3FeS2FeS2CFeS3HC3H2CH3C4H2C6H4CHCH3CH3C4H2CH4C6H4CHCHFeHCH7CH4C6H4C6H4CH5C3HCHCH7CH3C2H7CHCHC3HCH2CH2C2H3NC9H14CH5CH3CHCH3CH6SCH2C2HCH5C2HSH3C3HNC2HC2H2C3H7FeH5CNH11C5HSCH4CHC2HCHC2H3C3H3C2HCH2CHCHCH3CH3C2H6CHCNCH3CH3CH2CHCHCHCHCH2CHSC2H5CHCH6CH3SCH2CHCHC2NH4C3H7NC2H3CHSHFeNH8C2H8CHCH7NC10HCH6CNCH2CH2C2H6C2H3CHC2H12CHSH4CH
_chemical_formula_sum              "H6144 S768 Fe384 N192 C3456"
_cell_length_a       67.1285
_cell_length_b       67.1587
_cell_length_c       67.5821
_cell_angle_alpha    77.6515
_cell_angle_beta     77.6464
_cell_angle_gamma    77.6284

_space_group_name_H-M_alt    "P 1"
_space_group_IT_number       1

loop_
  _space_group_symop_operation_xyz
  'x, y, z'

loop_
  _atom_site_type_symbol
  _atom_site_label
  _atom_site_symmetry_multiplicity
  _atom_site_fract_x
  _atom_site_fract_y
  _atom_site_fract_z
  _atom_site_occupancy
  H   H1        1.0  0.34001  0.08243  0.30116  1.0000
  S   S1        1.0  0.34219  0.15689  0.41725  1.0000
  Fe  Fe1       1.0  0.28659  0.15589  0.41023  1.0000
  S   S2        1.0  0.31319  0.13043  0.40343  1.0000
  S   S3        1.0  0.25482  0.15157  0.40771  1.0000
  Fe  Fe2       1.0  0.32172  0.13365  0.43279  1.0000
  S   S4        1.0  0.33291  0.10656  0.45616  1.0000
  Fe  Fe3       1.0  0.33067  0.15613  0.38837  1.0000
  H   H2        1.0  0.23642  0.05244  0.19915  1.0000
  S   S5        1.0  0.29368  0.15711  0.44100  1.0000
  Fe  Fe4       1.0  0.35144  0.09402  0.21910  1.0000
  S   S6        1.0  0.38559  0.08241  0.21735  1.0000
  S   S7        1.0  0.33765  0.09316  0.19142  1.0000
  Fe  Fe5       1.0  0.34820  0.11126  0.25918  1.0000
  S   S8        1.0  0.38196  0.10066  0.26019  1.0000
  S   S9        1.0  0.32568  0.12751  0.28342  1.0000
  Fe  Fe6       1.0  0.38688  0.11241  0.22608  1.0000
  S   S10       1.0  0.40750  0.13510  0.20851  1.0000
  Fe  Fe7       1.0  0.37706  0.07187  0.25141  1.0000
  S   S11       1.0  0.38798  0.03986  0.26746  1.0000
  S   S12       1.0  0.35327  0.12500  0.22555  1.0000
  S   S13       1.0  0.34273  0.08150  0.25271  1.0000
  H   H3        1.0  0.45310  0.04689  0.12276  1.0000
  H   H4        1.0  0.07694  0.17886  0.20372  1.0000
  N   N1        1.0  0.12149  0.16018  0.36262  1.0000
  H   H5        1.0  0.27488  0.15897  0.23705  1.0000
  H   H6        1.0  0.24315  0.00186  0.34191  1.0000
  S   S14       1.0  0.31334  0.14834  0.11995  1.0000
  H   H7        1.0  0.16915  0.03399  0.24856  1.0000
  Fe  Fe8       1.0  0.28291  0.02820  0.14443  1.0000
  S   S15       1.0  0.30634  0.03678  0.11641  1.0000
  S   S16       1.0  0.28808  0.02797  0.17669  1.0000
  Fe  Fe9       1.0  0.25375  0.01854  0.11885  1.0000
  S   S17       1.0  0.27492  0.02730  0.08930  1.0000
  C   C1        1.0  0.47260  0.10944  0.17725  1.0000
  Fe  Fe10      1.0  0.30045  0.00931  0.10597  1.0000
  Fe  Fe11      1.0  0.27845  0.05401  0.10278  1.0000
  S   S18       1.0  0.27723  0.08629  0.08390  1.0000
  H   H8        1.0  0.32201  0.14111  0.19856  1.0000
  S   S19       1.0  0.25513  0.04683  0.13133  1.0000
  Fe  Fe12      1.0  0.21315  0.11913  0.32462  1.0000
  S   S20       1.0  0.21802  0.08501  0.33717  1.0000
  S   S21       1.0  0.23706  0.13879  0.32305  1.0000
  Fe  Fe13      1.0  0.17343  0.11854  0.30887  1.0000
  S   S22       1.0  0.17545  0.08435  0.31955  1.0000
  S   S23       1.0  0.14851  0.14007  0.29281  1.0000
  Fe  Fe14      1.0  0.18351  0.09065  0.34793  1.0000
  S   S24       1.0  0.16596  0.07704  0.37797  1.0000
  Fe  Fe15      1.0  0.20964  0.08186  0.30779  1.0000
  S   S25       1.0  0.22922  0.06094  0.28637  1.0000
  S   S26       1.0  0.17936  0.12515  0.33814  1.0000
  S   S27       1.0  0.20691  0.11561  0.29437  1.0000
  Fe  Fe16      1.0  0.02003  0.16638  0.27216  1.0000
  S   S28       1.0  0.03183  0.13999  0.29564  1.0000
  C   C2        1.0  0.27125  0.09815  0.23528  1.0000
  S   S29       1.0  0.01815  0.10953  0.27020  1.0000
  H   H9        1.0  0.34800  0.01697  0.17719  1.0000
  S   S30       1.0  0.36009  0.17724  0.10647  1.0000
  Fe  Fe17      1.0  0.04578  0.12446  0.26834  1.0000
  S   S31       1.0  0.07835  0.10573  0.26684  1.0000
  C   C3        1.0  0.46199  0.09687  0.19365  1.0000
  S   S32       1.0  0.03527  0.15161  0.24456  1.0000
  H   H10       1.0  0.27549  0.10453  0.43432  1.0000
  S   S33       1.0  0.35229  0.15483  0.35757  1.0000
  C   C4        1.0  0.24145  0.03626  0.29695  1.0000
  H   H11       1.0  0.26755  0.99505  0.21057  1.0000
  C   C5        1.0  0.12870  0.13030  0.28639  1.0000
  C   C6        1.0  0.11147  0.14411  0.27989  1.0000
  C   C7        1.0  0.09560  0.13674  0.27445  1.0000
  C   C8        1.0  0.09707  0.11550  0.27512  1.0000
  C   C9        1.0  0.11425  0.10172  0.28174  1.0000
  C   C10       1.0  0.12993  0.10906  0.28748  1.0000
  H   H12       1.0  0.11033  0.16057  0.27912  1.0000
  H   H13       1.0  0.08243  0.14750  0.26940  1.0000
  H   H14       1.0  0.11522  0.08529  0.28270  1.0000
  H   H15       1.0  0.14297  0.09832  0.29271  1.0000
  H   H16       1.0  0.11180  0.05016  0.25245  1.0000
  C   C11       1.0  0.17166  0.03394  0.45222  1.0000
  H   H17       1.0  0.30214  0.02689  0.26134  1.0000
  H   H18       1.0  0.17540  0.17494  0.40997  1.0000
  H   H19       1.0  0.26652  0.03819  0.44504  1.0000
  H   H20       1.0  0.36816  0.04144  0.18734  1.0000
  H   H21       1.0  0.46917  0.08106  0.19865  1.0000
  H   H22       1.0  0.19250  0.02343  0.28155  1.0000
  C   C12       1.0  0.30187  0.13226  0.10982  1.0000
  C   C13       1.0  0.29805  0.13705  0.08962  1.0000
  C   C14       1.0  0.28988  0.12315  0.08197  1.0000
  C   C15       1.0  0.28609  0.10416  0.09422  1.0000
  C   C16       1.0  0.28962  0.09956  0.11447  1.0000
  C   C17       1.0  0.29715  0.11370  0.12231  1.0000
  H   H23       1.0  0.30140  0.15142  0.07993  1.0000
  H   H24       1.0  0.28684  0.12693  0.06639  1.0000
  H   H25       1.0  0.28638  0.08516  0.12416  1.0000
  H   H26       1.0  0.29967  0.11010  0.13806  1.0000
  C   C18       1.0  0.30681  0.04160  0.26199  1.0000
  H   H27       1.0  0.30692  0.01294  0.29807  1.0000
  H   H28       1.0  0.29290  0.04636  0.35626  1.0000
  C   C19       1.0  0.30543  0.14694  0.20416  1.0000
  S   S34       1.0  0.45725  0.09994  0.08678  1.0000
  H   H29       1.0  0.23935  0.00707  0.07645  1.0000
  H   H30       1.0  0.27716  0.10584  0.21949  1.0000
  H   H31       1.0  0.33404  0.06310  0.46881  1.0000
  H   H32       1.0  0.28276  0.11378  0.30984  1.0000
  C   C20       1.0  0.18105  0.09519  0.43349  1.0000
  C   C21       1.0  0.16208  0.08925  0.43460  1.0000
  C   C22       1.0  0.15760  0.08361  0.41747  1.0000
  C   C23       1.0  0.17187  0.08441  0.39903  1.0000
  C   C24       1.0  0.19071  0.09078  0.39773  1.0000
  C   C25       1.0  0.19542  0.09588  0.41508  1.0000
  H   H33       1.0  0.14300  0.07876  0.41845  1.0000
  H   H34       1.0  0.20171  0.09154  0.38345  1.0000
  H   H35       1.0  0.20997  0.10075  0.41410  1.0000
  C   C26       1.0  0.32508  0.07388  0.18766  1.0000
  C   C27       1.0  0.32052  0.07492  0.16810  1.0000
  C   C28       1.0  0.30953  0.06076  0.16454  1.0000
  C   C29       1.0  0.30284  0.04538  0.18058  1.0000
  C   C30       1.0  0.30788  0.04394  0.20008  1.0000
  C   C31       1.0  0.31906  0.05807  0.20358  1.0000
  H   H36       1.0  0.32526  0.08694  0.15564  1.0000
  H   H37       1.0  0.30590  0.06200  0.14946  1.0000
  H   H38       1.0  0.30304  0.03192  0.21255  1.0000
  H   H39       1.0  0.32275  0.05695  0.21861  1.0000
  C   C32       1.0  0.37601  0.02289  0.25965  1.0000
  C   C33       1.0  0.36733  0.02905  0.24177  1.0000
  H   H40       1.0  0.09488  0.10754  0.34456  1.0000
  H   H41       1.0  0.15096  0.08862  0.44876  1.0000
  H   H42       1.0  0.37906  0.02895  0.10180  1.0000
  H   H43       1.0  0.43072  0.03530  0.13606  1.0000
  H   H44       1.0  0.36750  0.04448  0.23302  1.0000
  C   C34       1.0  0.10609  0.13047  0.35558  1.0000
  H   H45       1.0  0.46340  0.13176  0.05130  1.0000
  H   H46       1.0  0.35878  0.17435  0.26889  1.0000
  H   H47       1.0  0.34298  0.15599  0.15958  1.0000
  C   C35       1.0  0.36577  0.98942  0.26483  1.0000
  C   C36       1.0  0.34494  0.14588  0.33770  1.0000
  C   C37       1.0  0.35976  0.14172  0.32026  1.0000
  C   C38       1.0  0.35425  0.13539  0.30385  1.0000
  C   C39       1.0  0.33371  0.13360  0.30451  1.0000
  C   C40       1.0  0.31892  0.13765  0.32200  1.0000
  C   C41       1.0  0.32451  0.14355  0.33859  1.0000
  H   H48       1.0  0.37560  0.14341  0.31941  1.0000
  H   H49       1.0  0.36582  0.13237  0.29051  1.0000
  C   C42       1.0  0.08311  0.17711  0.21811  1.0000
  C   C43       1.0  0.23071  0.04660  0.21563  1.0000
  C   C44       1.0  0.25027  0.14793  0.38404  1.0000
  C   C45       1.0  0.23317  0.13910  0.38381  1.0000
  C   C46       1.0  0.22909  0.13607  0.36522  1.0000
  C   C47       1.0  0.24183  0.14233  0.34663  1.0000
  C   C48       1.0  0.25882  0.15134  0.34681  1.0000
  C   C49       1.0  0.26319  0.15391  0.36548  1.0000
  H   H50       1.0  0.22306  0.13445  0.39805  1.0000
  H   H51       1.0  0.21594  0.12914  0.36527  1.0000
  H   H52       1.0  0.26866  0.15629  0.33246  1.0000
  H   H53       1.0  0.27630  0.16087  0.36547  1.0000
  C   C50       1.0  0.44044  0.12173  0.07694  1.0000
  S   S35       1.0  0.32292  0.98506  0.09036  1.0000
  C   C51       1.0  0.43384  0.15211  0.05091  1.0000
  C   C52       1.0  0.41334  0.15647  0.06106  1.0000
  C   C53       1.0  0.40636  0.14341  0.07914  1.0000
  C   C54       1.0  0.41987  0.12591  0.08695  1.0000
  H   H54       1.0  0.45994  0.03556  0.15388  1.0000
  H   H55       1.0  0.39054  0.14666  0.08695  1.0000
  H   H56       1.0  0.41447  0.11576  0.10083  1.0000
  H   H57       1.0  0.18770  0.03521  0.31483  1.0000
  C   C55       1.0  0.16813  0.04154  0.47268  1.0000
  C   C56       1.0  0.43264  0.12499  0.19693  1.0000
  C   C57       1.0  0.44358  0.13782  0.18111  1.0000
  C   C58       1.0  0.46341  0.12999  0.17112  1.0000
  H   H58       1.0  0.30874  0.08782  0.43113  1.0000
  H   H59       1.0  0.43657  0.15373  0.17630  1.0000
  H   H60       1.0  0.47169  0.13988  0.15880  1.0000
  H   H61       1.0  0.10020  0.17210  0.21509  1.0000
  C   C59       1.0  0.10479  0.11953  0.33838  1.0000
  H   H62       1.0  0.11244  0.11833  0.36769  1.0000
  H   H63       1.0  0.09009  0.13747  0.36186  1.0000
  H   H64       1.0  0.12046  0.11183  0.33185  1.0000
  H   H65       1.0  0.09789  0.13075  0.32594  1.0000
  H   H66       1.0  0.13602  0.12829  0.42030  1.0000
  H   H67       1.0  0.15934  0.04247  0.44335  1.0000
  H   H68       1.0  0.22667  0.99434  0.05028  1.0000
  C   C60       1.0  0.31851  0.07081  0.47410  1.0000
  C   C61       1.0  0.33476  0.98903  0.18365  1.0000
  C   C62       1.0  0.16480  0.05119  0.24594  1.0000
  H   H69       1.0  0.26683  0.14536  0.22130  1.0000
  H   H70       1.0  0.23314  0.02776  0.45780  1.0000
  C   C63       1.0  0.43598  0.04867  0.12500  1.0000
  H   H71       1.0  0.16486  0.02598  0.28376  1.0000
  C   C64       1.0  0.43127  0.99643  0.23680  1.0000
  H   H72       1.0  0.24015  0.16538  0.46152  1.0000
  H   H73       1.0  0.18685  0.03683  0.44284  1.0000
  H   H74       1.0  0.32065  0.99688  0.19260  1.0000
  C   C65       1.0  0.23832  0.11815  0.45546  1.0000
  C   C66       1.0  0.29041  0.03338  0.32968  1.0000
  Fe  Fe18      1.0  0.32892  0.17462  0.10075  1.0000
  H   H75       1.0  0.40501  0.99590  0.22336  1.0000
  H   H76       1.0  0.99154  0.01128  0.17907  1.0000
  Fe  Fe19      1.0  0.48393  0.11093  0.09347  1.0000
  C   C67       1.0  0.22664  0.99856  0.08111  1.0000
  C   C68       1.0  0.17729  0.03257  0.28719  1.0000
  H   H77       1.0  0.17532  0.08795  0.23052  1.0000
  C   C69       1.0  0.13481  0.15623  0.39690  1.0000
  H   H78       1.0  0.15984  0.03846  0.31722  1.0000
  H   H79       1.0  0.34547  0.04764  0.29207  1.0000
  C   C70       1.0  0.48484  0.04680  0.16066  1.0000
  C   C71       1.0  0.29296  0.06567  0.42363  1.0000
  H   H80       1.0  0.05719  0.18023  0.37257  1.0000
  H   H81       1.0  0.27958  0.99730  0.28205  1.0000
  C   C72       1.0  0.17596  0.05578  0.27730  1.0000
  H   H82       1.0  0.30825  0.13875  0.23619  1.0000
  H   H83       1.0  0.28586  0.04778  0.28942  1.0000
  H   H84       1.0  0.36856  0.16170  0.14864  1.0000
  N   N2        1.0  0.42747  0.07116  0.15366  1.0000
  C   C73       1.0  0.41703  0.05547  0.16970  1.0000
  C   C74       1.0  0.44987  0.06903  0.15579  1.0000
  C   C75       1.0  0.41631  0.09245  0.15750  1.0000
  C   C76       1.0  0.42587  0.06947  0.13218  1.0000
  C   C77       1.0  0.39354  0.05677  0.17019  1.0000
  C   C78       1.0  0.42714  0.11096  0.14582  1.0000
  C   C79       1.0  0.38531  0.03897  0.18569  1.0000
  C   C80       1.0  0.41266  0.13162  0.14785  1.0000
  H   H85       1.0  0.41884  0.05705  0.18531  1.0000
  H   H86       1.0  0.42463  0.03943  0.16799  1.0000
  H   H87       1.0  0.24647  0.10576  0.26070  1.0000
  H   H88       1.0  0.45094  0.07778  0.16765  1.0000
  H   H89       1.0  0.41390  0.09321  0.17421  1.0000
  H   H90       1.0  0.40060  0.09569  0.15346  1.0000
  H   H91       1.0  0.40949  0.07318  0.13000  1.0000
  H   H92       1.0  0.38448  0.07143  0.17486  1.0000
  H   H93       1.0  0.39036  0.05583  0.15503  1.0000
  H   H94       1.0  0.43234  0.11054  0.12924  1.0000
  H   H95       1.0  0.44102  0.11083  0.15227  1.0000
  H   H96       1.0  0.43331  0.08133  0.12080  1.0000
  H   H97       1.0  0.38928  0.03827  0.20095  1.0000
  H   H98       1.0  0.42155  0.14446  0.14184  1.0000
  H   H99       1.0  0.40007  0.13383  0.13886  1.0000
  H   H100      1.0  0.40580  0.13230  0.16422  1.0000
  H   H101      1.0  0.30302  0.13627  0.32269  1.0000
  C   C81       1.0  0.17479  0.08380  0.24745  1.0000
  C   C82       1.0  0.34234  0.99639  0.32033  1.0000
  S   S36       1.0  0.15478  0.15097  0.47190  1.0000
  N   N3        1.0  0.36392  0.09349  0.09026  1.0000
  C   C83       1.0  0.34989  0.10056  0.07440  1.0000
  C   C84       1.0  0.36201  0.07167  0.10132  1.0000
  C   C85       1.0  0.35652  0.10763  0.10599  1.0000
  C   C86       1.0  0.38620  0.09514  0.08108  1.0000
  C   C87       1.0  0.39617  0.08445  0.06230  1.0000
  C   C88       1.0  0.34976  0.12308  0.06240  1.0000
  C   C89       1.0  0.36743  0.10203  0.12502  1.0000
  C   C90       1.0  0.35895  0.05633  0.08846  1.0000
  C   C91       1.0  0.36258  0.03401  0.09998  1.0000
  C   C92       1.0  0.41697  0.09104  0.05216  1.0000
  C   C93       1.0  0.33892  0.12705  0.04385  1.0000
  C   C94       1.0  0.35824  0.11736  0.13970  1.0000
  H   H102      1.0  0.33360  0.09930  0.08193  1.0000
  H   H103      1.0  0.35367  0.09027  0.06281  1.0000
  H   H104      1.0  0.37567  0.06460  0.10890  1.0000
  H   H105      1.0  0.34832  0.07189  0.11408  1.0000
  H   H106      1.0  0.33971  0.10798  0.11194  1.0000
  H   H107      1.0  0.35822  0.12388  0.09890  1.0000
  H   H108      1.0  0.38789  0.11166  0.07662  1.0000
  H   H109      1.0  0.39635  0.08851  0.09274  1.0000
  H   H110      1.0  0.38635  0.08846  0.05029  1.0000
  H   H111      1.0  0.39925  0.06742  0.06735  1.0000
  H   H112      1.0  0.34135  0.13432  0.07253  1.0000
  H   H113      1.0  0.36561  0.12646  0.05646  1.0000
  H   H114      1.0  0.38412  0.10278  0.12033  1.0000
  H   H115      1.0  0.36562  0.08634  0.13375  1.0000
  H   H116      1.0  0.34277  0.06008  0.08549  1.0000
  H   H117      1.0  0.36946  0.05701  0.07342  1.0000
  H   H118      1.0  0.35258  0.03252  0.11542  1.0000
  H   H119      1.0  0.35876  0.02359  0.09111  1.0000
  H   H120      1.0  0.41482  0.10800  0.04628  1.0000
  H   H121      1.0  0.42783  0.08712  0.06327  1.0000
  H   H122      1.0  0.42409  0.08289  0.03900  1.0000
  H   H123      1.0  0.34798  0.11760  0.03223  1.0000
  H   H124      1.0  0.32314  0.12319  0.04857  1.0000
  H   H125      1.0  0.33759  0.14367  0.03663  1.0000
  H   H126      1.0  0.36593  0.11308  0.15337  1.0000
  H   H127      1.0  0.36039  0.13323  0.13186  1.0000
  H   H128      1.0  0.34143  0.11729  0.14517  1.0000
  C   C95       1.0  0.18891  0.09606  0.25368  1.0000
  S   S37       1.0  0.27921  0.99911  0.13504  1.0000
  H   H129      1.0  0.27289  0.08873  0.28103  1.0000
  H   H130      1.0  0.20980  0.07519  0.21882  1.0000
  Fe  Fe20      1.0  0.00618  0.13801  0.24897  1.0000
  H   H131      1.0  0.34420  0.07096  0.42108  1.0000
  C   C96       1.0  0.22707  0.17350  0.47170  1.0000
  C   C97       1.0  0.24696  0.00826  0.32574  1.0000
  H   H132      1.0  0.41367  0.98466  0.18525  1.0000
  C   C98       1.0  0.26094  0.08081  0.23296  1.0000
  H   H133      1.0  0.31910  0.98343  0.16131  1.0000
  H   H134      1.0  0.48121  0.17509  0.13220  1.0000
  H   H135      1.0  0.45576  0.04137  0.17924  1.0000
  H   H136      1.0  0.26045  0.03116  0.26784  1.0000
  H   H137      1.0  0.13568  0.07373  0.25005  1.0000
  H   H138      1.0  0.14516  0.17201  0.32032  1.0000
  H   H139      1.0  0.24716  0.08722  0.22548  1.0000
  C   C99       1.0  0.33163  0.06215  0.42222  1.0000
  H   H140      1.0  0.16088  0.06444  0.28413  1.0000
  H   H141      1.0  0.13582  0.13910  0.34149  1.0000
  C   C100      1.0  0.26572  0.09235  0.43737  1.0000
  C   C101      1.0  0.25572  0.11414  0.24699  1.0000
  H   H142      1.0  0.24176  0.04866  0.22483  1.0000
  H   H143      1.0  0.19380  0.12764  0.24993  1.0000
  C   C102      1.0  0.28588  0.03413  0.35306  1.0000
  N   N4        1.0  0.27232  0.07911  0.42083  1.0000
  C   C103      1.0  0.26732  0.00543  0.29202  1.0000
  H   H144      1.0  0.21380  0.07026  0.14704  1.0000
  C   C104      1.0  0.27358  0.09322  0.40011  1.0000
  C   C105      1.0  0.25689  0.06531  0.42224  1.0000
  C   C106      1.0  0.25269  0.05041  0.44305  1.0000
  C   C107      1.0  0.24282  0.10349  0.44003  1.0000
  C   C108      1.0  0.28340  0.08260  0.38114  1.0000
  H   H145      1.0  0.33600  0.05266  0.40986  1.0000
  C   C109      1.0  0.23458  0.03972  0.44371  1.0000
  N   N5        1.0  0.31301  0.02915  0.31988  1.0000
  C   C110      1.0  0.28482  0.09847  0.36122  1.0000
  H   H146      1.0  0.11452  0.15683  0.33354  1.0000
  H   H147      1.0  0.43857  0.03327  0.09918  1.0000
  H   H148      1.0  0.29208  0.05684  0.43967  1.0000
  H   H149      1.0  0.28209  0.10588  0.39961  1.0000
  H   H150      1.0  0.25784  0.10136  0.39754  1.0000
  H   H151      1.0  0.24188  0.07470  0.41860  1.0000
  H   H152      1.0  0.26225  0.05528  0.41035  1.0000
  H   H153      1.0  0.22184  0.12578  0.45679  1.0000
  H   H154      1.0  0.22171  0.14669  0.24877  1.0000
  H   H155      1.0  0.23892  0.11266  0.42529  1.0000
  H   H156      1.0  0.23221  0.09215  0.44583  1.0000
  H   H157      1.0  0.27386  0.07162  0.37966  1.0000
  H   H158      1.0  0.29931  0.07407  0.38220  1.0000
  H   H159      1.0  0.23051  0.02981  0.21745  1.0000
  H   H160      1.0  0.25474  0.02695  0.35855  1.0000
  H   H161      1.0  0.42933  0.99346  0.20629  1.0000
  H   H162      1.0  0.21992  0.05120  0.44395  1.0000
  H   H163      1.0  0.17563  0.01307  0.31741  1.0000
  H   H164      1.0  0.44754  0.98877  0.23726  1.0000
  H   H165      1.0  0.24890  0.05852  0.45641  1.0000
  H   H166      1.0  0.29328  0.11069  0.36212  1.0000
  H   H167      1.0  0.29324  0.09072  0.34811  1.0000
  H   H168      1.0  0.26906  0.10576  0.35813  1.0000
  H   H169      1.0  0.22481  0.03667  0.32791  1.0000
  C   C111      1.0  0.30287  0.04534  0.28412  1.0000
  C   C112      1.0  0.46170  0.04691  0.16275  1.0000
  S   S38       1.0  0.99005  0.15547  0.27451  1.0000
  C   C113      1.0  0.32259  0.04718  0.32104  1.0000
  N   N6        1.0  0.20545  0.07329  0.08603  1.0000
  C   C114      1.0  0.20432  0.07103  0.10895  1.0000
  C   C115      1.0  0.19790  0.05545  0.08127  1.0000
  C   C116      1.0  0.22802  0.07228  0.07611  1.0000
  C   C117      1.0  0.19369  0.09383  0.07694  1.0000
  C   C118      1.0  0.17073  0.09969  0.08692  1.0000
  C   C119      1.0  0.21239  0.08790  0.11603  1.0000
  C   C120      1.0  0.23332  0.07060  0.05290  1.0000
  C   C121      1.0  0.17949  0.04710  0.09661  1.0000
  C   C122      1.0  0.16952  0.03402  0.08690  1.0000
  C   C123      1.0  0.16186  0.12208  0.07841  1.0000
  C   C124      1.0  0.20743  0.08601  0.13945  1.0000
  C   C125      1.0  0.25604  0.07196  0.04410  1.0000
  H   H170      1.0  0.21326  0.05567  0.11489  1.0000
  H   H171      1.0  0.18829  0.07077  0.11742  1.0000
  H   H172      1.0  0.19391  0.05942  0.06555  1.0000
  H   H173      1.0  0.21058  0.04167  0.08091  1.0000
  H   H174      1.0  0.23773  0.05878  0.08434  1.0000
  H   H175      1.0  0.23379  0.08617  0.07756  1.0000
  H   H176      1.0  0.20181  0.10666  0.07694  1.0000
  H   H177      1.0  0.19354  0.09434  0.06043  1.0000
  H   H178      1.0  0.16873  0.09830  0.10383  1.0000
  H   H179      1.0  0.16131  0.08976  0.08318  1.0000
  H   H180      1.0  0.22946  0.08636  0.11127  1.0000
  H   H181      1.0  0.20517  0.10370  0.10944  1.0000
  H   H182      1.0  0.22386  0.08324  0.04366  1.0000
  H   H183      1.0  0.23065  0.05556  0.05058  1.0000
  H   H184      1.0  0.18524  0.03714  0.11036  1.0000
  H   H185      1.0  0.16718  0.05948  0.10210  1.0000
  H   H186      1.0  0.16151  0.04390  0.07450  1.0000
  H   H187      1.0  0.16948  0.05812  0.46924  1.0000
  H   H188      1.0  0.25965  0.03934  0.37769  1.0000
  H   H189      1.0  0.16296  0.12438  0.06146  1.0000
  H   H190      1.0  0.14527  0.12579  0.08547  1.0000
  H   H191      1.0  0.17029  0.13298  0.08211  1.0000
  H   H192      1.0  0.21448  0.09742  0.14414  1.0000
  H   H193      1.0  0.19041  0.08922  0.14482  1.0000
  H   H194      1.0  0.13074  0.04940  0.22918  1.0000
  H   H195      1.0  0.25934  0.08720  0.04510  1.0000
  H   H196      1.0  0.26642  0.05950  0.05260  1.0000
  H   H197      1.0  0.25953  0.07023  0.02767  1.0000
  C   C126      1.0  0.29877  0.13555  0.22598  1.0000
  S   S39       1.0  0.22411  0.00596  0.12078  1.0000
  H   H198      1.0  0.30852  0.05973  0.28398  1.0000
  C   C127      1.0  0.12009  0.14715  0.34744  1.0000
  H   H199      1.0  0.27209  0.07047  0.22327  1.0000
  H   H200      1.0  0.24827  0.13018  0.45036  1.0000
  H   H201      1.0  0.10212  0.18153  0.38169  1.0000
  N   N7        1.0  0.17920  0.06061  0.25411  1.0000
  H   H202      1.0  0.43617  0.06097  0.09242  1.0000
  H   H203      1.0  0.30330  0.16385  0.20387  1.0000
  H   H204      1.0  0.23717  0.03199  0.43016  1.0000
  H   H205      1.0  0.36576  0.16435  0.21533  1.0000
  H   H206      1.0  0.16758  0.12553  0.24986  1.0000
  H   H207      1.0  0.32376  0.04717  0.33720  1.0000
  H   H208      1.0  0.24449  0.12183  0.23660  1.0000
  H   H209      1.0  0.19862  0.05551  0.21301  1.0000
  H   H210      1.0  0.99529  0.04764  0.97853  1.0000
  H   H211      1.0  0.17111  0.01714  0.45485  1.0000
  H   H212      1.0  0.36658  0.06969  0.30003  1.0000
  H   H213      1.0  0.28236  0.02139  0.32746  1.0000
  C   C128      1.0  0.10050  0.17133  0.37135  1.0000
  Fe  Fe21      1.0  0.00331  0.12768  0.29549  1.0000
  H   H214      1.0  0.18614  0.09478  0.27064  1.0000
  C   C129      1.0  0.43069  0.04812  0.10424  1.0000
  C   C130      1.0  0.37531  0.00304  0.27114  1.0000
  H   H215      1.0  0.35649  0.15583  0.25418  1.0000
  H   H216      1.0  0.13286  0.02845  0.25101  1.0000
  H   H217      1.0  0.20845  0.16397  0.27933  1.0000
  H   H218      1.0  0.30260  0.11878  0.22557  1.0000
  C   C131      1.0  0.34451  0.04864  0.30839  1.0000
  H   H219      1.0  0.12003  0.16370  0.40532  1.0000
  C   C132      1.0  0.31389  0.02663  0.29802  1.0000
  H   H220      1.0  0.14787  0.14806  0.42491  1.0000
  H   H221      1.0  0.29461  0.11156  0.26025  1.0000
  H   H222      1.0  0.09100  0.16010  0.38140  1.0000
  H   H223      1.0  0.28452  0.09097  0.24326  1.0000
  C   C133      1.0  0.26257  0.99703  0.31289  1.0000
  H   H224      1.0  0.26757  0.98359  0.23721  1.0000
  H   H225      1.0  0.18780  0.06136  0.28289  1.0000
  H   H226      1.0  0.15798  0.02640  0.09877  1.0000
  H   H227      1.0  0.33476  0.01459  0.15751  1.0000
  H   H228      1.0  0.15873  0.09023  0.25432  1.0000
  C   C134      1.0  0.12851  0.04546  0.24624  1.0000
  C   C135      1.0  0.18412  0.11908  0.24461  1.0000
  H   H229      1.0  0.34557  0.99481  0.11832  1.0000
  C   C136      1.0  0.35336  0.17560  0.17551  1.0000
  H   H230      1.0  0.38488  0.16586  0.18182  1.0000
  H   H231      1.0  0.43357  0.09461  0.21558  1.0000
  S   S40       1.0  0.39699  0.17870  0.05122  1.0000
  H   H232      1.0  0.29637  0.14403  0.19342  1.0000
  H   H233      1.0  0.23993  0.13604  0.27848  1.0000
  C   C137      1.0  0.20898  0.05844  0.22242  1.0000
  H   H234      1.0  0.23764  0.16607  0.23725  1.0000
  H   H235      1.0  0.28240  0.04843  0.32210  1.0000
  H   H236      1.0  0.28450  0.13206  0.27397  1.0000
  H   H237      1.0  0.35620  0.03634  0.31519  1.0000
  H   H238      1.0  0.29704  0.05367  0.41365  1.0000
  H   H239      1.0  0.00383  0.06125  0.28190  1.0000
  H   H240      1.0  0.31368  0.08656  0.40420  1.0000
  C   C138      1.0  0.23658  0.02796  0.31785  1.0000
  H   H241      1.0  0.46734  0.18182  0.15660  1.0000
  H   H242      1.0  0.25622  0.07141  0.24821  1.0000
  H   H243      1.0  0.38228  0.99816  0.28481  1.0000
  H   H244      1.0  0.35233  0.01973  0.22088  1.0000
  C   C139      1.0  0.21588  0.17233  0.26447  1.0000
  H   H245      1.0  0.31170  0.99823  0.33747  1.0000
  H   H246      1.0  0.35439  0.00577  0.31292  1.0000
  H   H247      1.0  0.16644  0.05599  0.22896  1.0000
  C   C140      1.0  0.99768  0.06278  0.29823  1.0000
  H   H248      1.0  0.39194  0.02396  0.18044  1.0000
  H   H249      1.0  0.19811  0.15945  0.45815  1.0000
  H   H250      1.0  0.33013  0.02306  0.28996  1.0000
  S   S41       1.0  0.47581  0.13190  0.11665  1.0000
  H   H251      1.0  0.99376  0.09488  0.23664  1.0000
  C   C141      1.0  0.28441  0.09946  0.30345  1.0000
  H   H252      1.0  0.25541  0.10823  0.29330  1.0000
  H   H253      1.0  0.30101  0.09423  0.29746  1.0000
  H   H254      1.0  0.27867  0.08739  0.31607  1.0000
  H   H255      1.0  0.14476  0.16809  0.39020  1.0000
  C   C142      1.0  0.17494  0.02973  0.31058  1.0000
  H   H256      1.0  0.15234  0.16812  0.35420  1.0000
  C   C143      1.0  0.14134  0.05692  0.25461  1.0000
  H   H257      1.0  0.31232  0.06200  0.31635  1.0000
  C   C144      1.0  0.23095  0.15707  0.25203  1.0000
  C   C145      1.0  0.27176  0.10357  0.28631  1.0000
  H   H258      1.0  0.29772  0.05445  0.25257  1.0000
  H   H259      1.0  0.20347  0.03438  0.24862  1.0000
  H   H260      1.0  0.29202  0.01906  0.36209  1.0000
  C   C146      1.0  0.44749  0.13495  0.05905  1.0000
  H   H261      1.0  0.43926  0.16222  0.03693  1.0000
  C   C147      1.0  0.42152  0.98789  0.22215  1.0000
  H   H262      1.0  0.11999  0.13480  0.38866  1.0000
  C   C148      1.0  0.35870  0.01508  0.23493  1.0000
  H   H263      1.0  0.25485  0.15564  0.26969  1.0000
  H   H264      1.0  0.20558  0.09037  0.24841  1.0000
  H   H265      1.0  0.20275  0.16545  0.40795  1.0000
  C   C149      1.0  0.20126  0.05158  0.24576  1.0000
  H   H266      1.0  0.25573  0.05434  0.35288  1.0000
  S   S42       1.0  0.18714  0.10130  0.45514  1.0000
  H   H267      1.0  0.32347  0.04090  0.25524  1.0000
  H   H268      1.0  0.13803  0.05286  0.27163  1.0000
  C   C150      1.0  0.26257  0.03900  0.36096  1.0000
  H   H269      1.0  0.21226  0.05513  0.25413  1.0000
  H   H270      1.0  0.26838  0.08305  0.45259  1.0000
  H   H271      1.0  0.45895  0.07630  0.14119  1.0000
  C   C151      1.0  0.27552  0.14308  0.23418  1.0000
  H   H272      1.0  0.35009  0.07125  0.32465  1.0000
  H   H273      1.0  0.00312  0.04804  0.30820  1.0000
  C   C152      1.0  0.21698  0.99539  0.10177  1.0000
  H   H274      1.0  0.41645  0.18016  0.46393  1.0000
  H   H275      1.0  0.44807  0.17159  0.10519  1.0000
  C   C153      1.0  0.20036  0.98441  0.10741  1.0000
  H   H276      1.0  0.31294  0.14668  0.35190  1.0000
  C   C154      1.0  0.35419  0.17264  0.25457  1.0000
  H   H277      1.0  0.18747  0.12151  0.22754  1.0000
  C   C155      1.0  0.14562  0.14032  0.41279  1.0000
  C   C156      1.0  0.27985  0.11988  0.26788  1.0000
  C   C157      1.0  0.24805  0.14442  0.26425  1.0000
  N   N8        1.0  0.26510  0.12995  0.25308  1.0000
  C   C158      1.0  0.13053  0.14573  0.38022  1.0000
  H   H278      1.0  0.14531  0.13591  0.37421  1.0000
  H   H279      1.0  0.40277  0.17978  0.20073  1.0000
  C   C159      1.0  0.34505  0.00589  0.16854  1.0000
  C   C160      1.0  0.13602  0.17542  0.35277  1.0000
  H   H280      1.0  0.05548  0.17489  0.29052  1.0000
  H   H281      1.0  0.08624  0.17751  0.34340  1.0000
  H   H282      1.0  0.21931  0.16405  0.43843  1.0000
  C   C161      1.0  0.32298  0.00913  0.33190  1.0000
  C   C162      1.0  0.35056  0.06927  0.30865  1.0000
  H   H283      1.0  0.07642  0.16476  0.22968  1.0000
  C   C163      1.0  0.43119  0.01967  0.22977  1.0000
  C   C164      1.0  0.31140  0.07728  0.41989  1.0000
  H   H284      1.0  0.42492  0.16198  0.10558  1.0000
  H   H285      1.0  0.33014  0.05173  0.43742  1.0000
  H   H286      1.0  0.18472  0.15284  0.42813  1.0000
  H   H287      1.0  0.18138  0.02182  0.08028  1.0000
  H   H288      1.0  0.41374  0.04936  0.10542  1.0000
  H   H289      1.0  0.36003  0.99901  0.15989  1.0000
  H   H290      1.0  0.34316  0.17076  0.19018  1.0000
  H   H291      1.0  0.16103  0.13289  0.40539  1.0000
  C   C165      1.0  0.44184  0.10448  0.20318  1.0000
  C   C166      1.0  0.37385  0.18067  0.17875  1.0000
  H   H292      1.0  0.43674  0.02578  0.24125  1.0000
  C   C167      1.0  0.25660  0.02480  0.28403  1.0000
  H   H293      1.0  0.00399  0.07523  0.30201  1.0000
  H   H294      1.0  0.27943  0.17108  0.04343  1.0000
  H   H295      1.0  0.38387  0.17627  0.23638  1.0000
  H   H296      1.0  0.32720  0.01205  0.34596  1.0000
  C   C168      1.0  0.18800  0.16799  0.41895  1.0000
  H   H297      1.0  0.44158  0.02267  0.21470  1.0000
  C   C169      1.0  0.35791  0.99527  0.24648  1.0000
  H   H298      1.0  0.42239  0.99424  0.25274  1.0000
  C   C170      1.0  0.35769  0.15808  0.16324  1.0000
  H   H299      1.0  0.41528  0.02817  0.22839  1.0000
  S   S43       1.0  0.30346  0.18184  0.39369  1.0000
  H   H300      1.0  0.38489  0.17612  0.41362  1.0000
  C   C171      1.0  0.43124  0.17616  0.10481  1.0000
  Fe  Fe22      1.0  0.31365  0.18051  0.42390  1.0000
  H   H301      1.0  0.33749  0.17938  0.25513  1.0000
  C   C172      1.0  0.20519  0.17210  0.44747  1.0000
  C   C173      1.0  0.36162  0.18129  0.21547  1.0000
  S   S44       1.0  0.09823  0.17150  0.45669  1.0000
  H   H302      1.0  0.36450  0.14334  0.17238  1.0000
  C   C174      1.0  0.21941  0.99131  0.06627  1.0000
  S   S45       1.0  0.33720  0.18192  0.06638  1.0000
  H   H303      1.0  0.20351  0.18089  0.25568  1.0000
  H   H304      1.0  0.48744  0.05693  0.17053  1.0000
  H   H305      1.0  0.33795  0.99025  0.30820  1.0000
  H   H306      1.0  0.32353  0.15576  0.47391  1.0000
  H   H307      1.0  0.24101  0.10951  0.47080  1.0000
  H   H308      1.0  0.99497  0.17024  0.33497  1.0000
  C   C175      1.0  0.31369  0.09245  0.47022  1.0000
  C   C176      1.0  0.18947  0.18260  0.43288  1.0000
  H   H309      1.0  0.43506  0.18272  0.07205  1.0000
  H   H310      1.0  0.35737  0.98303  0.34697  1.0000
  Fe  Fe23      1.0  0.12274  0.11270  0.51018  1.0000
  S   S46       1.0  0.10413  0.09055  0.53257  1.0000
  H   H311      1.0  0.01788  0.00405  0.80878  1.0000
  H   H312      1.0  0.35539  0.05566  0.50932  1.0000
  Fe  Fe24      1.0  0.14973  0.14449  0.50630  1.0000
  C   C177      1.0  0.06032  0.99734  0.63729  1.0000
  S   S47       1.0  0.15672  0.11004  0.50925  1.0000
  H   H313      1.0  0.17661  0.00594  0.55794  1.0000
  Fe  Fe25      1.0  0.08587  0.07004  0.64839  1.0000
  S   S48       1.0  0.05174  0.08036  0.64907  1.0000
  S   S49       1.0  0.10974  0.08601  0.62566  1.0000
  Fe  Fe26      1.0  0.07996  0.03595  0.68542  1.0000
  S   S50       1.0  0.04541  0.04335  0.68934  1.0000
  S   S51       1.0  0.09314  0.00909  0.70756  1.0000
  Fe  Fe27      1.0  0.05096  0.04627  0.65507  1.0000
  S   S52       1.0  0.03112  0.03303  0.64024  1.0000
  Fe  Fe28      1.0  0.04955  0.07648  0.68332  1.0000
  S   S53       1.0  0.08535  0.03631  0.65147  1.0000
  S   S54       1.0  0.08394  0.06877  0.68216  1.0000
  H   H314      1.0  0.17396  0.04301  0.54594  1.0000
  H   H315      1.0  0.01752  0.04122  0.59979  1.0000
  H   H316      1.0  0.18541  0.04697  0.84653  1.0000
  H   H317      1.0  0.13910  0.05103  0.56645  1.0000
  H   H318      1.0  0.25028  0.13705  0.48895  1.0000
  Fe  Fe29      1.0  0.08385  0.15528  0.89254  1.0000
  S   S55       1.0  0.10478  0.12455  0.88798  1.0000
  S   S56       1.0  0.05690  0.15811  0.91883  1.0000
  Fe  Fe30      1.0  0.10945  0.02011  0.80884  1.0000
  S   S57       1.0  0.07519  0.02670  0.82013  1.0000
  S   S58       1.0  0.12237  0.03745  0.77825  1.0000
  H   H319      1.0  0.34317  0.05341  0.53595  1.0000
  H   H320      1.0  0.28817  0.01362  0.65294  1.0000
  H   H321      1.0  0.12302  0.02530  0.50656  1.0000
  H   H322      1.0  0.00870  0.04831  0.91019  1.0000
  Fe  Fe31      1.0  0.08460  0.02852  0.84962  1.0000
  S   S59       1.0  0.06752  0.05290  0.86856  1.0000
  C   C178      1.0  0.48426  0.08112  0.60952  1.0000
  S   S60       1.0  0.11863  0.02402  0.83767  1.0000
  Fe  Fe32      1.0  0.28303  0.04988  0.57183  1.0000
  S   S61       1.0  0.27598  0.02578  0.55692  1.0000
  S   S62       1.0  0.31640  0.04693  0.57598  1.0000
  Fe  Fe33      1.0  0.23916  0.07387  0.57338  1.0000
  S   S63       1.0  0.22851  0.05235  0.55828  1.0000
  S   S64       1.0  0.21847  0.10112  0.58558  1.0000
  Fe  Fe34      1.0  0.24568  0.02716  0.57910  1.0000
  Fe  Fe35      1.0  0.25931  0.05264  0.53739  1.0000
  S   S65       1.0  0.26390  0.05422  0.50331  1.0000
  S   S66       1.0  0.25433  0.04877  0.59593  1.0000
  S   S67       1.0  0.26838  0.07662  0.55038  1.0000
  Fe  Fe36      1.0  0.42507  0.10565  0.63664  1.0000
  S   S68       1.0  0.41714  0.09125  0.61253  1.0000
  S   S69       1.0  0.44857  0.08741  0.65681  1.0000
  Fe  Fe37      1.0  0.40028  0.14768  0.62176  1.0000
  S   S70       1.0  0.39093  0.13719  0.59633  1.0000
  C   C179      1.0  0.02984  0.07688  0.81127  1.0000
  Fe  Fe38      1.0  0.38466  0.10896  0.61971  1.0000
  S   S71       1.0  0.35290  0.09994  0.62319  1.0000
  Fe  Fe39      1.0  0.42375  0.12053  0.59105  1.0000
  S   S72       1.0  0.44127  0.12009  0.55870  1.0000
  S   S73       1.0  0.39193  0.12078  0.64594  1.0000
  S   S74       1.0  0.43380  0.13351  0.61438  1.0000
  C   C180      1.0  0.47232  0.16065  0.51701  1.0000
  H   H323      1.0  0.47101  0.04919  0.64066  1.0000
  C   C181      1.0  0.45507  0.14045  0.54765  1.0000
  H   H324      1.0  0.09609  0.14703  0.55749  1.0000
  H   H325      1.0  0.24436  0.15470  0.50709  1.0000
  C   C182      1.0  0.00256  0.15765  0.87894  1.0000
  C   C183      1.0  0.44730  0.13936  0.76986  1.0000
  C   C184      1.0  0.46005  0.09871  0.67209  1.0000
  C   C185      1.0  0.45339  0.11934  0.67477  1.0000
  C   C186      1.0  0.46225  0.12746  0.68778  1.0000
  H   H326      1.0  0.35813  0.98579  0.55752  1.0000
  C   C187      1.0  0.08894  0.14791  0.59096  1.0000
  H   H327      1.0  0.02388  0.15878  0.58895  1.0000
  H   H328      1.0  0.44104  0.12888  0.66722  1.0000
  C   C188      1.0  0.29374  0.10241  0.47755  1.0000
  H   H329      1.0  0.03222  0.05895  0.90065  1.0000
  H   H330      1.0  0.03167  0.09984  0.57490  1.0000
  C   C189      1.0  0.32612  0.06301  0.58801  1.0000
  C   C190      1.0  0.31313  0.07526  0.60160  1.0000
  C   C191      1.0  0.32163  0.08670  0.61191  1.0000
  C   C192      1.0  0.34313  0.08629  0.60859  1.0000
  C   C193      1.0  0.35606  0.07461  0.59443  1.0000
  C   C194      1.0  0.34760  0.06288  0.58435  1.0000
  H   H331      1.0  0.29660  0.07548  0.60463  1.0000
  H   H332      1.0  0.31149  0.09570  0.62282  1.0000
  H   H333      1.0  0.37262  0.07411  0.59175  1.0000
  H   H334      1.0  0.35779  0.05344  0.57387  1.0000
  H   H335      1.0  0.99259  0.04579  0.81642  1.0000
  H   H336      1.0  0.22477  0.08029  0.48657  1.0000
  H   H337      1.0  0.09973  0.13319  0.59504  1.0000
  H   H338      1.0  0.04272  0.00139  0.77233  1.0000
  S   S75       1.0  0.03259  0.10116  0.70196  1.0000
  H   H339      1.0  0.23250  0.13201  0.51272  1.0000
  C   C195      1.0  0.09469  0.10525  0.88099  1.0000
  C   C196      1.0  0.07365  0.10778  0.88017  1.0000
  C   C197      1.0  0.06577  0.09177  0.87569  1.0000
  C   C198      1.0  0.07879  0.07319  0.87183  1.0000
  C   C199      1.0  0.09998  0.07082  0.87201  1.0000
  C   C200      1.0  0.10787  0.08678  0.87669  1.0000
  H   H340      1.0  0.06343  0.12194  0.88340  1.0000
  H   H341      1.0  0.04949  0.09370  0.87520  1.0000
  H   H342      1.0  0.11014  0.05652  0.86911  1.0000
  H   H343      1.0  0.12417  0.08474  0.87724  1.0000
  H   H344      1.0  0.29781  0.15455  0.50688  1.0000
  C   C201      1.0  0.01890  0.14382  0.87001  1.0000
  C   C202      1.0  0.01479  0.12865  0.86071  1.0000
  H   H345      1.0  0.03469  0.14460  0.87055  1.0000
  H   H346      1.0  0.33741  0.12845  0.58418  1.0000
  C   C203      1.0  0.10134  0.01730  0.72692  1.0000
  C   C204      1.0  0.09766  0.00660  0.74710  1.0000
  C   C205      1.0  0.10386  0.01299  0.76290  1.0000
  C   C206      1.0  0.11427  0.02977  0.75847  1.0000
  C   C207      1.0  0.11815  0.04041  0.73821  1.0000
  C   C208      1.0  0.11151  0.03429  0.72244  1.0000
  H   H347      1.0  0.99102  0.01078  0.80584  1.0000
  H   H348      1.0  0.10060  0.00489  0.77849  1.0000
  H   H349      1.0  0.12616  0.05344  0.73476  1.0000
  H   H350      1.0  0.11459  0.04248  0.70682  1.0000
  H   H351      1.0  0.02374  0.02350  0.77705  1.0000
  C   C209      1.0  0.04001  0.00749  0.63584  1.0000
  C   C210      1.0  0.23691  0.00479  0.51978  1.0000
  H   H352      1.0  0.06629  0.01541  0.91959  1.0000
  H   H353      1.0  0.07257  0.98376  0.58474  1.0000
  H   H354      1.0  0.46818  0.15424  0.74535  1.0000
  H   H355      1.0  0.28574  0.12241  0.53293  1.0000
  H   H356      1.0  0.07061  0.00469  0.64232  1.0000
  H   H357      1.0  0.05702  0.10306  0.56051  1.0000
  H   H358      1.0  0.01097  0.00528  0.62853  1.0000
  H   H359      1.0  0.09315  0.01606  0.91953  1.0000
  C   C211      1.0  0.10640  0.08881  0.55833  1.0000
  C   C212      1.0  0.12055  0.09857  0.56345  1.0000
  C   C213      1.0  0.12191  0.09712  0.58417  1.0000
  C   C214      1.0  0.10890  0.08624  0.59983  1.0000
  C   C215      1.0  0.09491  0.07630  0.59472  1.0000
  C   C216      1.0  0.09374  0.07755  0.57399  1.0000
  H   H360      1.0  0.13038  0.10732  0.55149  1.0000
  H   H361      1.0  0.13284  0.10476  0.58806  1.0000
  H   H362      1.0  0.08479  0.06789  0.60673  1.0000
  C   C217      1.0  0.17926  0.14393  0.54070  1.0000
  C   C218      1.0  0.19138  0.12547  0.53542  1.0000
  C   C219      1.0  0.20381  0.11238  0.54898  1.0000
  C   C220      1.0  0.20372  0.11753  0.56800  1.0000
  C   C221      1.0  0.19161  0.13600  0.57322  1.0000
  C   C222      1.0  0.17962  0.14929  0.55949  1.0000
  H   H363      1.0  0.19161  0.12158  0.52068  1.0000
  H   H364      1.0  0.21339  0.09829  0.54477  1.0000
  H   H365      1.0  0.19161  0.14009  0.58786  1.0000
  H   H366      1.0  0.03066  0.10350  0.90554  1.0000
  H   H367      1.0  0.05510  0.17353  0.57825  1.0000
  C   C223      1.0  0.28323  0.06898  0.49149  1.0000
  H   H368      1.0  0.23143  0.00295  0.84807  1.0000
  H   H369      1.0  0.48145  0.15860  0.80366  1.0000
  H   H370      1.0  0.20526  0.01393  0.81944  1.0000
  C   C224      1.0  0.46866  0.14613  0.76148  1.0000
  H   H371      1.0  0.20320  0.05778  0.48229  1.0000
  N   N9        1.0  0.03939  0.09342  0.79549  1.0000
  C   C225      1.0  0.05507  0.09989  0.80473  1.0000
  C   C226      1.0  0.02222  0.11168  0.79187  1.0000
  C   C227      1.0  0.04879  0.08477  0.77595  1.0000
  C   C228      1.0  0.06765  0.09361  0.76201  1.0000
  C   C229      1.0  0.07168  0.08205  0.81306  1.0000
  C   C230      1.0  0.02827  0.13116  0.77682  1.0000
  H   H372      1.0  0.01018  0.06687  0.71229  1.0000
  C   C231      1.0  0.07357  0.08538  0.74174  1.0000
  C   C232      1.0  0.08964  0.09022  0.81729  1.0000
  H   H373      1.0  0.04706  0.10796  0.81786  1.0000
  H   H374      1.0  0.06329  0.11141  0.79357  1.0000
  H   H375      1.0  0.01027  0.10732  0.78539  1.0000
  H   H376      1.0  0.01419  0.11641  0.80686  1.0000
  H   H377      1.0  0.02429  0.08215  0.82640  1.0000
  H   H378      1.0  0.05425  0.06771  0.77956  1.0000
  H   H379      1.0  0.03672  0.08667  0.76631  1.0000
  H   H380      1.0  0.08144  0.08889  0.76962  1.0000
  H   H381      1.0  0.06462  0.11070  0.75833  1.0000
  H   H382      1.0  0.06463  0.07333  0.82780  1.0000
  H   H383      1.0  0.07802  0.07108  0.80218  1.0000
  H   H384      1.0  0.04093  0.13665  0.78108  1.0000
  H   H385      1.0  0.03295  0.12785  0.76093  1.0000
  C   C233      1.0  0.33245  0.13967  0.55256  1.0000
  H   H386      1.0  0.99549  0.99185  0.84071  1.0000
  H   H387      1.0  0.06030  0.03453  0.75615  1.0000
  H   H388      1.0  0.07793  0.06824  0.74468  1.0000
  H   H389      1.0  0.06050  0.08993  0.73309  1.0000
  H   H390      1.0  0.08708  0.09185  0.73203  1.0000
  H   H391      1.0  0.09798  0.09825  0.80279  1.0000
  H   H392      1.0  0.08391  0.10105  0.82844  1.0000
  H   H393      1.0  0.10074  0.07704  0.82401  1.0000
  H   H394      1.0  0.31186  0.99807  0.62469  1.0000
  H   H395      1.0  0.99506  0.03272  0.95919  1.0000
  H   H396      1.0  0.30684  0.04235  0.48664  1.0000
  C   C234      1.0  0.13489  0.01496  0.66433  1.0000
  H   H397      1.0  0.12864  0.00304  0.65956  1.0000
  C   C235      1.0  0.48620  0.05785  0.60894  1.0000
  Fe  Fe40      1.0  0.04003  0.17728  0.89383  1.0000
  H   H398      1.0  0.06064  0.10813  0.92377  1.0000
  C   C236      1.0  0.04830  0.04061  0.74630  1.0000
  H   H399      1.0  0.22536  0.98621  0.83333  1.0000
  H   H400      1.0  0.48074  0.13204  0.76004  1.0000
  C   C237      1.0  0.00981  0.14904  0.77661  1.0000
  S   S76       1.0  0.16402  0.16086  0.52384  1.0000
  H   H401      1.0  0.14582  0.00708  0.67499  1.0000
  C   C238      1.0  0.06366  0.13181  0.61761  1.0000
  H   H402      1.0  0.22147  0.08921  0.51049  1.0000
  C   C239      1.0  0.08262  0.00918  0.91338  1.0000
  H   H403      1.0  0.99000  0.08222  0.95376  1.0000
  H   H404      1.0  0.16991  0.00858  0.89334  1.0000
  C   C240      1.0  0.21972  0.15670  0.48992  1.0000
  C   C241      1.0  0.04230  0.17282  0.81643  1.0000
  C   C242      1.0  0.98988  0.10987  0.92220  1.0000
  H   H405      1.0  0.32755  0.05912  0.51605  1.0000
  H   H406      1.0  0.12402  0.16771  0.54902  1.0000
  H   H407      1.0  0.04587  0.16137  0.80594  1.0000
  H   H408      1.0  0.26338  0.09825  0.49473  1.0000
  H   H409      1.0  0.41499  0.16870  0.56640  1.0000
  N   N10       1.0  0.01201  0.99976  0.76793  1.0000
  H   H410      1.0  0.08962  0.99365  0.75057  1.0000
  H   H411      1.0  0.19883  0.06763  0.86647  1.0000
  H   H412      1.0  0.26374  0.14022  0.57237  1.0000
  H   H413      1.0  0.47858  0.12256  0.59213  1.0000
  H   H414      1.0  0.04167  0.06274  0.81409  1.0000
  C   C243      1.0  0.99434  0.12722  0.86026  1.0000
  C   C244      1.0  0.40258  0.15696  0.53294  1.0000
  C   C245      1.0  0.06397  0.13201  0.58075  1.0000
  Fe  Fe41      1.0  0.11790  0.98998  0.84744  1.0000
  H   H415      1.0  0.31208  0.99821  0.57424  1.0000
  H   H416      1.0  0.00867  0.09357  0.88864  1.0000
  H   H417      1.0  0.42944  0.16426  0.49627  1.0000
  H   H418      1.0  0.03761  0.07874  0.91995  1.0000
  H   H419      1.0  0.13211  0.99613  0.60607  1.0000
  C   C246      1.0  0.01317  0.09400  0.72272  1.0000
  H   H420      1.0  0.46795  0.08880  0.60836  1.0000
  H   H421      1.0  0.02049  0.09786  0.95275  1.0000
  C   C247      1.0  0.45908  0.15322  0.55965  1.0000
  S   S77       1.0  0.11231  0.98552  0.81733  1.0000
  C   C248      1.0  0.08713  0.01778  0.58519  1.0000
  C   C249      1.0  0.22187  0.01544  0.50503  1.0000
  H   H422      1.0  0.44612  0.13131  0.78608  1.0000
  C   C250      1.0  0.27866  0.09064  0.48866  1.0000
  H   H423      1.0  0.08755  0.17264  0.56357  1.0000
  C   C251      1.0  0.19962  0.02158  0.51694  1.0000
  C   C252      1.0  0.09680  0.15719  0.56819  1.0000
  C   C253      1.0  0.17576  0.03285  0.81612  1.0000
  H   H424      1.0  0.17038  0.16362  0.56356  1.0000
  H   H425      1.0  0.05593  0.04713  0.73070  1.0000
  N   N11       1.0  0.39752  0.18020  0.52744  1.0000
  H   H426      1.0  0.10263  0.00272  0.53281  1.0000
  H   H427      1.0  0.05342  0.10991  0.95063  1.0000
  H   H428      1.0  0.31704  0.17991  0.48333  1.0000
  H   H429      1.0  0.04335  0.02299  0.56464  1.0000
  H   H430      1.0  0.26094  0.02093  0.65189  1.0000
  H   H431      1.0  0.45833  0.14968  0.80435  1.0000
  H   H432      1.0  0.02435  0.04839  0.93655  1.0000
  H   H433      1.0  0.00127  0.05354  0.83663  1.0000
  H   H434      1.0  0.12753  0.04932  0.54538  1.0000
  H   H435      1.0  0.45375  0.05643  0.62210  1.0000
  H   H436      1.0  0.45663  0.14328  0.69009  1.0000
  H   H437      1.0  0.20627  0.01710  0.56651  1.0000
  C   C254      1.0  0.16065  0.00426  0.88375  1.0000
  N   N12       1.0  0.31859  0.11745  0.53315  1.0000
  C   C255      1.0  0.29637  0.12495  0.54242  1.0000
  C   C256      1.0  0.32411  0.12941  0.51161  1.0000
  C   C257      1.0  0.32038  0.09500  0.53144  1.0000
  H   H438      1.0  0.34126  0.12776  0.50695  1.0000
  H   H439      1.0  0.41949  0.15152  0.52911  1.0000
  C   C258      1.0  0.28923  0.11511  0.56516  1.0000
  H   H440      1.0  0.09121  0.15871  0.60034  1.0000
  H   H441      1.0  0.21108  0.03340  0.84242  1.0000
  H   H442      1.0  0.12186  0.02497  0.67261  1.0000
  H   H443      1.0  0.47738  0.16350  0.50051  1.0000
  H   H444      1.0  0.02749  0.11769  0.85424  1.0000
  H   H445      1.0  0.05679  0.15719  0.63543  1.0000
  H   H446      1.0  0.34145  0.16323  0.48638  1.0000
  N   N13       1.0  0.18507  0.03745  0.50487  1.0000
  H   H447      1.0  0.15970  0.03623  0.82450  1.0000
  H   H448      1.0  0.17914  0.07055  0.49389  1.0000
  H   H449      1.0  0.31847  0.08515  0.54692  1.0000
  C   C259      1.0  0.10799  0.03213  0.51518  1.0000
  C   C260      1.0  0.46192  0.14408  0.52632  1.0000
  H   H450      1.0  0.04646  0.12572  0.65940  1.0000
  H   H451      1.0  0.19281  0.06977  0.52542  1.0000
  H   H452      1.0  0.29127  0.09806  0.56720  1.0000
  H   H453      1.0  0.06648  0.99101  0.68346  1.0000
  S   S78       1.0  0.06651  0.17360  0.86750  1.0000
  C   C261      1.0  0.04747  0.11768  0.58782  1.0000
  H   H454      1.0  0.18278  0.04692  0.81373  1.0000
  H   H455      1.0  0.01637  0.99598  0.73611  1.0000
  H   H456      1.0  0.33935  0.15010  0.53905  1.0000
  H   H457      1.0  0.08360  0.04317  0.54988  1.0000
  H   H458      1.0  0.22959  0.02640  0.63177  1.0000
  H   H459      1.0  0.47072  0.11957  0.83145  1.0000
  H   H460      1.0  0.30766  0.09314  0.52409  1.0000
  C   C262      1.0  0.31458  0.15279  0.50732  1.0000
  C   C263      1.0  0.27829  0.00151  0.62981  1.0000
  C   C264      1.0  0.44627  0.17640  0.64384  1.0000
  H   H461      1.0  0.20650  0.02062  0.88220  1.0000
  C   C265      1.0  0.44362  0.12457  0.75721  1.0000
  N   N14       1.0  0.16787  0.05765  0.63603  1.0000
  C   C266      1.0  0.16603  0.05693  0.61432  1.0000
  C   C267      1.0  0.15175  0.04689  0.65125  1.0000
  C   C268      1.0  0.16370  0.08018  0.63829  1.0000
  C   C269      1.0  0.18936  0.04834  0.64039  1.0000
  C   C270      1.0  0.19669  0.02504  0.63948  1.0000
  C   C271      1.0  0.17931  0.06996  0.59681  1.0000
  C   C272      1.0  0.16071  0.08463  0.66050  1.0000
  C   C273      1.0  0.14586  0.02795  0.64543  1.0000
  S   S79       1.0  0.48782  0.12574  0.71523  1.0000
  H   H462      1.0  0.04634  0.01320  0.59062  1.0000
  C   C274      1.0  0.17659  0.06697  0.57590  1.0000
  C   C275      1.0  0.15569  0.10793  0.66049  1.0000
  H   H463      1.0  0.14962  0.06241  0.61224  1.0000
  H   H464      1.0  0.16997  0.04086  0.61125  1.0000
  H   H465      1.0  0.15649  0.04213  0.66666  1.0000
  H   H466      1.0  0.13674  0.05783  0.65361  1.0000
  H   H467      1.0  0.14962  0.08850  0.63185  1.0000
  H   H468      1.0  0.17667  0.08801  0.62916  1.0000
  H   H469      1.0  0.20103  0.05704  0.62992  1.0000
  H   H470      1.0  0.19050  0.04993  0.65611  1.0000
  H   H471      1.0  0.19640  0.02169  0.62419  1.0000
  H   H472      1.0  0.18687  0.01567  0.65162  1.0000
  H   H473      1.0  0.17450  0.08676  0.59726  1.0000
  H   H474      1.0  0.19599  0.06526  0.59776  1.0000
  H   H475      1.0  0.17498  0.07841  0.66717  1.0000
  H   H476      1.0  0.14776  0.07780  0.67088  1.0000
  H   H477      1.0  0.13511  0.03355  0.63416  1.0000
  H   H478      1.0  0.02465  0.03070  0.73604  1.0000
  H   H479      1.0  0.39497  0.14853  0.50594  1.0000
  C   C276      1.0  0.03720  0.02344  0.74492  1.0000
  S   S80       1.0  0.08439  0.99486  0.86186  1.0000
  H   H480      1.0  0.07081  0.98691  0.95009  1.0000
  H   H481      1.0  0.41606  0.11721  0.52315  1.0000
  H   H482      1.0  0.17982  0.01278  0.49147  1.0000
  H   H483      1.0  0.18566  0.07681  0.56348  1.0000
  H   H484      1.0  0.18212  0.05053  0.57427  1.0000
  H   H485      1.0  0.16012  0.07158  0.57415  1.0000
  H   H486      1.0  0.14104  0.11487  0.65458  1.0000
  H   H487      1.0  0.15373  0.11081  0.67644  1.0000
  H   H488      1.0  0.16845  0.11562  0.65077  1.0000
  H   H489      1.0  0.15929  0.01755  0.63828  1.0000
  C   C277      1.0  0.11795  0.00781  0.60376  1.0000
  C   C278      1.0  0.01448  0.05649  0.94877  1.0000
  H   H490      1.0  0.99742  0.08190  0.80687  1.0000
  H   H491      1.0  0.31892  0.12268  0.50023  1.0000
  H   H492      1.0  0.05268  0.05688  0.56666  1.0000
  C   C279      1.0  0.10696  0.00175  0.58888  1.0000
  H   H493      1.0  0.99037  0.02789  0.77355  1.0000
  C   C280      1.0  0.04736  0.04587  0.58056  1.0000
  H   H494      1.0  0.18153  0.03773  0.88366  1.0000
  C   C281      1.0  0.00964  0.98626  0.78892  1.0000
  C   C282      1.0  0.18432  0.99671  0.57013  1.0000
  S   S81       1.0  0.00695  0.17594  0.89203  1.0000
  C   C283      1.0  0.46942  0.04829  0.62486  1.0000
  H   H495      1.0  0.21280  0.14555  0.48479  1.0000
  H   H496      1.0  0.29815  0.11885  0.57552  1.0000
  C   C284      1.0  0.08225  0.02730  0.54852  1.0000
  H   H497      1.0  0.36097  0.12979  0.56551  1.0000
  H   H498      1.0  0.09356  0.98519  0.56403  1.0000
  H   H499      1.0  0.98951  0.11550  0.93664  1.0000
  H   H500      1.0  0.34385  0.01199  0.55682  1.0000
  H   H501      1.0  0.36975  0.17746  0.55068  1.0000
  C   C285      1.0  0.34014  0.99231  0.58714  1.0000
  H   H502      1.0  0.25655  0.12021  0.56255  1.0000
  C   C286      1.0  0.05275  0.16504  0.59437  1.0000
  H   H503      1.0  0.06610  0.99665  0.53946  1.0000
  H   H504      1.0  0.33147  0.10678  0.56114  1.0000
  C   C287      1.0  0.04268  0.11084  0.56943  1.0000
  H   H505      1.0  0.07713  0.01709  0.60065  1.0000
  H   H506      1.0  0.09136  0.03345  0.58149  1.0000
  H   H507      1.0  0.05345  0.10356  0.59835  1.0000
  C   C288      1.0  0.39917  0.12130  0.52890  1.0000
  H   H508      1.0  0.18474  0.99969  0.82572  1.0000
  H   H509      1.0  0.07864  0.12138  0.57613  1.0000
  H   H510      1.0  0.35919  0.17827  0.51537  1.0000
  H   H511      1.0  0.01451  0.16290  0.76585  1.0000
  H   H512      1.0  0.29318  0.14188  0.54214  1.0000
  H   H513      1.0  0.37485  0.14765  0.52849  1.0000
  C   C289      1.0  0.32483  0.16349  0.48647  1.0000
  C   C290      1.0  0.34174  0.06190  0.52018  1.0000
  C   C291      1.0  0.01586  0.05682  0.87743  1.0000
  H   H514      1.0  0.23840  0.01565  0.52949  1.0000
  C   C292      1.0  0.18909  0.01403  0.82786  1.0000
  C   C293      1.0  0.48627  0.12693  0.79961  1.0000
  H   H515      1.0  0.33653  0.00558  0.59542  1.0000
  H   H516      1.0  0.00983  0.17267  0.82135  1.0000
  H   H517      1.0  0.10767  0.00833  0.61895  1.0000
  C   C294      1.0  0.00496  0.07620  0.72421  1.0000
  H   H518      1.0  0.12776  0.00589  0.88397  1.0000
  H   H519      1.0  0.26587  0.00649  0.62034  1.0000
  C   C295      1.0  0.27666  0.01834  0.64244  1.0000
  H   H520      1.0  0.47996  0.15184  0.61169  1.0000
  H   H521      1.0  0.16550  0.04294  0.78663  1.0000
  C   C296      1.0  0.99747  0.07408  0.94058  1.0000
  H   H522      1.0  0.01149  0.12059  0.73645  1.0000
  C   C297      1.0  0.13777  0.01008  0.89301  1.0000
  H   H523      1.0  0.29968  0.01308  0.60418  1.0000
  C   C298      1.0  0.99845  0.98332  0.82769  1.0000
  C   C299      1.0  0.00487  0.04033  0.96551  1.0000
  Fe  Fe42      1.0  0.07871  0.99236  0.83107  1.0000
  H   H524      1.0  0.04433  0.16438  0.83211  1.0000
  C   C300      1.0  0.17453  0.02902  0.79496  1.0000
  H   H525      1.0  0.02355  0.06829  0.86552  1.0000
  H   H526      1.0  0.21988  0.02024  0.65909  1.0000
  H   H527      1.0  0.02514  0.15576  0.61599  1.0000
  H   H528      1.0  0.22185  0.00441  0.49491  1.0000
  H   H529      1.0  0.22796  0.02911  0.49526  1.0000
  C   C301      1.0  0.30318  0.05909  0.48425  1.0000
  C   C302      1.0  0.07719  0.99231  0.56892  1.0000
  H   H530      1.0  0.27941  0.03317  0.63217  1.0000
  H   H531      1.0  0.47866  0.09677  0.57183  1.0000
  H   H532      1.0  0.15202  0.04012  0.48040  1.0000
  C   C303      1.0  0.02395  0.05249  0.58667  1.0000
  C   C304      1.0  0.18380  0.02861  0.48647  1.0000
  H   H533      1.0  0.34977  0.11371  0.53919  1.0000
  H   H534      1.0  0.12969  0.14462  0.56758  1.0000
  H   H535      1.0  0.12134  0.16964  0.57561  1.0000
  H   H536      1.0  0.20798  0.16376  0.50185  1.0000
  H   H537      1.0  0.99573  0.12191  0.90946  1.0000
  H   H538      1.0  0.45367  0.15079  0.57601  1.0000
  H   H539      1.0  0.42835  0.11976  0.76353  1.0000
  S   S82       1.0  0.11529  0.14688  0.51002  1.0000
  N   N15       1.0  0.06681  0.14420  0.59607  1.0000
  C   C305      1.0  0.42437  0.18130  0.49329  1.0000
  C   C306      1.0  0.02892  0.10401  0.93743  1.0000
  C   C307      1.0  0.19569  0.03256  0.85245  1.0000
  C   C308      1.0  0.34100  0.08503  0.51898  1.0000
  H   H540      1.0  0.39085  0.11264  0.52201  1.0000
  H   H541      1.0  0.06495  0.13615  0.66809  1.0000
  C   C309      1.0  0.08697  0.98551  0.91883  1.0000
  C   C310      1.0  0.05181  0.10153  0.93873  1.0000
  H   H542      1.0  0.10300  0.98622  0.59584  1.0000
  C   C311      1.0  0.32013  0.98547  0.58486  1.0000
  H   H543      1.0  0.31640  0.14711  0.55804  1.0000
  C   C312      1.0  0.33349  0.11838  0.54668  1.0000
  H   H544      1.0  0.48624  0.08156  0.62533  1.0000
  C   C313      1.0  0.02599  0.09321  0.92036  1.0000
  H   H545      1.0  0.35466  0.08664  0.52486  1.0000
  H   H546      1.0  0.05463  0.04738  0.59333  1.0000
  H   H547      1.0  0.39620  0.11638  0.54590  1.0000
  H   H548      1.0  0.34485  0.15312  0.57289  1.0000
  C   C314      1.0  0.00342  0.08214  0.90222  1.0000
  H   H549      1.0  0.19025  0.02581  0.78564  1.0000
  H   H550      1.0  0.05861  0.08493  0.94293  1.0000
  H   H551      1.0  0.03698  0.05330  0.75276  1.0000
  N   N16       1.0  0.07529  0.01501  0.56947  1.0000
  H   H552      1.0  0.09796  0.98461  0.94632  1.0000
  C   C315      1.0  0.06398  0.98712  0.55507  1.0000
  H   H553      1.0  0.27504  0.98724  0.64061  1.0000
  C   C316      1.0  0.05262  0.02332  0.57634  1.0000
  C   C317      1.0  0.10306  0.01814  0.53599  1.0000
  C   C318      1.0  0.47610  0.08653  0.68206  1.0000
  C   C319      1.0  0.06270  0.12841  0.65596  1.0000
  C   C320      1.0  0.01589  0.06057  0.89897  1.0000
  H   H554      1.0  0.04730  0.98989  0.56206  1.0000
  N   N17       1.0  0.00437  0.08931  0.92166  1.0000
  C   C321      1.0  0.21882  0.01783  0.64362  1.0000
  H   H555      1.0  0.48135  0.07057  0.68011  1.0000
  H   H556      1.0  0.26139  0.11541  0.58848  1.0000
  H   H557      1.0  0.03549  0.12440  0.55909  1.0000
  H   H558      1.0  0.02448  0.04107  0.87553  1.0000
  H   H559      1.0  0.20827  0.05440  0.88971  1.0000
  H   H560      1.0  0.08520  0.01412  0.89643  1.0000
  H   H561      1.0  0.15225  0.05065  0.50896  1.0000
  C   C322      1.0  0.47800  0.11515  0.69808  1.0000
  H   H562      1.0  0.11595  0.01674  0.54420  1.0000
  C   C323      1.0  0.48509  0.09470  0.69492  1.0000
  C   C324      1.0  0.06717  0.14199  0.63486  1.0000
  C   C325      1.0  0.20770  0.05295  0.87378  1.0000
  H   H563      1.0  0.11805  0.00030  0.57445  1.0000
  H   H564      1.0  0.21655  0.05356  0.51661  1.0000
  H   H565      1.0  0.01920  0.03730  0.81998  1.0000
  H   H566      1.0  0.04838  0.01239  0.73600  1.0000
  H   H567      1.0  0.08267  0.07022  0.57006  1.0000
  H   H568      1.0  0.20111  0.02678  0.53092  1.0000
  H   H569      1.0  0.19318  0.00701  0.52279  1.0000
  C   C326      1.0  0.20361  0.06545  0.51156  1.0000
  H   H570      1.0  0.08349  0.14414  0.63255  1.0000
  H   H571      1.0  0.22368  0.00106  0.64297  1.0000
  H   H572      1.0  0.39867  0.15191  0.54988  1.0000
  C   C327      1.0  0.16364  0.03994  0.51782  1.0000
  C   C328      1.0  0.47659  0.17320  0.52908  1.0000
  H   H573      1.0  0.02283  0.12090  0.93388  1.0000
  H   H574      1.0  0.13359  0.02697  0.89324  1.0000
  H   H575      1.0  0.15688  0.03100  0.85934  1.0000
  H   H576      1.0  0.45892  0.13423  0.51694  1.0000
  H   H577      1.0  0.01523  0.06615  0.78993  1.0000
  H   H578      1.0  0.10913  0.04780  0.51728  1.0000
  H   H579      1.0  0.15908  0.06606  0.53383  1.0000
  C   C329      1.0  0.21327  0.08430  0.50023  1.0000
  H   H580      1.0  0.04789  0.12794  0.62230  1.0000
  C   C330      1.0  0.47012  0.16934  0.55043  1.0000
  C   C331      1.0  0.39173  0.14458  0.52297  1.0000
  H   H581      1.0  0.07420  0.11653  0.61805  1.0000
  C   C332      1.0  0.01148  0.06971  0.80575  1.0000
  H   H582      1.0  0.34261  0.09229  0.50246  1.0000
  N   N18       1.0  0.47463  0.15972  0.77354  1.0000
  H   H583      1.0  0.19914  0.02670  0.47624  1.0000
  H   H584      1.0  0.09580  0.03364  0.50586  1.0000
  C   C333      1.0  0.16084  0.04892  0.53771  1.0000
  H   H585      1.0  0.46068  0.17285  0.65048  1.0000
  H   H586      1.0  0.20013  0.99244  0.87588  1.0000
  C   C334      1.0  0.20111  0.00304  0.57499  1.0000
  H   H587      1.0  0.99986  0.05815  0.87480  1.0000
  C   C335      1.0  0.14140  0.04363  0.55277  1.0000
  H   H588      1.0  0.15828  0.02470  0.52199  1.0000
  H   H589      1.0  0.07030  0.02979  0.53865  1.0000
  H   H590      1.0  0.16651  0.01575  0.79655  1.0000
  C   C336      1.0  0.19727  0.03465  0.87438  1.0000
  C   C337      1.0  0.11933  0.15990  0.56506  1.0000
  H   H591      1.0  0.48465  0.03430  0.74089  1.0000
  C   C338      1.0  0.19239  0.05800  0.49731  1.0000
  H   H592      1.0  0.22382  0.05060  0.86509  1.0000
  C   C339      1.0  0.23788  0.14440  0.50024  1.0000
  H   H593      1.0  0.20130  0.09744  0.49513  1.0000
  C   C340      1.0  0.16525  0.01466  0.86078  1.0000
  H   H594      1.0  0.06070  0.14262  0.56624  1.0000
  H   H595      1.0  0.44496  0.16261  0.63793  1.0000
  H   H596      1.0  0.03271  0.12514  0.59617  1.0000
  C   C341      1.0  0.00587  0.05036  0.82065  1.0000
  H   H597      1.0  0.43461  0.15299  0.76896  1.0000
  S   S83       1.0  0.23280  0.99844  0.59692  1.0000
  H   H598      1.0  0.43262  0.17938  0.65612  1.0000
  C   C342      1.0  0.02900  0.01184  0.76666  1.0000
  H   H599      1.0  0.14288  0.02664  0.55810  1.0000
  S   S84       1.0  0.98972  0.10576  0.85187  1.0000
  C   C343      1.0  0.00426  0.99782  0.80747  1.0000
  H   H600      1.0  0.31603  0.16117  0.51920  1.0000
  H   H601      1.0  0.45585  0.11048  0.75769  1.0000
  H   H602      1.0  0.05692  0.17501  0.60350  1.0000
  C   C344      1.0  0.34472  0.13758  0.56976  1.0000
  S   S85       1.0  0.39322  0.18084  0.62627  1.0000
  H   H603      1.0  0.02485  0.06281  0.95565  1.0000
  H   H604      1.0  0.47091  0.03174  0.62383  1.0000
  C   C345      1.0  0.47447  0.14955  0.79578  1.0000
  H   H605      1.0  0.07345  0.11330  0.65655  1.0000
  N   N19       1.0  0.18776  0.01381  0.85052  1.0000
  H   H606      1.0  0.27904  0.98983  0.58898  1.0000
  C   C346      1.0  0.26635  0.12329  0.57250  1.0000
  H   H607      1.0  0.01733  0.02826  0.97147  1.0000
  H   H608      1.0  0.44366  0.13226  0.74091  1.0000
  C   C347      1.0  0.20062  0.99375  0.85917  1.0000
  H   H609      1.0  0.15725  0.00666  0.85276  1.0000
  H   H610      1.0  0.02054  0.06779  0.59157  1.0000
  Fe  Fe43      1.0  0.15920  0.11651  0.47497  1.0000
  C   C348      1.0  0.99254  0.01525  0.76453  1.0000
  H   H611      1.0  0.16431  0.98713  0.88505  1.0000
  H   H612      1.0  0.01607  0.05366  0.57348  1.0000
  H   H613      1.0  0.47309  0.17917  0.55981  1.0000
  H   H614      1.0  0.99412  0.02318  0.74825  1.0000
  C   C349      1.0  0.02671  0.99758  0.62958  1.0000
  C   C350      1.0  0.22379  0.98961  0.84904  1.0000
  C   C351      1.0  0.02920  0.16498  0.60049  1.0000
  H   H615      1.0  0.12261  0.02316  0.59753  1.0000
  H   H616      1.0  0.44395  0.17689  0.78234  1.0000
  H   H617      1.0  0.47885  0.11633  0.79419  1.0000
  H   H618      1.0  0.35968  0.17274  0.60964  1.0000
  H   H619      1.0  0.00419  0.15309  0.79220  1.0000
  C   C352      1.0  0.29976  0.99836  0.61557  1.0000
  H   H620      1.0  0.99693  0.14480  0.77134  1.0000
  C   C353      1.0  0.21130  0.99107  0.59070  1.0000
  C   C354      1.0  0.45918  0.17971  0.77292  1.0000
  H   H621      1.0  0.23146  0.99092  0.52990  1.0000
  H   H622      1.0  0.36690  0.00422  0.56808  1.0000
  S   S86       1.0  0.12573  0.11588  0.47593  1.0000
  H   H623      1.0  0.13472  0.00156  0.90904  1.0000
  C   C355      1.0  0.35299  0.99894  0.56606  1.0000
  C   C356      1.0  0.01875  0.98646  0.75137  1.0000
  C   C357      1.0  0.00552  0.10653  0.73780  1.0000
  C   C358      1.0  0.48670  0.11905  0.82249  1.0000
  C   C359      1.0  0.98940  0.07082  0.74082  1.0000
  C   C360      1.0  0.99005  0.10101  0.75451  1.0000
  H   H624      1.0  0.48464  0.05537  0.59369  1.0000
  H   H625      1.0  0.25248  0.99989  0.51085  1.0000
  H   H626      1.0  0.47864  0.11500  0.62872  1.0000
  Fe  Fe44      1.0  0.12098  0.15012  0.47551  1.0000
  H   H627      1.0  0.18347  0.18211  0.48250  1.0000
  S   S87       1.0  0.09566  0.18275  0.89729  1.0000
  H   H628      1.0  0.29003  0.11913  0.47491  1.0000
  H   H629      1.0  0.42801  0.18271  0.53176  1.0000
  H   H630      1.0  0.39165  0.18240  0.49653  1.0000
  H   H631      1.0  0.08344  0.18486  0.30313  1.0000
  H   H632      1.0  0.00820  0.25577  0.37882  1.0000
  S   S88       1.0  0.31171  0.20910  0.43801  1.0000
  H   H633      1.0  0.03033  0.22305  0.33495  1.0000
  C   C361      1.0  0.26117  0.28451  0.06552  1.0000
  Fe  Fe45      1.0  0.10661  0.25445  0.35835  1.0000
  S   S89       1.0  0.11826  0.26011  0.32426  1.0000
  S   S90       1.0  0.12938  0.23582  0.37853  1.0000
  Fe  Fe46      1.0  0.06329  0.27749  0.35307  1.0000
  S   S91       1.0  0.07145  0.28372  0.31863  1.0000
  S   S92       1.0  0.03251  0.28887  0.37183  1.0000
  Fe  Fe47      1.0  0.08869  0.25086  0.32194  1.0000
  S   S93       1.0  0.09244  0.22434  0.30479  1.0000
  Fe  Fe48      1.0  0.10005  0.29232  0.32452  1.0000
  S   S94       1.0  0.10938  0.32203  0.30526  1.0000
  S   S95       1.0  0.07794  0.24387  0.35604  1.0000
  S   S96       1.0  0.09104  0.28752  0.35878  1.0000
  Fe  Fe49      1.0  0.11495  0.32702  0.16430  1.0000
  S   S97       1.0  0.13430  0.31097  0.13829  1.0000
  C   C362      1.0  0.99092  0.35013  0.27060  1.0000
  S   S98       1.0  0.12119  0.31385  0.19633  1.0000
  Fe  Fe50      1.0  0.12991  0.25690  0.00375  1.0000
  S   S99       1.0  0.10050  0.27825  0.01379  1.0000
  C   C363      1.0  0.48032  0.34879  0.22848  1.0000
  Fe  Fe51      1.0  0.15690  0.28492  0.01343  1.0000
  S   S100      1.0  0.12930  0.30830  0.02314  1.0000
  S   S101      1.0  0.18942  0.29154  0.00976  1.0000
  Fe  Fe52      1.0  0.11549  0.28050  0.04004  1.0000
  S   S102      1.0  0.09715  0.28182  0.07222  1.0000
  C   C364      1.0  0.32723  0.32800  0.01967  1.0000
  S   S103      1.0  0.14388  0.25689  0.03159  1.0000
  C   C365      1.0  0.04377  0.30275  0.23238  1.0000
  H   H634      1.0  0.00552  0.31682  0.20368  1.0000
  Fe  Fe53      1.0  0.44813  0.33240  0.12189  1.0000
  S   S104      1.0  0.45639  0.30455  0.14533  1.0000
  S   S105      1.0  0.47559  0.34484  0.10195  1.0000
  Fe  Fe54      1.0  0.40250  0.33745  0.14101  1.0000
  S   S106      1.0  0.40805  0.31056  0.16690  1.0000
  S   S107      1.0  0.36999  0.35595  0.14012  1.0000
  Fe  Fe55      1.0  0.43628  0.32341  0.16823  1.0000
  S   S108      1.0  0.45063  0.32269  0.19636  1.0000
  Fe  Fe56      1.0  0.42766  0.29479  0.14143  1.0000
  S   S109      1.0  0.42832  0.26164  0.13844  1.0000
  S   S110      1.0  0.42882  0.35162  0.14478  1.0000
  S   S111      1.0  0.42131  0.32108  0.11554  1.0000
  H   H635      1.0  0.13486  0.24324  0.24414  1.0000
  S   S112      1.0  0.31670  0.34358  0.07720  1.0000
  Fe  Fe57      1.0  0.24116  0.34880  0.07244  1.0000
  S   S113      1.0  0.22098  0.32469  0.07633  1.0000
  H   H636      1.0  0.18897  0.32433  0.97496  1.0000
  S   S114      1.0  0.26967  0.35549  0.04983  1.0000
  Fe  Fe58      1.0  0.32582  0.21512  0.07003  1.0000
  S   S115      1.0  0.31497  0.20743  0.10411  1.0000
  S   S116      1.0  0.30466  0.23583  0.04920  1.0000
  Fe  Fe59      1.0  0.34679  0.21073  0.10717  1.0000
  S   S117      1.0  0.34882  0.22881  0.13128  1.0000
  S   S118      1.0  0.35643  0.22115  0.07334  1.0000
  H   H637      1.0  0.19382  0.19690  0.42281  1.0000
  C   C366      1.0  0.47699  0.23320  0.17214  1.0000
  C   C367      1.0  0.34110  0.24651  0.39356  1.0000
  H   H638      1.0  0.08261  0.19434  0.24144  1.0000
  C   C368      1.0  0.18386  0.35497  0.11223  1.0000
  C   C369      1.0  0.27952  0.18601  0.03251  1.0000
  C   C370      1.0  0.35533  0.35245  0.12247  1.0000
  C   C371      1.0  0.36313  0.33817  0.10912  1.0000
  C   C372      1.0  0.35122  0.33586  0.09520  1.0000
  C   C373      1.0  0.33128  0.34761  0.09458  1.0000
  C   C374      1.0  0.21987  0.20378  0.44505  1.0000
  H   H639      1.0  0.36494  0.25340  0.35285  1.0000
  H   H640      1.0  0.37836  0.32888  0.10948  1.0000
  H   H641      1.0  0.35747  0.32482  0.08494  1.0000
  H   H642      1.0  0.32706  0.26659  0.41594  1.0000
  C   C375      1.0  0.40618  0.25383  0.13450  1.0000
  C   C376      1.0  0.38655  0.26623  0.13719  1.0000
  C   C377      1.0  0.36908  0.25869  0.13547  1.0000
  C   C378      1.0  0.37121  0.23904  0.13036  1.0000
  C   C379      1.0  0.39090  0.22691  0.12712  1.0000
  C   C380      1.0  0.40826  0.23417  0.12954  1.0000
  H   H643      1.0  0.38475  0.28138  0.14116  1.0000
  H   H644      1.0  0.35385  0.26806  0.13834  1.0000
  H   H645      1.0  0.39260  0.21154  0.12374  1.0000
  H   H646      1.0  0.42332  0.22429  0.12812  1.0000
  H   H647      1.0  0.45879  0.32007  0.44326  1.0000
  H   H648      1.0  0.37051  0.23234  0.20592  1.0000
  C   C381      1.0  0.47336  0.33460  0.21995  1.0000
  C   C382      1.0  0.46060  0.34142  0.20492  1.0000
  C   C383      1.0  0.45520  0.36277  0.19820  1.0000
  C   C384      1.0  0.46153  0.37699  0.20727  1.0000
  C   C385      1.0  0.99985  0.19893  0.34146  1.0000
  H   H649      1.0  0.06533  0.34458  0.38178  1.0000
  H   H650      1.0  0.00550  0.34715  0.16047  1.0000
  H   H651      1.0  0.31467  0.27190  0.39370  1.0000
  C   C386      1.0  0.47436  0.32320  0.07214  1.0000
  H   H652      1.0  0.34942  0.23583  0.40534  1.0000
  H   H653      1.0  0.45845  0.32247  0.07930  1.0000
  H   H654      1.0  0.02869  0.30316  0.32883  1.0000
  C   C387      1.0  0.19583  0.30416  0.02742  1.0000
  C   C388      1.0  0.21323  0.31400  0.02163  1.0000
  C   C389      1.0  0.22045  0.32160  0.03617  1.0000
  C   C390      1.0  0.21037  0.31924  0.05668  1.0000
  C   C391      1.0  0.19236  0.31040  0.06222  1.0000
  C   C392      1.0  0.18499  0.30305  0.04763  1.0000
  H   H655      1.0  0.22141  0.31537  0.00594  1.0000
  H   H656      1.0  0.23434  0.32838  0.03172  1.0000
  H   H657      1.0  0.18452  0.30852  0.07806  1.0000
  H   H658      1.0  0.17160  0.29551  0.05229  1.0000
  N   N20       1.0  0.16437  0.37036  0.10870  1.0000
  C   C393      1.0  0.12343  0.30363  0.11984  1.0000
  C   C394      1.0  0.13635  0.29857  0.10167  1.0000
  C   C395      1.0  0.12838  0.29234  0.08676  1.0000
  C   C396      1.0  0.10746  0.29071  0.09011  1.0000
  C   C397      1.0  0.09448  0.29591  0.10823  1.0000
  C   C398      1.0  0.10238  0.30253  0.12297  1.0000
  H   H659      1.0  0.15264  0.29932  0.09917  1.0000
  H   H660      1.0  0.13849  0.28827  0.07292  1.0000
  H   H661      1.0  0.07827  0.29471  0.11091  1.0000
  H   H662      1.0  0.09227  0.30637  0.13690  1.0000
  H   H663      1.0  0.04371  0.31292  0.19997  1.0000
  H   H664      1.0  0.03293  0.24146  0.36839  1.0000
  H   H665      1.0  0.35567  0.19269  0.44059  1.0000
  H   H666      1.0  0.43615  0.19452  0.18532  1.0000
  H   H667      1.0  0.08745  0.25407  0.25396  1.0000
  C   C399      1.0  0.46887  0.18644  0.13963  1.0000
  C   C400      1.0  0.14764  0.35825  0.10952  1.0000
  C   C401      1.0  0.07190  0.21767  0.29659  1.0000
  C   C402      1.0  0.05684  0.23289  0.28816  1.0000
  C   C403      1.0  0.04098  0.22722  0.28112  1.0000
  C   C404      1.0  0.08543  0.37327  0.00160  1.0000
  H   H668      1.0  0.13448  0.26359  0.16445  1.0000
  C   C405      1.0  0.39321  0.19540  0.19700  1.0000
  H   H669      1.0  0.05777  0.24906  0.28656  1.0000
  C   C406      1.0  0.34396  0.25082  0.19427  1.0000
  C   C407      1.0  0.01454  0.30924  0.33821  1.0000
  H   H670      1.0  0.48744  0.25833  0.14955  1.0000
  H   H671      1.0  0.34373  0.25067  0.04095  1.0000
  H   H672      1.0  0.41764  0.35550  0.22843  1.0000
  C   C408      1.0  0.33619  0.25657  0.02782  1.0000
  C   C409      1.0  0.31706  0.25152  0.02775  1.0000
  H   H673      1.0  0.06889  0.36867  0.97915  1.0000
  C   C410      1.0  0.13483  0.36835  0.32990  1.0000
  C   C411      1.0  0.13076  0.37265  0.30980  1.0000
  C   C412      1.0  0.12316  0.35820  0.30245  1.0000
  C   C413      1.0  0.11912  0.33954  0.31522  1.0000
  C   C414      1.0  0.12312  0.33522  0.33531  1.0000
  C   C415      1.0  0.13106  0.34955  0.34257  1.0000
  C   C416      1.0  0.01765  0.24014  0.37825  1.0000
  H   H674      1.0  0.12058  0.36143  0.28673  1.0000
  H   H675      1.0  0.12031  0.32079  0.34520  1.0000
  H   H676      1.0  0.13427  0.34607  0.35809  1.0000
  H   H677      1.0  0.10361  0.20844  0.20583  1.0000
  H   H678      1.0  0.13994  0.33862  0.98211  1.0000
  H   H679      1.0  0.36339  0.36628  0.18482  1.0000
  H   H680      1.0  0.44576  0.26167  0.47066  1.0000
  H   H681      1.0  0.35922  0.36560  0.23497  1.0000
  C   C417      1.0  0.09966  0.21570  0.40532  1.0000
  C   C418      1.0  0.12041  0.21819  0.40032  1.0000
  H   H682      1.0  0.30441  0.29740  0.02416  1.0000
  H   H683      1.0  0.27056  0.27319  0.05584  1.0000
  H   H684      1.0  0.08868  0.22490  0.39596  1.0000
  H   H685      1.0  0.18029  0.20468  0.46367  1.0000
  C   C419      1.0  0.14536  0.36643  0.02627  1.0000
  H   H686      1.0  0.33757  0.31360  0.01566  1.0000
  H   H687      1.0  0.99361  0.31125  0.38829  1.0000
  C   C420      1.0  0.33012  0.21630  0.44950  1.0000
  C   C421      1.0  0.35073  0.20605  0.44809  1.0000
  H   H688      1.0  0.48302  0.37096  0.44915  1.0000
  H   H689      1.0  0.23496  0.22925  0.40914  1.0000
  N   N21       1.0  0.16363  0.29734  0.26634  1.0000
  C   C422      1.0  0.14194  0.29407  0.26694  1.0000
  C   C423      1.0  0.17571  0.27843  0.27804  1.0000
  C   C424      1.0  0.16174  0.31529  0.27726  1.0000
  C   C425      1.0  0.17485  0.30291  0.24463  1.0000
  C   C426      1.0  0.17595  0.28793  0.22974  1.0000
  C   C427      1.0  0.12799  0.31185  0.25481  1.0000
  C   C428      1.0  0.18238  0.32071  0.27959  1.0000
  C   C429      1.0  0.17114  0.25689  0.27730  1.0000
  C   C430      1.0  0.18646  0.23932  0.28723  1.0000
  C   C431      1.0  0.18368  0.29759  0.20752  1.0000
  C   C432      1.0  0.10674  0.30641  0.25649  1.0000
  C   C433      1.0  0.17823  0.33809  0.29213  1.0000
  H   H690      1.0  0.13386  0.29099  0.28320  1.0000
  H   H691      1.0  0.14205  0.28008  0.26073  1.0000
  H   H692      1.0  0.19267  0.27812  0.27293  1.0000
  H   H693      1.0  0.17263  0.27921  0.29479  1.0000
  H   H694      1.0  0.15249  0.31218  0.29301  1.0000
  H   H695      1.0  0.15325  0.32979  0.26923  1.0000
  H   H696      1.0  0.16788  0.31873  0.23763  1.0000
  H   H697      1.0  0.19117  0.30394  0.24457  1.0000
  H   H698      1.0  0.16068  0.28399  0.23009  1.0000
  H   H699      1.0  0.18704  0.27351  0.23370  1.0000
  H   H700      1.0  0.12548  0.32656  0.26064  1.0000
  H   H701      1.0  0.13487  0.31451  0.23826  1.0000
  H   H702      1.0  0.19134  0.32623  0.26432  1.0000
  H   H703      1.0  0.19208  0.30716  0.28757  1.0000
  H   H704      1.0  0.15539  0.25515  0.28606  1.0000
  H   H705      1.0  0.17185  0.25473  0.26138  1.0000
  H   H706      1.0  0.18265  0.22417  0.28665  1.0000
  H   H707      1.0  0.20255  0.23993  0.27890  1.0000
  H   H708      1.0  0.18550  0.24031  0.30363  1.0000
  H   H709      1.0  0.19920  0.30166  0.20596  1.0000
  H   H710      1.0  0.18482  0.28644  0.19715  1.0000
  H   H711      1.0  0.17266  0.31180  0.20252  1.0000
  H   H712      1.0  0.23518  0.20508  0.00946  1.0000
  H   H713      1.0  0.09675  0.31979  0.24863  1.0000
  H   H714      1.0  0.10809  0.29292  0.24896  1.0000
  H   H715      1.0  0.32936  0.23092  0.33091  1.0000
  H   H716      1.0  0.46342  0.29531  0.43527  1.0000
  H   H717      1.0  0.11566  0.22316  0.22759  1.0000
  H   H718      1.0  0.37890  0.32226  0.00465  1.0000
  H   H719      1.0  0.09928  0.30278  0.27285  1.0000
  H   H720      1.0  0.27431  0.22950  0.02810  1.0000
  C   C434      1.0  0.42617  0.20990  0.18192  1.0000
  C   C435      1.0  0.00159  0.36410  0.18544  1.0000
  C   C436      1.0  0.23708  0.19786  0.42687  1.0000
  H   H721      1.0  0.46095  0.21890  0.14015  1.0000
  H   H722      1.0  0.26928  0.28774  0.99252  1.0000
  C   C437      1.0  0.46052  0.24790  0.18408  1.0000
  H   H723      1.0  0.47770  0.31816  0.22532  1.0000
  H   H724      1.0  0.16857  0.35505  0.00130  1.0000
  H   H725      1.0  0.04623  0.37414  0.21624  1.0000
  H   H726      1.0  0.04509  0.25117  0.32315  1.0000
  H   H727      1.0  0.37246  0.36318  0.98573  1.0000
  C   C438      1.0  0.09251  0.23034  0.98201  1.0000
  H   H728      1.0  0.09515  0.34504  0.03349  1.0000
  C   C439      1.0  0.12780  0.19209  0.43026  1.0000
  H   H729      1.0  0.05730  0.20440  0.35470  1.0000
  H   H730      1.0  0.38347  0.20853  0.36093  1.0000
  H   H731      1.0  0.26728  0.25069  0.98976  1.0000
  H   H732      1.0  0.26532  0.22078  0.00944  1.0000
  C   C440      1.0  0.07733  0.19741  0.22645  1.0000
  C   C441      1.0  0.01519  0.35383  0.16786  1.0000
  H   H733      1.0  0.25479  0.22208  0.42518  1.0000
  H   H734      1.0  0.29741  0.34458  0.01010  1.0000
  H   H735      1.0  0.46633  0.26221  0.18401  1.0000
  H   H736      1.0  0.38747  0.22841  0.33091  1.0000
  H   H737      1.0  0.08013  0.36314  0.30082  1.0000
  H   H738      1.0  0.35431  0.33329  0.98541  1.0000
  H   H739      1.0  0.20750  0.21562  0.43852  1.0000
  C   C442      1.0  0.03165  0.29795  0.25176  1.0000
  H   H740      1.0  0.48644  0.35712  0.41671  1.0000
  H   H741      1.0  0.02974  0.23916  0.27416  1.0000
  N   N22       1.0  0.04787  0.36399  0.31486  1.0000
  H   H742      1.0  0.20746  0.31628  0.12410  1.0000
  H   H743      1.0  0.26293  0.30044  0.05768  1.0000
  H   H744      1.0  0.38721  0.25180  0.29761  1.0000
  H   H745      1.0  0.16493  0.19727  0.32531  1.0000
  H   H746      1.0  0.99897  0.32356  0.31249  1.0000
  H   H747      1.0  0.02648  0.26384  0.34092  1.0000
  C   C443      1.0  0.32597  0.21819  0.34387  1.0000
  H   H748      1.0  0.11327  0.34187  0.05029  1.0000
  H   H749      1.0  0.00686  0.22981  0.41095  1.0000
  H   H750      1.0  0.31591  0.18861  0.34736  1.0000
  H   H751      1.0  0.45399  0.18599  0.13523  1.0000
  H   H752      1.0  0.01342  0.25562  0.21825  1.0000
  H   H753      1.0  0.46858  0.24831  0.14255  1.0000
  C   C444      1.0  0.33558  0.27806  0.99398  1.0000
  H   H754      1.0  0.32728  0.22132  0.39032  1.0000
  C   C445      1.0  0.03433  0.30983  0.21505  1.0000
  H   H755      1.0  0.03136  0.28373  0.30423  1.0000
  H   H756      1.0  0.17118  0.33168  0.13747  1.0000
  H   H757      1.0  0.14878  0.20848  0.30607  1.0000
  S   S119      1.0  0.13309  0.22974  0.98685  1.0000
  H   H758      1.0  0.34503  0.34567  0.21813  1.0000
  H   H759      1.0  0.47059  0.21900  0.17330  1.0000
  H   H760      1.0  0.07995  0.21799  0.19694  1.0000
  H   H761      1.0  0.02349  0.26227  0.23815  1.0000
  C   C446      1.0  0.16307  0.35023  0.01802  1.0000
  C   C447      1.0  0.37104  0.21496  0.37282  1.0000
  H   H762      1.0  0.18750  0.34393  0.10134  1.0000
  C   C448      1.0  0.39275  0.34228  0.22180  1.0000
  H   H763      1.0  0.02723  0.34114  0.17372  1.0000
  C   C449      1.0  0.35895  0.23074  0.46598  1.0000
  H   H764      1.0  0.35438  0.32697  0.17853  1.0000
  H   H765      1.0  0.06951  0.33811  0.32769  1.0000
  C   C450      1.0  0.25865  0.28363  0.98412  1.0000
  H   H766      1.0  0.23883  0.22798  0.99108  1.0000
  H   H767      1.0  0.06612  0.20143  0.37874  1.0000
  H   H768      1.0  0.04861  0.26172  0.20454  1.0000
  H   H769      1.0  0.38090  0.33360  0.23190  1.0000
  H   H770      1.0  0.40321  0.33130  0.21217  1.0000
  H   H771      1.0  0.08130  0.33178  0.36161  1.0000
  C   C451      1.0  0.48303  0.31448  0.05441  1.0000
  H   H772      1.0  0.42140  0.20922  0.04865  1.0000
  H   H773      1.0  0.32916  0.37531  0.13206  1.0000
  Fe  Fe60      1.0  0.11727  0.30391  0.99619  1.0000
  H   H774      1.0  0.24440  0.29557  0.98421  1.0000
  H   H775      1.0  0.32295  0.32533  0.03681  1.0000
  C   C452      1.0  0.31655  0.27290  0.99373  1.0000
  C   C453      1.0  0.99780  0.32096  0.32902  1.0000
  H   H776      1.0  0.24653  0.19615  0.04074  1.0000
  C   C454      1.0  0.01275  0.31213  0.21717  1.0000
  H   H777      1.0  0.16922  0.35237  0.28434  1.0000
  H   H778      1.0  0.99355  0.26803  0.35133  1.0000
  H   H779      1.0  0.11857  0.25596  0.26445  1.0000
  H   H780      1.0  0.47402  0.35788  0.14897  1.0000
  H   H781      1.0  0.02978  0.34398  0.30843  1.0000
  H   H782      1.0  0.47387  0.30689  0.04800  1.0000
  C   C455      1.0  0.02513  0.25036  0.22852  1.0000
  C   C456      1.0  0.34545  0.26975  0.01097  1.0000
  H   H783      1.0  0.30807  0.24150  0.46091  1.0000
  H   H784      1.0  0.20327  0.31714  0.15119  1.0000
  C   C457      1.0  0.00670  0.22633  0.37012  1.0000
  H   H785      1.0  0.08014  0.38134  0.04662  1.0000
  H   H786      1.0  0.09490  0.19933  0.34851  1.0000
  H   H787      1.0  0.03795  0.31987  0.28527  1.0000
  H   H788      1.0  0.15329  0.34611  0.09967  1.0000
  C   C458      1.0  0.36509  0.21340  0.45603  1.0000
  C   C459      1.0  0.24689  0.21649  0.41509  1.0000
  H   H789      1.0  0.32202  0.24408  0.37236  1.0000
  C   C460      1.0  0.32282  0.36549  0.01753  1.0000
  H   H790      1.0  0.28481  0.36467  0.97515  1.0000
  H   H791      1.0  0.34321  0.25328  0.34217  1.0000
  H   H792      1.0  0.42074  0.20523  0.46613  1.0000
  C   C461      1.0  0.35744  0.24315  0.34697  1.0000
  C   C462      1.0  0.35819  0.36547  0.97915  1.0000
  H   H793      1.0  0.44622  0.25221  0.17722  1.0000
  H   H794      1.0  0.19738  0.36308  0.10914  1.0000
  H   H795      1.0  0.35438  0.20029  0.40251  1.0000
  H   H796      1.0  0.36018  0.27373  0.01120  1.0000
  H   H797      1.0  0.03019  0.24073  0.40507  1.0000
  C   C463      1.0  0.46428  0.19879  0.04232  1.0000
  C   C464      1.0  0.20816  0.22111  0.99687  1.0000
  C   C465      1.0  0.11985  0.24399  0.25498  1.0000
  H   H798      1.0  0.16332  0.36432  0.06826  1.0000
  H   H799      1.0  0.06296  0.31585  0.26942  1.0000
  H   H800      1.0  0.08688  0.26693  0.20546  1.0000
  S   S120      1.0  0.08023  0.33255  0.17340  1.0000
  H   H801      1.0  0.99422  0.26273  0.27936  1.0000
  C   C466      1.0  0.30732  0.25967  0.01061  1.0000
  H   H802      1.0  0.36547  0.20002  0.23730  1.0000
  H   H803      1.0  0.07094  0.34748  0.27817  1.0000
  H   H804      1.0  0.48500  0.20819  0.01372  1.0000
  H   H805      1.0  0.38894  0.20253  0.40872  1.0000
  H   H806      1.0  0.07389  0.36685  0.01443  1.0000
  H   H807      1.0  0.13242  0.18876  0.36114  1.0000
  H   H808      1.0  0.43416  0.21920  0.16813  1.0000
  S   S121      1.0  0.07070  0.29905  0.23017  1.0000
  H   H809      1.0  0.45652  0.27512  0.09292  1.0000
  H   H810      1.0  0.09469  0.21910  0.24792  1.0000
  H   H811      1.0  0.25863  0.21185  0.40182  1.0000
  H   H812      1.0  0.23119  0.27200  0.01885  1.0000
  H   H813      1.0  0.34465  0.18946  0.16678  1.0000
  H   H814      1.0  0.34241  0.21161  0.18901  1.0000
  H   H815      1.0  0.08208  0.25244  0.18868  1.0000
  S   S122      1.0  0.14590  0.28272  0.98500  1.0000
  H   H816      1.0  0.05924  0.23017  0.24294  1.0000
  H   H817      1.0  0.19016  0.36180  0.06984  1.0000
  H   H818      1.0  0.33251  0.32470  0.19912  1.0000
  C   C467      1.0  0.02170  0.23074  0.40002  1.0000
  N   N23       1.0  0.24141  0.23916  0.02870  1.0000
  C   C468      1.0  0.26107  0.22343  0.02556  1.0000
  H   H819      1.0  0.02292  0.36536  0.15606  1.0000
  C   C469      1.0  0.23605  0.24046  0.05135  1.0000
  C   C470      1.0  0.22324  0.23355  0.02247  1.0000
  H   H820      1.0  0.39857  0.33485  0.02539  1.0000
  C   C471      1.0  0.26100  0.20200  0.03985  1.0000
  C   C472      1.0  0.21744  0.25737  0.05764  1.0000
  N   N24       1.0  0.33818  0.34637  0.01239  1.0000
  N   N25       1.0  0.99952  0.23512  0.34983  1.0000
  H   H821      1.0  0.19313  0.34169  0.29375  1.0000
  C   C473      1.0  0.21105  0.25487  0.08103  1.0000
  H   H822      1.0  0.36568  0.22758  0.31979  1.0000
  H   H823      1.0  0.06570  0.35064  0.06283  1.0000
  H   H824      1.0  0.15046  0.20835  0.40911  1.0000
  N   N26       1.0  0.00357  0.38216  0.21520  1.0000
  H   H825      1.0  0.24972  0.24306  0.05678  1.0000
  H   H826      1.0  0.23214  0.22554  0.06061  1.0000
  H   H827      1.0  0.21459  0.22390  0.03564  1.0000
  H   H828      1.0  0.21173  0.24780  0.01862  1.0000
  H   H829      1.0  0.42381  0.21820  0.19502  1.0000
  H   H830      1.0  0.31196  0.22410  0.35451  1.0000
  H   H831      1.0  0.26229  0.20327  0.05565  1.0000
  C   C474      1.0  0.36670  0.37496  0.22074  1.0000
  H   H832      1.0  0.20374  0.25685  0.05115  1.0000
  H   H833      1.0  0.31070  0.24961  0.41346  1.0000
  H   H834      1.0  0.42981  0.27715  0.09105  1.0000
  H   H835      1.0  0.38064  0.18890  0.16352  1.0000
  H   H836      1.0  0.03133  0.21504  0.40042  1.0000
  H   H837      1.0  0.45650  0.24017  0.20029  1.0000
  C   C475      1.0  0.24550  0.26020  0.01710  1.0000
  C   C476      1.0  0.37652  0.25647  0.31148  1.0000
  H   H838      1.0  0.39483  0.35508  0.24839  1.0000
  C   C477      1.0  0.02813  0.25622  0.32760  1.0000
  H   H839      1.0  0.19805  0.26749  0.08504  1.0000
  H   H840      1.0  0.20576  0.23984  0.08745  1.0000
  H   H841      1.0  0.22420  0.25572  0.08821  1.0000
  C   C478      1.0  0.13829  0.37640  0.22674  1.0000
  C   C479      1.0  0.32219  0.25941  0.40481  1.0000
  C   C480      1.0  0.46920  0.30476  0.44373  1.0000
  C   C481      1.0  0.08706  0.21497  0.21097  1.0000
  H   H842      1.0  0.47431  0.21259  0.11582  1.0000
  H   H843      1.0  0.17622  0.34830  0.02621  1.0000
  C   C482      1.0  0.09303  0.20141  0.42271  1.0000
  H   H844      1.0  0.10916  0.26372  0.15948  1.0000
  H   H845      1.0  0.11959  0.23329  0.18557  1.0000
  C   C483      1.0  0.06569  0.19333  0.36616  1.0000
  C   C484      1.0  0.13443  0.20636  0.41286  1.0000
  H   H846      1.0  0.11959  0.22884  0.26549  1.0000
  N   N27       1.0  0.29881  0.27700  0.10465  1.0000
  C   C485      1.0  0.32204  0.27025  0.10050  1.0000
  C   C486      1.0  0.28937  0.26090  0.12108  1.0000
  C   C487      1.0  0.29110  0.27752  0.08504  1.0000
  C   C488      1.0  0.29225  0.29817  0.11069  1.0000
  C   C489      1.0  0.30591  0.30408  0.12372  1.0000
  C   C490      1.0  0.33380  0.28292  0.08129  1.0000
  C   C491      1.0  0.26731  0.28015  0.08672  1.0000
  C   C492      1.0  0.29513  0.25749  0.14270  1.0000
  C   C493      1.0  0.28866  0.23772  0.15612  1.0000
  C   C494      1.0  0.29505  0.32316  0.13317  1.0000
  C   C495      1.0  0.35701  0.27916  0.08164  1.0000
  H   H847      1.0  0.32600  0.25379  0.09830  1.0000
  H   H848      1.0  0.32901  0.27044  0.11386  1.0000
  H   H849      1.0  0.27219  0.26500  0.12392  1.0000
  H   H850      1.0  0.29318  0.24579  0.11566  1.0000
  H   H851      1.0  0.29806  0.26300  0.07880  1.0000
  H   H852      1.0  0.29627  0.29035  0.07286  1.0000
  H   H853      1.0  0.29196  0.31055  0.09678  1.0000
  H   H854      1.0  0.27596  0.29999  0.11909  1.0000
  H   H855      1.0  0.32067  0.30756  0.11387  1.0000
  H   H856      1.0  0.31004  0.29158  0.13645  1.0000
  H   H857      1.0  0.33184  0.27830  0.06707  1.0000
  H   H858      1.0  0.32778  0.29971  0.08030  1.0000
  H   H859      1.0  0.25902  0.29303  0.09493  1.0000
  H   H860      1.0  0.26187  0.26561  0.09504  1.0000
  H   H861      1.0  0.31191  0.25606  0.14212  1.0000
  H   H862      1.0  0.28683  0.27065  0.15052  1.0000
  H   H863      1.0  0.27176  0.23829  0.15756  1.0000
  H   H864      1.0  0.29732  0.22395  0.14939  1.0000
  H   H865      1.0  0.29233  0.23603  0.17172  1.0000
  H   H866      1.0  0.30551  0.32733  0.14174  1.0000
  H   H867      1.0  0.29120  0.33654  0.12097  1.0000
  H   H868      1.0  0.28062  0.32008  0.14397  1.0000
  H   H869      1.0  0.35983  0.28481  0.09492  1.0000
  H   H870      1.0  0.36364  0.26239  0.08281  1.0000
  H   H871      1.0  0.36506  0.28768  0.06728  1.0000
  C   C496      1.0  0.01778  0.23666  0.33237  1.0000
  H   H872      1.0  0.19692  0.21405  0.00959  1.0000
  N   N28       1.0  0.35194  0.22537  0.36377  1.0000
  H   H873      1.0  0.38109  0.20571  0.45432  1.0000
  H   H874      1.0  0.37766  0.22641  0.37801  1.0000
  Fe  Fe61      1.0  0.08395  0.36352  0.17848  1.0000
  C   C497      1.0  0.34382  0.33482  0.19073  1.0000
  H   H875      1.0  0.04781  0.23464  0.20693  1.0000
  C   C498      1.0  0.40531  0.34658  0.23669  1.0000
  H   H876      1.0  0.28147  0.31335  0.01562  1.0000
  C   C499      1.0  0.33476  0.23391  0.37983  1.0000
  C   C500      1.0  0.05430  0.34774  0.33269  1.0000
  H   H877      1.0  0.34994  0.34149  0.04069  1.0000
  H   H878      1.0  0.41188  0.36017  0.18708  1.0000
  H   H879      1.0  0.46564  0.18618  0.05581  1.0000
  C   C501      1.0  0.07147  0.19674  0.29716  1.0000
  C   C502      1.0  0.06514  0.33848  0.36781  1.0000
  C   C503      1.0  0.13692  0.18423  0.32945  1.0000
  H   H880      1.0  0.29426  0.19135  0.03187  1.0000
  C   C504      1.0  0.19161  0.19474  0.47311  1.0000
  C   C505      1.0  0.25320  0.26222  0.99356  1.0000
  C   C506      1.0  0.48618  0.33327  0.08020  1.0000
  H   H881      1.0  0.40409  0.31730  0.25813  1.0000
  H   H882      1.0  0.22674  0.21212  0.45374  1.0000
  H   H883      1.0  0.04342  0.33650  0.33802  1.0000
  C   C507      1.0  0.11363  0.22225  0.97697  1.0000
  H   H884      1.0  0.44241  0.18441  0.46238  1.0000
  H   H885      1.0  0.00499  0.28069  0.31446  1.0000
  H   H886      1.0  0.06149  0.23057  0.97757  1.0000
  H   H887      1.0  0.16197  0.36616  0.24560  1.0000
  C   C508      1.0  0.02079  0.27233  0.30966  1.0000
  H   H888      1.0  0.38356  0.34461  0.18342  1.0000
  H   H889      1.0  0.13280  0.37789  0.99835  1.0000
  C   C509      1.0  0.11775  0.26522  0.17127  1.0000
  C   C510      1.0  0.04685  0.24713  0.21565  1.0000
  C   C511      1.0  0.05563  0.19106  0.29000  1.0000
  C   C512      1.0  0.99491  0.31410  0.37173  1.0000
  H   H890      1.0  0.40175  0.30700  0.03032  1.0000
  H   H891      1.0  0.12137  0.18968  0.32531  1.0000
  H   H892      1.0  0.40890  0.19909  0.16456  1.0000
  C   C513      1.0  0.02962  0.37979  0.32209  1.0000
  C   C514      1.0  0.20403  0.32675  0.13557  1.0000
  C   C515      1.0  0.32339  0.36185  0.10796  1.0000
  H   H893      1.0  0.34133  0.26190  0.20501  1.0000
  C   C516      1.0  0.10183  0.24940  0.24311  1.0000
  H   H894      1.0  0.06279  0.25612  0.23569  1.0000
  C   C517      1.0  0.37196  0.35307  0.19452  1.0000
  H   H895      1.0  0.00283  0.36552  0.32274  1.0000
  C   C518      1.0  0.05921  0.33891  0.28861  1.0000
  H   H896      1.0  0.11247  0.28095  0.17525  1.0000
  H   H897      1.0  0.35328  0.25722  0.17953  1.0000
  H   H898      1.0  0.33519  0.34961  0.18336  1.0000
  S   S123      1.0  0.25555  0.34830  0.09971  1.0000
  H   H899      1.0  0.33946  0.19733  0.36821  1.0000
  H   H900      1.0  0.45247  0.19676  0.03405  1.0000
  H   H901      1.0  0.10461  0.26293  0.23093  1.0000
  C   C519      1.0  0.01287  0.30527  0.35960  1.0000
  H   H902      1.0  0.03901  0.29185  0.26508  1.0000
  H   H903      1.0  0.24462  0.28346  0.06736  1.0000
  C   C520      1.0  0.06372  0.24189  0.22940  1.0000
  H   H904      1.0  0.38477  0.32156  0.04881  1.0000
  S   S124      1.0  0.14446  0.35361  0.21587  1.0000
  C   C521      1.0  0.11435  0.24860  0.19043  1.0000
  S   S125      1.0  0.08735  0.35281  0.21158  1.0000
  C   C522      1.0  0.14868  0.20237  0.32271  1.0000
  C   C523      1.0  0.09125  0.25138  0.20090  1.0000
  H   H905      1.0  0.44855  0.28385  0.06822  1.0000
  H   H906      1.0  0.12433  0.24997  0.20103  1.0000
  H   H907      1.0  0.01784  0.21158  0.36914  1.0000
  H   H908      1.0  0.08232  0.32594  0.06679  1.0000
  C   C524      1.0  0.36744  0.18360  0.23580  1.0000
  C   C525      1.0  0.09987  0.23055  0.23426  1.0000
  H   H909      1.0  0.39284  0.20334  0.20988  1.0000
  H   H910      1.0  0.99582  0.23584  0.29135  1.0000
  C   C526      1.0  0.33537  0.36423  0.12183  1.0000
  Fe  Fe62      1.0  0.28290  0.35823  0.07695  1.0000
  Fe  Fe63      1.0  0.08670  0.32147  0.20557  1.0000
  H   H911      1.0  0.29268  0.25578  0.01031  1.0000
  C   C527      1.0  0.34452  0.20966  0.35546  1.0000
  H   H912      1.0  0.09791  0.36671  0.09779  1.0000
  H   H913      1.0  0.11967  0.34692  0.09079  1.0000
  C   C528      1.0  0.35614  0.33873  0.20568  1.0000
  H   H914      1.0  0.38387  0.26640  0.31793  1.0000
  C   C529      1.0  0.46924  0.29405  0.46608  1.0000
  H   H915      1.0  0.36569  0.30845  0.02797  1.0000
  H   H916      1.0  0.31399  0.37248  0.00477  1.0000
  H   H917      1.0  0.10320  0.37645  0.05682  1.0000
  H   H918      1.0  0.31095  0.36126  0.03120  1.0000
  C   C530      1.0  0.18336  0.34138  0.13402  1.0000
  H   H919      1.0  0.18047  0.35096  0.14617  1.0000
  C   C531      1.0  0.05642  0.35600  0.35179  1.0000
  H   H920      1.0  0.42507  0.32997  0.25867  1.0000
  H   H921      1.0  0.32870  0.24930  0.19140  1.0000
  Fe  Fe64      1.0  0.12128  0.34649  0.19950  1.0000
  H   H922      1.0  0.06697  0.36746  0.34756  1.0000
  C   C532      1.0  0.39045  0.32151  0.03211  1.0000
  H   H923      1.0  0.21677  0.33572  0.13286  1.0000
  C   C533      1.0  0.35604  0.34246  0.02387  1.0000
  C   C534      1.0  0.35828  0.21378  0.18945  1.0000
  N   N29       1.0  0.43816  0.22544  0.06233  1.0000
  C   C535      1.0  0.42066  0.22492  0.05175  1.0000
  C   C536      1.0  0.43647  0.21111  0.08297  1.0000
  C   C537      1.0  0.43591  0.24727  0.06616  1.0000
  C   C538      1.0  0.45913  0.22011  0.04926  1.0000
  C   C539      1.0  0.41934  0.23989  0.03095  1.0000
  C   C540      1.0  0.45058  0.25063  0.07969  1.0000
  H   H924      1.0  0.15807  0.33506  0.02061  1.0000
  H   H925      1.0  0.01522  0.35301  0.23363  1.0000
  C   C541      1.0  0.40172  0.23683  0.02143  1.0000
  C   C542      1.0  0.44604  0.27307  0.08311  1.0000
  H   H926      1.0  0.40553  0.22832  0.06219  1.0000
  H   H927      1.0  0.35142  0.25730  0.38449  1.0000
  H   H928      1.0  0.45172  0.20682  0.08821  1.0000
  H   H929      1.0  0.42573  0.21925  0.09477  1.0000
  H   H930      1.0  0.41968  0.25268  0.07362  1.0000
  H   H931      1.0  0.43880  0.25819  0.05138  1.0000
  H   H932      1.0  0.46140  0.23228  0.03536  1.0000
  H   H933      1.0  0.47151  0.22003  0.05782  1.0000
  H   H934      1.0  0.41611  0.25628  0.03307  1.0000
  H   H935      1.0  0.43394  0.23712  0.01979  1.0000
  H   H936      1.0  0.46704  0.24730  0.07221  1.0000
  H   H937      1.0  0.44868  0.24065  0.09509  1.0000
  H   H938      1.0  0.36428  0.32336  0.21238  1.0000
  C   C543      1.0  0.47403  0.37013  0.22259  1.0000
  C   C544      1.0  0.34532  0.34828  0.98944  1.0000
  N   N30       1.0  0.08547  0.23477  0.21888  1.0000
  H   H939      1.0  0.05549  0.32614  0.37228  1.0000
  H   H940      1.0  0.40435  0.22077  0.01834  1.0000
  H   H941      1.0  0.36417  0.22095  0.17340  1.0000
  C   C545      1.0  0.48522  0.19622  0.02788  1.0000
  C   C546      1.0  0.01001  0.30129  0.25399  1.0000
  H   H942      1.0  0.99349  0.22211  0.38224  1.0000
  H   H943      1.0  0.23492  0.36585  0.97776  1.0000
  C   C547      1.0  0.48434  0.27290  0.46736  1.0000
  C   C548      1.0  0.10707  0.18955  0.43523  1.0000
  H   H944      1.0  0.14370  0.34962  0.12530  1.0000
  H   H945      1.0  0.09819  0.36062  0.99752  1.0000
  C   C549      1.0  0.37232  0.23717  0.32729  1.0000
  H   H946      1.0  0.25689  0.26537  0.02385  1.0000
  H   H947      1.0  0.33175  0.35152  0.98148  1.0000
  C   C550      1.0  0.29485  0.31307  0.02298  1.0000
  H   H948      1.0  0.00080  0.29810  0.26904  1.0000
  H   H949      1.0  0.41081  0.19486  0.08490  1.0000
  H   H950      1.0  0.20085  0.23712  0.99081  1.0000
  H   H951      1.0  0.34603  0.22464  0.21869  1.0000
  H   H952      1.0  0.03383  0.36511  0.28840  1.0000
  H   H953      1.0  0.08441  0.34587  0.07983  1.0000
  H   H954      1.0  0.04112  0.36342  0.35936  1.0000
  H   H955      1.0  0.06705  0.32692  0.29974  1.0000
  H   H956      1.0  0.02093  0.26515  0.29634  1.0000
  C   C551      1.0  0.30761  0.32925  0.01047  1.0000
  H   H957      1.0  0.36187  0.26555  0.30675  1.0000
  C   C552      1.0  0.35545  0.22984  0.20358  1.0000
  C   C553      1.0  0.00985  0.37095  0.33363  1.0000
  Fe  Fe65      1.0  0.36709  0.18733  0.07223  1.0000
  C   C554      1.0  0.37244  0.32262  0.02114  1.0000
  C   C555      1.0  0.32395  0.23344  0.45968  1.0000
  H   H958      1.0  0.01163  0.20061  0.32719  1.0000
  H   H959      1.0  0.33424  0.19473  0.32413  1.0000
  H   H960      1.0  0.28908  0.31636  0.03875  1.0000
  C   C556      1.0  0.00049  0.30839  0.23670  1.0000
  H   H961      1.0  0.22173  0.27289  0.05206  1.0000
  H   H962      1.0  0.36458  0.35560  0.01955  1.0000
  C   C557      1.0  0.11232  0.35698  0.10241  1.0000
  C   C558      1.0  0.04162  0.35354  0.30006  1.0000
  H   H963      1.0  0.31222  0.32618  0.99448  1.0000
  S   S126      1.0  0.11812  0.35918  0.16661  1.0000
  C   C559      1.0  0.08156  0.34285  0.06526  1.0000
  H   H964      1.0  0.01348  0.23528  0.31779  1.0000
  H   H965      1.0  0.06014  0.20155  0.22933  1.0000
  S   S127      1.0  0.02014  0.20001  0.27266  1.0000
  C   C560      1.0  0.48284  0.24348  0.14936  1.0000
  C   C561      1.0  0.04023  0.20632  0.28204  1.0000
  C   C562      1.0  0.09778  0.35012  0.04706  1.0000
  H   H966      1.0  0.08753  0.24129  0.99249  1.0000
  H   H967      1.0  0.30765  0.20785  0.32640  1.0000
  H   H968      1.0  0.10793  0.34721  0.11756  1.0000
  C   C563      1.0  0.00036  0.36403  0.23241  1.0000
  H   H969      1.0  0.42648  0.31684  0.23774  1.0000
  H   H970      1.0  0.04478  0.33888  0.26261  1.0000
  H   H971      1.0  0.40089  0.24776  0.00664  1.0000
  H   H972      1.0  0.30807  0.37103  0.10763  1.0000
  H   H973      1.0  0.16945  0.33340  0.30778  1.0000
  H   H974      1.0  0.38661  0.23979  0.03189  1.0000
  C   C564      1.0  0.05059  0.32781  0.27571  1.0000
  C   C565      1.0  0.22802  0.22139  0.00438  1.0000
  C   C566      1.0  0.17543  0.37287  0.06914  1.0000
  C   C567      1.0  0.48423  0.36956  0.14608  1.0000
  H   H975      1.0  0.12403  0.35550  0.01318  1.0000
  H   H976      1.0  0.44572  0.36836  0.18644  1.0000
  C   C568      1.0  0.41581  0.32640  0.24849  1.0000
  C   C569      1.0  0.40544  0.20742  0.17774  1.0000
  H   H977      1.0  0.17382  0.18672  0.44199  1.0000
  C   C570      1.0  0.12688  0.37090  0.10412  1.0000
  H   H978      1.0  0.39671  0.22319  0.17332  1.0000
  C   C571      1.0  0.36818  0.19652  0.39073  1.0000
  H   H979      1.0  0.01320  0.35775  0.34616  1.0000
  H   H980      1.0  0.02836  0.36177  0.19924  1.0000
  H   H981      1.0  0.14099  0.21504  0.33143  1.0000
  H   H982      1.0  0.14032  0.36112  0.04298  1.0000
  H   H983      1.0  0.21183  0.21188  0.98432  1.0000
  N   N31       1.0  0.38269  0.36089  0.20811  1.0000
  H   H984      1.0  0.00707  0.34236  0.27165  1.0000
  C   C572      1.0  0.12704  0.37070  0.01449  1.0000
  N   N32       1.0  0.37170  0.19318  0.19545  1.0000
  C   C573      1.0  0.09677  0.37390  0.04384  1.0000
  C   C574      1.0  0.42778  0.19104  0.08487  1.0000
  H   H985      1.0  0.99870  0.38013  0.25838  1.0000
  H   H986      1.0  0.02197  0.23561  0.23862  1.0000
  C   C575      1.0  0.32069  0.20130  0.33491  1.0000
  C   C576      1.0  0.14996  0.37872  0.24080  1.0000
  H   H987      1.0  0.23060  0.19219  0.41576  1.0000
  C   C577      1.0  0.33818  0.24048  0.46806  1.0000
  H   H988      1.0  0.40132  0.18563  0.39024  1.0000
  H   H989      1.0  0.98952  0.37610  0.17877  1.0000
  H   H990      1.0  0.18720  0.37576  0.19234  1.0000
  H   H991      1.0  0.47935  0.34443  0.45413  1.0000
  H   H992      1.0  0.24077  0.26047  0.98592  1.0000
  C   C578      1.0  0.06600  0.37472  0.30469  1.0000
  H   H993      1.0  0.48201  0.26474  0.45554  1.0000
  H   H994      1.0  0.35746  0.20127  0.34534  1.0000
  H   H995      1.0  0.07696  0.19957  0.42652  1.0000
  H   H996      1.0  0.30892  0.27923  0.98059  1.0000
  H   H997      1.0  0.15067  0.37463  0.13981  1.0000
  C   C579      1.0  0.47390  0.20829  0.13269  1.0000
  H   H998      1.0  0.34442  0.18510  0.21715  1.0000
  H   H999      1.0  0.48450  0.37407  0.16086  1.0000
  H   H1000     1.0  0.48514  0.24343  0.10925  1.0000
  H   H1001     1.0  0.11902  0.37928  0.11684  1.0000
  H   H1002     1.0  0.27877  0.18337  0.01703  1.0000
  C   C580      1.0  0.28246  0.38048  0.97732  1.0000
  H   H1003     1.0  0.24963  0.18565  0.43233  1.0000
  C   C581      1.0  0.39943  0.37170  0.19424  1.0000
  C   C582      1.0  0.01467  0.37381  0.19593  1.0000
  H   H1004     1.0  0.03400  0.37407  0.24261  1.0000
  H   H1005     1.0  0.26500  0.37447  0.00805  1.0000
  H   H1006     1.0  0.45311  0.29248  0.47329  1.0000
  H   H1007     1.0  0.00782  0.19046  0.35437  1.0000
  H   H1008     1.0  0.48505  0.30717  0.43594  1.0000
  H   H1009     1.0  0.99723  0.19265  0.21767  1.0000
  N   N33       1.0  0.21089  0.18604  0.45935  1.0000
  H   H1010     1.0  0.99367  0.35233  0.19650  1.0000
  H   H1011     1.0  0.22409  0.18368  0.26768  1.0000
  H   H1012     1.0  0.12892  0.38188  0.08938  1.0000
  H   H1013     1.0  0.15185  0.38076  0.02410  1.0000
  C   C583      1.0  0.42603  0.18823  0.47001  1.0000
  H   H1014     1.0  0.18435  0.38003  0.03596  1.0000
  H   H1015     1.0  0.40740  0.37868  0.20310  1.0000
  H   H1016     1.0  0.33565  0.37793  0.03861  1.0000
  H   H1017     1.0  0.39008  0.38135  0.16391  1.0000
  C   C584      1.0  0.08765  0.18553  0.35562  1.0000
  C   C585      1.0  0.38705  0.18987  0.40141  1.0000
  Fe  Fe66      1.0  0.24229  0.38220  0.09608  1.0000
  S   S128      1.0  0.22618  0.38213  0.07046  1.0000
  H   H1018     1.0  0.47407  0.30459  0.47403  1.0000
  C   C586      1.0  0.07472  0.38145  0.98291  1.0000
  H   H1019     1.0  0.34876  0.38088  0.98098  1.0000
  H   H1020     1.0  0.13867  0.18305  0.43980  1.0000
  H   H1021     1.0  0.99002  0.35480  0.22895  1.0000
  S   S129      1.0  0.37797  0.24033  0.47440  1.0000
  H   H1022     1.0  0.36642  0.18302  0.38462  1.0000
  C   C587      1.0  0.99050  0.36953  0.25398  1.0000
  H   H1023     1.0  0.42334  0.18341  0.11838  1.0000
  H   H1024     1.0  0.35375  0.38277  0.21230  1.0000
  Fe  Fe67      1.0  0.39580  0.27123  0.52939  1.0000
  S   S130      1.0  0.36666  0.28509  0.54842  1.0000
  S   S131      1.0  0.42641  0.26674  0.54030  1.0000
  Fe  Fe68      1.0  0.37227  0.26097  0.49887  1.0000
  S   S132      1.0  0.34150  0.27544  0.51512  1.0000
  Fe  Fe69      1.0  0.35790  0.30058  0.51786  1.0000
  S   S133      1.0  0.34243  0.33432  0.51481  1.0000
  Fe  Fe70      1.0  0.35301  0.25905  0.54414  1.0000
  S   S134      1.0  0.33392  0.23915  0.56847  1.0000
  S   S135      1.0  0.38798  0.28787  0.49868  1.0000
  S   S136      1.0  0.38290  0.24352  0.52807  1.0000
  H   H1025     1.0  0.10975  0.19052  0.94477  1.0000
  H   H1026     1.0  0.08834  0.29015  0.88083  1.0000
  N   N34       1.0  0.09592  0.26326  0.90371  1.0000
  S   S137      1.0  0.06445  0.20305  0.94925  1.0000
  Fe  Fe71      1.0  0.07551  0.20129  0.87482  1.0000
  S   S138      1.0  0.08573  0.23050  0.85586  1.0000
  S   S139      1.0  0.04736  0.20665  0.89877  1.0000
  H   H1027     1.0  0.03226  0.30479  0.85809  1.0000
  S   S140      1.0  0.46218  0.34531  0.54532  1.0000
  Fe  Fe72      1.0  0.29105  0.32084  0.92761  1.0000
  S   S141      1.0  0.30107  0.34860  0.90586  1.0000
  S   S142      1.0  0.26006  0.31329  0.92778  1.0000
  Fe  Fe73      1.0  0.32795  0.31168  0.94927  1.0000
  S   S143      1.0  0.34097  0.33851  0.92906  1.0000
  C   C588      1.0  0.04679  0.30918  0.85976  1.0000
  Fe  Fe74      1.0  0.30872  0.35617  0.93378  1.0000
  C   C589      1.0  0.98919  0.35084  0.89134  1.0000
  Fe  Fe75      1.0  0.33242  0.32842  0.90303  1.0000
  S   S144      1.0  0.35706  0.32808  0.87465  1.0000
  S   S145      1.0  0.29602  0.33013  0.95596  1.0000
  S   S146      1.0  0.32196  0.29976  0.92280  1.0000
  H   H1028     1.0  0.01606  0.19137  0.84708  1.0000
  H   H1029     1.0  0.01292  0.27305  0.62518  1.0000
  H   H1030     1.0  0.05574  0.29564  0.86844  1.0000
  H   H1031     1.0  0.36175  0.20507  0.50918  1.0000
  C   C590      1.0  0.42811  0.37393  0.59016  1.0000
  S   S147      1.0  0.42194  0.35242  0.71402  1.0000
  H   H1032     1.0  0.11546  0.29271  0.94425  1.0000
  S   S148      1.0  0.98980  0.32831  0.79050  1.0000
  H   H1033     1.0  0.02367  0.37779  0.82536  1.0000
  H   H1034     1.0  0.34832  0.34516  0.72822  1.0000
  Fe  Fe76      1.0  0.02395  0.31633  0.78836  1.0000
  S   S149      1.0  0.02738  0.33067  0.81427  1.0000
  S   S150      1.0  0.03397  0.28208  0.78782  1.0000
  S   S151      1.0  0.10364  0.32878  0.97223  1.0000
  Fe  Fe77      1.0  0.03423  0.35799  0.78994  1.0000
  H   H1035     1.0  0.20245  0.32636  0.72753  1.0000
  H   H1036     1.0  0.46806  0.19211  0.79688  1.0000
  S   S152      1.0  0.03309  0.34271  0.76344  1.0000
  H   H1037     1.0  0.11113  0.27242  0.96602  1.0000
  C   C591      1.0  0.44670  0.19503  0.62629  1.0000
  C   C592      1.0  0.38307  0.37572  0.65554  1.0000
  C   C593      1.0  0.10488  0.20183  0.95485  1.0000
  C   C594      1.0  0.34176  0.35819  0.81105  1.0000
  Fe  Fe78      1.0  0.40074  0.37668  0.73110  1.0000
  H   H1038     1.0  0.03935  0.35069  0.84454  1.0000
  C   C595      1.0  0.98998  0.29289  0.64397  1.0000
  H   H1039     1.0  0.47022  0.21948  0.55112  1.0000
  C   C596      1.0  0.44793  0.21627  0.78062  1.0000
  C   C597      1.0  0.33026  0.34869  0.84801  1.0000
  C   C598      1.0  0.35055  0.33937  0.85037  1.0000
  C   C599      1.0  0.36633  0.33928  0.83304  1.0000
  C   C600      1.0  0.36198  0.34877  0.81347  1.0000
  H   H1040     1.0  0.39168  0.18761  0.56794  1.0000
  H   H1041     1.0  0.31796  0.34862  0.86126  1.0000
  H   H1042     1.0  0.38202  0.33200  0.83478  1.0000
  H   H1043     1.0  0.37426  0.34857  0.80022  1.0000
  C   C601      1.0  0.25105  0.32494  0.90477  1.0000
  C   C602      1.0  0.23160  0.33764  0.90565  1.0000
  C   C603      1.0  0.22306  0.34548  0.88775  1.0000
  C   C604      1.0  0.23399  0.34059  0.86883  1.0000
  C   C605      1.0  0.25379  0.32834  0.86780  1.0000
  C   C606      1.0  0.26240  0.32064  0.88577  1.0000
  C   C607      1.0  0.26961  0.31146  0.60327  1.0000
  H   H1044     1.0  0.01597  0.34170  0.85566  1.0000
  H   H1045     1.0  0.26241  0.32468  0.85317  1.0000
  H   H1046     1.0  0.27753  0.31088  0.88500  1.0000
  H   H1047     1.0  0.33531  0.21323  0.53861  1.0000
  H   H1048     1.0  0.03813  0.24555  0.93024  1.0000
  C   C608      1.0  0.38792  0.33818  0.65738  1.0000
  H   H1049     1.0  0.41882  0.34555  0.65453  1.0000
  H   H1050     1.0  0.45078  0.21194  0.58645  1.0000
  H   H1051     1.0  0.17072  0.23943  0.94332  1.0000
  H   H1052     1.0  0.44481  0.22238  0.76474  1.0000
  C   C609      1.0  0.11859  0.28898  0.84792  1.0000
  H   H1053     1.0  0.99936  0.22246  0.79872  1.0000
  H   H1054     1.0  0.38066  0.32410  0.66270  1.0000
  C   C610      1.0  0.43391  0.36168  0.68887  1.0000
  C   C611      1.0  0.03808  0.25530  0.91470  1.0000
  H   H1055     1.0  0.41192  0.34492  0.89179  1.0000
  H   H1056     1.0  0.18105  0.30649  0.83044  1.0000
  H   H1057     1.0  0.05627  0.31307  0.84431  1.0000
  C   C612      1.0  0.43182  0.23797  0.49197  1.0000
  H   H1058     1.0  0.13132  0.23528  0.92237  1.0000
  H   H1059     1.0  0.19267  0.34719  0.79724  1.0000
  H   H1060     1.0  0.13799  0.21255  0.88579  1.0000
  N   N35       1.0  0.37367  0.35666  0.66503  1.0000
  C   C613      1.0  0.12037  0.34605  0.95917  1.0000
  H   H1061     1.0  0.17710  0.22641  0.51067  1.0000
  C   C614      1.0  0.30043  0.34640  0.57781  1.0000
  C   C615      1.0  0.13715  0.34789  0.96746  1.0000
  H   H1062     1.0  0.41440  0.29970  0.66553  1.0000
  H   H1063     1.0  0.24266  0.30386  0.62562  1.0000
  H   H1064     1.0  0.02690  0.20992  0.82709  1.0000
  C   C616      1.0  0.07062  0.24460  0.83750  1.0000
  C   C617      1.0  0.06949  0.26610  0.83226  1.0000
  C   C618      1.0  0.05812  0.27770  0.81718  1.0000
  C   C619      1.0  0.04809  0.26783  0.80699  1.0000
  C   C620      1.0  0.04962  0.24623  0.81189  1.0000
  C   C621      1.0  0.06056  0.23465  0.82740  1.0000
  H   H1065     1.0  0.07750  0.27381  0.83977  1.0000
  H   H1066     1.0  0.05771  0.29418  0.81295  1.0000
  H   H1067     1.0  0.04254  0.23848  0.80351  1.0000
  H   H1068     1.0  0.06182  0.21799  0.83106  1.0000
  S   S153      1.0  0.12358  0.37081  0.84878  1.0000
  H   H1069     1.0  0.00690  0.24977  0.83977  1.0000
  C   C622      1.0  0.46798  0.24420  0.49037  1.0000
  C   C623      1.0  0.07026  0.37345  0.88973  1.0000
  H   H1070     1.0  0.46122  0.27321  0.65461  1.0000
  Fe  Fe79      1.0  0.99402  0.34475  0.81444  1.0000
  C   C624      1.0  0.34985  0.22278  0.58491  1.0000
  C   C625      1.0  0.34790  0.20194  0.59170  1.0000
  Fe  Fe80      1.0  0.06721  0.18743  0.92134  1.0000
  H   H1071     1.0  0.26643  0.28375  0.96785  1.0000
  S   S154      1.0  0.16664  0.36563  0.87488  1.0000
  C   C626      1.0  0.36467  0.23059  0.59122  1.0000
  Fe  Fe81      1.0  0.99872  0.35566  0.76756  1.0000
  H   H1072     1.0  0.35105  0.33020  0.69685  1.0000
  C   C627      1.0  0.23816  0.35562  0.96610  1.0000
  H   H1073     1.0  0.19746  0.32412  0.83201  1.0000
  C   C628      1.0  0.43498  0.28893  0.54309  1.0000
  C   C629      1.0  0.45166  0.28650  0.55338  1.0000
  C   C630      1.0  0.45960  0.30376  0.55491  1.0000
  C   C631      1.0  0.45125  0.32356  0.54561  1.0000
  C   C632      1.0  0.43445  0.32605  0.53544  1.0000
  C   C633      1.0  0.42622  0.30881  0.53432  1.0000
  H   H1074     1.0  0.45871  0.27119  0.55991  1.0000
  C   C634      1.0  0.08380  0.21005  0.95972  1.0000
  H   H1075     1.0  0.42787  0.34135  0.52824  1.0000
  H   H1076     1.0  0.41345  0.31086  0.52622  1.0000
  H   H1077     1.0  0.29787  0.26914  0.54932  1.0000
  H   H1078     1.0  0.01103  0.25478  0.87322  1.0000
  C   C635      1.0  0.33709  0.36862  0.53278  1.0000
  C   C636      1.0  0.34920  0.34922  0.53016  1.0000
  C   C637      1.0  0.36588  0.34154  0.54063  1.0000
  C   C638      1.0  0.36983  0.35269  0.55431  1.0000
  H   H1079     1.0  0.41612  0.24535  0.48877  1.0000
  H   H1080     1.0  0.37569  0.32693  0.53830  1.0000
  N   N36       1.0  0.99337  0.21418  0.83198  1.0000
  H   H1081     1.0  0.12991  0.20162  0.91242  1.0000
  C   C639      1.0  0.33686  0.19821  0.53356  1.0000
  H   H1082     1.0  0.43860  0.26602  0.49690  1.0000
  H   H1083     1.0  0.13586  0.20132  0.95955  1.0000
  Fe  Fe82      1.0  0.48409  0.36285  0.60393  1.0000
  H   H1084     1.0  0.33302  0.18630  0.54724  1.0000
  H   H1085     1.0  0.32431  0.37477  0.52455  1.0000
  C   C640      1.0  0.36114  0.18884  0.60447  1.0000
  C   C641      1.0  0.07774  0.22424  0.97346  1.0000
  H   H1086     1.0  0.40419  0.35652  0.60759  1.0000
  H   H1087     1.0  0.30496  0.35212  0.59020  1.0000
  H   H1088     1.0  0.99244  0.22793  0.92612  1.0000
  C   C642      1.0  0.13457  0.35299  0.76658  1.0000
  N   N37       1.0  0.17954  0.30091  0.91675  1.0000
  C   C643      1.0  0.19256  0.30894  0.92788  1.0000
  C   C644      1.0  0.19073  0.29939  0.89501  1.0000
  C   C645      1.0  0.15966  0.31661  0.91553  1.0000
  C   C646      1.0  0.17354  0.28059  0.92818  1.0000
  C   C647      1.0  0.19128  0.26231  0.93268  1.0000
  C   C648      1.0  0.18388  0.31025  0.95079  1.0000
  C   C649      1.0  0.14644  0.31437  0.90008  1.0000
  C   C650      1.0  0.21450  0.29135  0.89164  1.0000
  C   C651      1.0  0.22285  0.28794  0.86952  1.0000
  C   C652      1.0  0.18306  0.24465  0.94853  1.0000
  C   C653      1.0  0.19598  0.32278  0.95882  1.0000
  C   C654      1.0  0.12550  0.32889  0.90205  1.0000
  H   H1089     1.0  0.19504  0.32465  0.91963  1.0000
  H   H1090     1.0  0.20827  0.29941  0.92772  1.0000
  H   H1091     1.0  0.18349  0.28962  0.88819  1.0000
  H   H1092     1.0  0.18906  0.31509  0.88517  1.0000
  H   H1093     1.0  0.16301  0.33269  0.91129  1.0000
  H   H1094     1.0  0.14933  0.31606  0.93084  1.0000
  H   H1095     1.0  0.16329  0.28287  0.94306  1.0000
  H   H1096     1.0  0.16405  0.27501  0.91963  1.0000
  H   H1097     1.0  0.20339  0.26691  0.93872  1.0000
  H   H1098     1.0  0.19830  0.25592  0.91841  1.0000
  H   H1099     1.0  0.16745  0.31772  0.95318  1.0000
  H   H1100     1.0  0.18528  0.29448  0.96024  1.0000
  H   H1101     1.0  0.14346  0.29841  0.90247  1.0000
  H   H1102     1.0  0.15447  0.31834  0.88402  1.0000
  H   H1103     1.0  0.22262  0.30294  0.89434  1.0000
  H   H1104     1.0  0.21909  0.27679  0.90203  1.0000
  H   H1105     1.0  0.21588  0.27582  0.86597  1.0000
  H   H1106     1.0  0.21950  0.30259  0.85854  1.0000
  H   H1107     1.0  0.23993  0.28288  0.86744  1.0000
  H   H1108     1.0  0.26989  0.29817  0.59583  1.0000
  H   H1109     1.0  0.33318  0.25384  0.47559  1.0000
  H   H1110     1.0  0.11013  0.30487  0.84937  1.0000
  H   H1111     1.0  0.19586  0.23129  0.95075  1.0000
  C   C655      1.0  0.30648  0.38098  0.74464  1.0000
  C   C656      1.0  0.19491  0.20825  0.48772  1.0000
  H   H1112     1.0  0.12772  0.34527  0.89903  1.0000
  H   H1113     1.0  0.11671  0.32713  0.89054  1.0000
  H   H1114     1.0  0.11625  0.32523  0.91766  1.0000
  H   H1115     1.0  0.19537  0.33863  0.94958  1.0000
  C   C657      1.0  0.02930  0.34654  0.85958  1.0000
  H   H1116     1.0  0.20514  0.19921  0.49861  1.0000
  H   H1117     1.0  0.03365  0.32226  0.88687  1.0000
  C   C658      1.0  0.14482  0.34773  0.78607  1.0000
  H   H1118     1.0  0.05302  0.37195  0.85857  1.0000
  H   H1119     1.0  0.01284  0.19117  0.92776  1.0000
  C   C659      1.0  0.36163  0.33299  0.72373  1.0000
  C   C660      1.0  0.99944  0.24543  0.87266  1.0000
  C   C661      1.0  0.45196  0.37583  0.64803  1.0000
  H   H1120     1.0  0.48686  0.18912  0.73904  1.0000
  C   C662      1.0  0.01702  0.18696  0.60082  1.0000
  H   H1121     1.0  0.17647  0.32667  0.75975  1.0000
  H   H1122     1.0  0.16349  0.36299  0.96304  1.0000
  C   C663      1.0  0.37731  0.21771  0.60457  1.0000
  C   C664      1.0  0.37079  0.35419  0.68816  1.0000
  H   H1123     1.0  0.02078  0.29678  0.62678  1.0000
  C   C665      1.0  0.07518  0.37614  0.80749  1.0000
  H   H1124     1.0  0.39781  0.33946  0.91768  1.0000
  H   H1125     1.0  0.14797  0.33049  0.78998  1.0000
  H   H1126     1.0  0.41285  0.37394  0.56512  1.0000
  H   H1127     1.0  0.35089  0.36993  0.94849  1.0000
  H   H1128     1.0  0.40939  0.33202  0.67968  1.0000
  H   H1129     1.0  0.38843  0.22383  0.60981  1.0000
  H   H1130     1.0  0.47262  0.30168  0.56267  1.0000
  C   C666      1.0  0.29244  0.28586  0.54995  1.0000
  H   H1131     1.0  0.47758  0.22321  0.60316  1.0000
  C   C667      1.0  0.25842  0.30665  0.62548  1.0000
  H   H1132     1.0  0.99559  0.37511  0.85427  1.0000
  H   H1133     1.0  0.14495  0.34610  0.75372  1.0000
  H   H1134     1.0  0.10366  0.23465  0.89163  1.0000
  H   H1135     1.0  0.01647  0.20471  0.94667  1.0000
  C   C668      1.0  0.13081  0.37104  0.92890  1.0000
  C   C669      1.0  0.47687  0.27011  0.50599  1.0000
  H   H1136     1.0  0.35619  0.37986  0.62923  1.0000
  C   C670      1.0  0.19464  0.34133  0.73238  1.0000
  H   H1137     1.0  0.08198  0.36627  0.87781  1.0000
  C   C671      1.0  0.36475  0.36569  0.95604  1.0000
  H   H1138     1.0  0.30223  0.36803  0.75707  1.0000
  H   H1139     1.0  0.47937  0.20232  0.77105  1.0000
  H   H1140     1.0  0.43794  0.31020  0.66036  1.0000
  N   N38       1.0  0.30378  0.32303  0.58167  1.0000
  C   C672      1.0  0.29815  0.31604  0.56410  1.0000
  H   H1141     1.0  0.26017  0.32513  0.59528  1.0000
  C   C673      1.0  0.32670  0.31527  0.58138  1.0000
  H   H1142     1.0  0.23414  0.18379  0.47803  1.0000
  C   C674      1.0  0.47434  0.26710  0.64315  1.0000
  C   C675      1.0  0.30420  0.29245  0.56378  1.0000
  C   C676      1.0  0.33653  0.32320  0.59638  1.0000
  H   H1143     1.0  0.43216  0.19750  0.62019  1.0000
  H   H1144     1.0  0.33635  0.19589  0.58691  1.0000
  C   C677      1.0  0.04022  0.37421  0.87189  1.0000
  C   C678      1.0  0.35830  0.31106  0.59802  1.0000
  H   H1145     1.0  0.30581  0.32405  0.54906  1.0000
  H   H1146     1.0  0.48218  0.23763  0.55860  1.0000
  H   H1147     1.0  0.13859  0.24579  0.89582  1.0000
  H   H1148     1.0  0.31067  0.35190  0.56333  1.0000
  H   H1149     1.0  0.33556  0.31948  0.56561  1.0000
  H   H1150     1.0  0.32998  0.29804  0.58505  1.0000
  H   H1151     1.0  0.30043  0.29938  0.60909  1.0000
  C   C679      1.0  0.01240  0.28411  0.63546  1.0000
  S   S155      1.0  0.36676  0.38269  0.73033  1.0000
  H   H1152     1.0  0.32098  0.28856  0.55760  1.0000
  H   H1153     1.0  0.30125  0.28306  0.57940  1.0000
  H   H1154     1.0  0.32703  0.32178  0.61204  1.0000
  H   H1155     1.0  0.33803  0.33970  0.59070  1.0000
  H   H1156     1.0  0.20785  0.35500  0.88874  1.0000
  C   C680      1.0  0.00870  0.36001  0.89096  1.0000
  S   S156      1.0  0.47628  0.33290  0.60096  1.0000
  H   H1157     1.0  0.43050  0.23069  0.50847  1.0000
  C   C681      1.0  0.47534  0.22336  0.56420  1.0000
  H   H1158     1.0  0.06734  0.23822  0.90210  1.0000
  H   H1159     1.0  0.25030  0.34224  0.97040  1.0000
  H   H1160     1.0  0.36530  0.31769  0.60804  1.0000
  H   H1161     1.0  0.35769  0.29455  0.60477  1.0000
  H   H1162     1.0  0.36832  0.31201  0.58259  1.0000
  H   H1163     1.0  0.10371  0.35700  0.93390  1.0000
  S   S157      1.0  0.39641  0.37437  0.76545  1.0000
  H   H1164     1.0  0.16805  0.36827  0.75178  1.0000
  C   C682      1.0  0.09740  0.27411  0.88158  1.0000
  C   C683      1.0  0.35279  0.35855  0.65911  1.0000
  C   C684      1.0  0.27814  0.35815  0.57642  1.0000
  H   H1165     1.0  0.01773  0.34877  0.90176  1.0000
  H   H1166     1.0  0.10319  0.35096  0.78299  1.0000
  H   H1167     1.0  0.05719  0.33094  0.87218  1.0000
  H   H1168     1.0  0.37571  0.33556  0.72833  1.0000
  H   H1169     1.0  0.33035  0.36936  0.61480  1.0000
  C   C685      1.0  0.12928  0.23498  0.90656  1.0000
  H   H1170     1.0  0.05905  0.26272  0.88678  1.0000
  C   C686      1.0  0.45815  0.35537  0.65739  1.0000
  H   H1171     1.0  0.37813  0.32021  0.69730  1.0000
  H   H1172     1.0  0.45390  0.33250  0.68508  1.0000
  H   H1173     1.0  0.09043  0.26612  0.87270  1.0000
  C   C687      1.0  0.34081  0.37964  0.54679  1.0000
  H   H1174     1.0  0.44450  0.37008  0.58284  1.0000
  H   H1175     1.0  0.12855  0.28230  0.87696  1.0000
  C   C688      1.0  0.37591  0.19675  0.61087  1.0000
  H   H1176     1.0  0.15209  0.33602  0.82524  1.0000
  C   C689      1.0  0.17432  0.21682  0.50037  1.0000
  H   H1177     1.0  0.45268  0.22864  0.78622  1.0000
  H   H1178     1.0  0.07606  0.36858  0.90455  1.0000
  H   H1179     1.0  0.25020  0.35604  0.93411  1.0000
  C   C690      1.0  0.41142  0.18905  0.53686  1.0000
  H   H1180     1.0  0.38730  0.37707  0.63851  1.0000
  H   H1181     1.0  0.38267  0.34650  0.56248  1.0000
  C   C691      1.0  0.04206  0.32740  0.87122  1.0000
  H   H1182     1.0  0.34691  0.34371  0.66472  1.0000
  H   H1183     1.0  0.09793  0.23099  0.91864  1.0000
  N   N39       1.0  0.44694  0.23468  0.61891  1.0000
  C   C692      1.0  0.42504  0.24018  0.61470  1.0000
  C   C693      1.0  0.44929  0.21440  0.63380  1.0000
  C   C694      1.0  0.45004  0.25130  0.62939  1.0000
  C   C695      1.0  0.46304  0.23363  0.59951  1.0000
  C   C696      1.0  0.45689  0.22658  0.58150  1.0000
  C   C697      1.0  0.41903  0.26249  0.60285  1.0000
  H   H1184     1.0  0.99924  0.23268  0.88617  1.0000
  S   S158      1.0  0.33614  0.37030  0.78659  1.0000
  H   H1185     1.0  0.18142  0.32613  0.79519  1.0000
  H   H1186     1.0  0.20192  0.22173  0.47888  1.0000
  C   C698      1.0  0.40002  0.26481  0.59304  1.0000
  C   C699      1.0  0.17756  0.34196  0.79908  1.0000
  H   H1187     1.0  0.41371  0.23849  0.62939  1.0000
  H   H1188     1.0  0.42202  0.22916  0.60610  1.0000
  C   C700      1.0  0.39621  0.34522  0.90133  1.0000
  H   H1189     1.0  0.43815  0.21588  0.64846  1.0000
  H   H1190     1.0  0.43714  0.25384  0.64258  1.0000
  H   H1191     1.0  0.44954  0.26638  0.61857  1.0000
  H   H1192     1.0  0.46770  0.24900  0.59301  1.0000
  H   H1193     1.0  0.29529  0.29479  0.53405  1.0000
  H   H1194     1.0  0.44474  0.23842  0.57482  1.0000
  H   H1195     1.0  0.11083  0.28210  0.83873  1.0000
  H   H1196     1.0  0.41541  0.27375  0.61357  1.0000
  H   H1197     1.0  0.43191  0.26693  0.59056  1.0000
  H   H1198     1.0  0.20115  0.33061  0.76295  1.0000
  C   C701      1.0  0.32584  0.35795  0.82833  1.0000
  H   H1199     1.0  0.02047  0.27574  0.64838  1.0000
  H   H1200     1.0  0.15495  0.20919  0.90413  1.0000
  H   H1201     1.0  0.47011  0.23550  0.65194  1.0000
  H   H1202     1.0  0.48726  0.21039  0.56976  1.0000
  H   H1203     1.0  0.41059  0.21545  0.56544  1.0000
  H   H1204     1.0  0.38625  0.26224  0.60507  1.0000
  H   H1205     1.0  0.39694  0.28064  0.58394  1.0000
  H   H1206     1.0  0.40273  0.25361  0.58237  1.0000
  C   C702      1.0  0.11693  0.35805  0.94014  1.0000
  C   C703      1.0  0.00542  0.23659  0.85274  1.0000
  H   H1207     1.0  0.46504  0.21038  0.63789  1.0000
  H   H1208     1.0  0.02872  0.24920  0.90644  1.0000
  H   H1209     1.0  0.42426  0.34247  0.59064  1.0000
  H   H1210     1.0  0.39792  0.37446  0.66084  1.0000
  H   H1211     1.0  0.37671  0.36389  0.87023  1.0000
  H   H1212     1.0  0.28135  0.32064  0.56374  1.0000
  C   C704      1.0  0.09464  0.35690  0.83429  1.0000
  C   C705      1.0  0.10591  0.24067  0.90500  1.0000
  Fe  Fe83      1.0  0.48421  0.34392  0.56694  1.0000
  H   H1213     1.0  0.29136  0.32501  0.61362  1.0000
  H   H1214     1.0  0.38486  0.35666  0.69293  1.0000
  H   H1215     1.0  0.07280  0.34491  0.82256  1.0000
  H   H1216     1.0  0.26811  0.35588  0.59178  1.0000
  H   H1217     1.0  0.45585  0.18584  0.75708  1.0000
  H   H1218     1.0  0.46694  0.23427  0.50594  1.0000
  H   H1219     1.0  0.43817  0.22585  0.48229  1.0000
  H   H1220     1.0  0.37345  0.35030  0.95294  1.0000
  H   H1221     1.0  0.13457  0.29002  0.83950  1.0000
  H   H1222     1.0  0.35808  0.31773  0.73226  1.0000
  C   C706      1.0  0.42104  0.35368  0.60137  1.0000
  C   C707      1.0  0.06021  0.25460  0.90266  1.0000
  H   H1223     1.0  0.05218  0.34940  0.89633  1.0000
  H   H1224     1.0  0.22305  0.34135  0.92025  1.0000
  C   C708      1.0  0.01446  0.20039  0.83144  1.0000
  H   H1225     1.0  0.47344  0.23340  0.47922  1.0000
  C   C709      1.0  0.29202  0.31474  0.60246  1.0000
  H   H1226     1.0  0.48391  0.24202  0.62617  1.0000
  H   H1227     1.0  0.38822  0.33458  0.89662  1.0000
  C   C710      1.0  0.98903  0.22423  0.85081  1.0000
  H   H1228     1.0  0.99048  0.30322  0.65459  1.0000
  C   C711      1.0  0.10517  0.27489  0.91527  1.0000
  C   C712      1.0  0.07316  0.26461  0.91297  1.0000
  C   C713      1.0  0.10113  0.26841  0.93898  1.0000
  C   C714      1.0  0.11589  0.27576  0.94904  1.0000
  H   H1229     1.0  0.09901  0.29182  0.91187  1.0000
  H   H1230     1.0  0.12211  0.27343  0.91017  1.0000
  Fe  Fe84      1.0  0.19497  0.37399  0.85357  1.0000
  H   H1231     1.0  0.06559  0.28107  0.91313  1.0000
  H   H1232     1.0  0.07123  0.25657  0.92932  1.0000
  H   H1233     1.0  0.08508  0.27523  0.94549  1.0000
  H   H1234     1.0  0.10294  0.25138  0.94324  1.0000
  H   H1235     1.0  0.13190  0.26729  0.94509  1.0000
  C   C715      1.0  0.17718  0.35853  0.76335  1.0000
  H   H1236     1.0  0.02014  0.19690  0.58548  1.0000
  H   H1237     1.0  0.03061  0.27145  0.91630  1.0000
  H   H1238     1.0  0.13079  0.36987  0.76121  1.0000
  H   H1239     1.0  0.16775  0.35344  0.82843  1.0000
  H   H1240     1.0  0.42960  0.34687  0.61428  1.0000
  H   H1241     1.0  0.42341  0.31336  0.64002  1.0000
  H   H1242     1.0  0.47640  0.27918  0.62915  1.0000
  H   H1243     1.0  0.11769  0.32709  0.77522  1.0000
  C   C716      1.0  0.15053  0.36157  0.95661  1.0000
  H   H1244     1.0  0.21565  0.37780  0.93527  1.0000
  H   H1245     1.0  0.09831  0.34285  0.84510  1.0000
  C   C717      1.0  0.41891  0.19919  0.56824  1.0000
  H   H1246     1.0  0.19000  0.36698  0.76264  1.0000
  C   C718      1.0  0.11945  0.27546  0.86913  1.0000
  H   H1247     1.0  0.26702  0.29253  0.63397  1.0000
  H   H1248     1.0  0.35815  0.36647  0.69379  1.0000
  H   H1249     1.0  0.43347  0.21233  0.79086  1.0000
  H   H1250     1.0  0.00615  0.23960  0.81136  1.0000
  H   H1251     1.0  0.31012  0.36500  0.82653  1.0000
  H   H1252     1.0  0.03875  0.37297  0.90487  1.0000
  C   C719      1.0  0.14765  0.37280  0.93712  1.0000
  C   C720      1.0  0.11965  0.20788  0.96342  1.0000
  S   S159      1.0  0.00064  0.37320  0.79193  1.0000
  H   H1253     1.0  0.41887  0.19424  0.58499  1.0000
  H   H1254     1.0  0.02081  0.22655  0.85318  1.0000
  H   H1255     1.0  0.31894  0.37649  0.63948  1.0000
  H   H1256     1.0  0.40981  0.20601  0.53136  1.0000
  H   H1257     1.0  0.17665  0.24966  0.96361  1.0000
  C   C721      1.0  0.18734  0.33785  0.75569  1.0000
  C   C722      1.0  0.02006  0.18447  0.81655  1.0000
  C   C723      1.0  0.13855  0.21326  0.90195  1.0000
  H   H1258     1.0  0.46984  0.34502  0.64893  1.0000
  H   H1259     1.0  0.36607  0.24669  0.58607  1.0000
  H   H1260     1.0  0.43534  0.18865  0.49824  1.0000
  S   S160      1.0  0.22269  0.34959  0.84665  1.0000
  H   H1261     1.0  0.16672  0.20403  0.51005  1.0000
  C   C724      1.0  0.44571  0.25429  0.48701  1.0000
  C   C725      1.0  0.07997  0.35811  0.82170  1.0000
  H   H1262     1.0  0.39042  0.34047  0.64037  1.0000
  H   H1263     1.0  0.27140  0.35316  0.56509  1.0000
  C   C726      1.0  0.35704  0.37151  0.55779  1.0000
  H   H1264     1.0  0.46121  0.27965  0.50600  1.0000
  H   H1265     1.0  0.13279  0.35275  0.79907  1.0000
  H   H1266     1.0  0.36292  0.35299  0.62697  1.0000
  H   H1267     1.0  0.01870  0.19211  0.80055  1.0000
  C   C727      1.0  0.44915  0.34833  0.67784  1.0000
  C   C728      1.0  0.40991  0.33324  0.66296  1.0000
  H   H1268     1.0  0.00339  0.37420  0.89807  1.0000
  H   H1269     1.0  0.32586  0.34945  0.63700  1.0000
  H   H1270     1.0  0.47495  0.25896  0.52081  1.0000
  H   H1271     1.0  0.12772  0.25980  0.86654  1.0000
  H   H1272     1.0  0.17489  0.32078  0.85134  1.0000
  H   H1273     1.0  0.27555  0.28831  0.55611  1.0000
  H   H1274     1.0  0.37360  0.20315  0.54135  1.0000
  C   C729      1.0  0.42206  0.31284  0.65679  1.0000
  H   H1275     1.0  0.25684  0.31988  0.63349  1.0000
  C   C730      1.0  0.36531  0.33321  0.70058  1.0000
  N   N40       1.0  0.48307  0.25866  0.48805  1.0000
  C   C731      1.0  0.35211  0.36435  0.63569  1.0000
  C   C732      1.0  0.33046  0.36489  0.63159  1.0000
  C   C733      1.0  0.46520  0.19728  0.78086  1.0000
  H   H1276     1.0  0.00016  0.18653  0.60479  1.0000
  C   C734      1.0  0.18122  0.32152  0.83472  1.0000
  C   C735      1.0  0.16809  0.33927  0.82234  1.0000
  H   H1277     1.0  0.34101  0.37016  0.66690  1.0000
  H   H1278     1.0  0.22395  0.34958  0.96626  1.0000
  C   C736      1.0  0.47060  0.24740  0.63771  1.0000
  H   H1279     1.0  0.39813  0.20495  0.50118  1.0000
  C   C737      1.0  0.35881  0.19204  0.52205  1.0000
  C   C738      1.0  0.99419  0.23009  0.81243  1.0000
  H   H1280     1.0  0.21241  0.31497  0.95830  1.0000
  C   C739      1.0  0.04953  0.36646  0.89193  1.0000
  C   C740      1.0  0.10480  0.37361  0.83283  1.0000
  H   H1281     1.0  0.16371  0.22663  0.49013  1.0000
  N   N41       1.0  0.16422  0.35641  0.78466  1.0000
  H   H1282     1.0  0.10758  0.34817  0.75652  1.0000
  H   H1283     1.0  0.20584  0.35222  0.72779  1.0000
  H   H1284     1.0  0.02122  0.19388  0.61257  1.0000
  H   H1285     1.0  0.37486  0.37741  0.94920  1.0000
  N   N42       1.0  0.02197  0.36511  0.87010  1.0000
  S   S161      1.0  0.34692  0.29559  0.97380  1.0000
  H   H1286     1.0  0.46008  0.19077  0.61418  1.0000
  C   C741      1.0  0.00508  0.19793  0.94163  1.0000
  C   C742      1.0  0.11458  0.34421  0.77065  1.0000
  H   H1287     1.0  0.25787  0.37651  0.90483  1.0000
  H   H1288     1.0  0.27048  0.37293  0.86826  1.0000
  C   C743      1.0  0.38369  0.36720  0.89897  1.0000
  C   C744      1.0  0.24565  0.36740  0.94469  1.0000
  H   H1289     1.0  0.32556  0.20009  0.52316  1.0000
  H   H1290     1.0  0.99332  0.33673  0.88424  1.0000
  S   S162      1.0  0.05774  0.37824  0.79030  1.0000
  C   C745      1.0  0.40187  0.18770  0.50447  1.0000
  H   H1291     1.0  0.43520  0.19861  0.56019  1.0000
  H   H1292     1.0  0.48177  0.29976  0.51074  1.0000
  H   H1293     1.0  0.12836  0.37991  0.91397  1.0000
  H   H1294     1.0  0.18126  0.34766  0.72428  1.0000
  H   H1295     1.0  0.36840  0.36675  0.90896  1.0000
  C   C746      1.0  0.00869  0.38135  0.85692  1.0000
  H   H1296     1.0  0.30515  0.37747  0.72970  1.0000
  H   H1297     1.0  0.32281  0.38206  0.74419  1.0000
  H   H1298     1.0  0.25961  0.37343  0.94531  1.0000
  H   H1299     1.0  0.14993  0.37614  0.80725  1.0000
  C   C747      1.0  0.42783  0.38209  0.67943  1.0000
  C   C748      1.0  0.37512  0.18807  0.53634  1.0000
  C   C749      1.0  0.15901  0.37724  0.79136  1.0000
  H   H1300     1.0  0.23252  0.37887  0.89952  1.0000
  H   H1301     1.0  0.37671  0.37575  0.83707  1.0000
  H   H1302     1.0  0.24502  0.37989  0.86119  1.0000
  H   H1303     1.0  0.39746  0.37736  0.86748  1.0000
  H   H1304     1.0  0.39183  0.37683  0.90489  1.0000
  C   C750      1.0  0.38154  0.37604  0.87616  1.0000
  H   H1305     1.0  0.05345  0.18374  0.81099  1.0000
  C   C751      1.0  0.40822  0.18499  0.56072  1.0000
  H   H1306     1.0  0.00011  0.18534  0.95410  1.0000
  H   H1307     1.0  0.34264  0.37932  0.87339  1.0000
  H   H1308     1.0  0.17358  0.38242  0.79186  1.0000
  C   C752      1.0  0.27785  0.38144  0.56975  1.0000
  Fe  Fe85      1.0  0.28371  0.54849  0.35411  1.0000
  S   S163      1.0  0.26748  0.52975  0.38250  1.0000
  S   S164      1.0  0.31891  0.54240  0.34462  1.0000
  H   H1309     1.0  0.24936  0.47711  0.40399  1.0000
  S   S165      1.0  0.22447  0.56038  0.37338  1.0000
  H   H1310     1.0  0.19227  0.52241  0.01647  1.0000
  Fe  Fe86      1.0  0.25046  0.56087  0.38926  1.0000
  H   H1311     1.0  0.08961  0.40488  0.28552  1.0000
  Fe  Fe87      1.0  0.24293  0.53091  0.36352  1.0000
  S   S166      1.0  0.22284  0.50620  0.36667  1.0000
  H   H1312     1.0  0.21233  0.54600  0.33137  1.0000
  S   S167      1.0  0.26068  0.54697  0.33454  1.0000
  Fe  Fe88      1.0  0.16561  0.45572  0.30186  1.0000
  S   S168      1.0  0.14568  0.44656  0.33231  1.0000
  S   S169      1.0  0.19299  0.47270  0.29755  1.0000
  Fe  Fe89      1.0  0.13771  0.44151  0.27840  1.0000
  S   S170      1.0  0.11563  0.43254  0.30720  1.0000
  S   S171      1.0  0.12789  0.43835  0.24926  1.0000
  Fe  Fe90      1.0  0.11900  0.46178  0.31600  1.0000
  S   S172      1.0  0.09209  0.48222  0.33216  1.0000
  Fe  Fe91      1.0  0.14429  0.41808  0.32030  1.0000
  S   S173      1.0  0.13868  0.47241  0.28606  1.0000
  S   S174      1.0  0.16662  0.42569  0.29096  1.0000
  H   H1313     1.0  0.26261  0.46747  0.43668  1.0000
  C   C753      1.0  0.47447  0.53612  0.38241  1.0000
  H   H1314     1.0  0.17305  0.38565  0.12987  1.0000
  C   C754      1.0  0.10386  0.43780  0.03954  1.0000
  H   H1315     1.0  0.47639  0.46270  0.22214  1.0000
  S   S175      1.0  0.06310  0.39418  0.17119  1.0000
  H   H1316     1.0  0.05470  0.40896  0.21388  1.0000
  H   H1317     1.0  0.36985  0.52120  0.37969  1.0000
  H   H1318     1.0  0.12312  0.41070  0.01214  1.0000
  S   S176      1.0  0.02471  0.54786  0.28944  1.0000
  H   H1319     1.0  0.00230  0.57811  0.35356  1.0000
  Fe  Fe92      1.0  0.11236  0.47652  0.09663  1.0000
  S   S177      1.0  0.12396  0.47563  0.12551  1.0000
  S   S178      1.0  0.10579  0.44717  0.09046  1.0000
  Fe  Fe93      1.0  0.11400  0.52267  0.08180  1.0000
  S   S179      1.0  0.12564  0.52535  0.10962  1.0000
  Fe  Fe94      1.0  0.14640  0.49496  0.10526  1.0000
  S   S180      1.0  0.18075  0.48943  0.10532  1.0000
  Fe  Fe95      1.0  0.10206  0.50573  0.12678  1.0000
  S   S181      1.0  0.07834  0.51060  0.15481  1.0000
  S   S182      1.0  0.13645  0.49366  0.07605  1.0000
  S   S183      1.0  0.08874  0.50531  0.09930  1.0000
  C   C755      1.0  0.43738  0.53115  0.38635  1.0000
  N   N43       1.0  0.26315  0.49394  0.46390  1.0000
  C   C756      1.0  0.32037  0.50133  0.45809  1.0000
  H   H1320     1.0  0.30055  0.39921  0.03466  1.0000
  C   C757      1.0  0.03775  0.51435  0.38195  1.0000
  H   H1321     1.0  0.37728  0.39846  0.18161  1.0000
  C   C758      1.0  0.40833  0.40268  0.16710  1.0000
  H   H1322     1.0  0.45888  0.53311  0.35782  1.0000
  C   C759      1.0  0.21115  0.42134  0.11627  1.0000
  C   C760      1.0  0.22299  0.43638  0.10571  1.0000
  C   C761      1.0  0.21362  0.45738  0.10264  1.0000
  C   C762      1.0  0.19227  0.46319  0.10916  1.0000
  C   C763      1.0  0.18043  0.44802  0.11913  1.0000
  C   C764      1.0  0.18999  0.42727  0.12312  1.0000
  H   H1323     1.0  0.23949  0.43193  0.10070  1.0000
  H   H1324     1.0  0.22290  0.46912  0.09518  1.0000
  H   H1325     1.0  0.16408  0.45233  0.12459  1.0000
  H   H1326     1.0  0.18112  0.41583  0.13207  1.0000
  H   H1327     1.0  0.22581  0.44612  0.98026  1.0000
  C   C765      1.0  0.08295  0.52804  0.16830  1.0000
  C   C766      1.0  0.10200  0.53472  0.16421  1.0000
  C   C767      1.0  0.10525  0.54859  0.17554  1.0000
  H   H1328     1.0  0.11415  0.52933  0.15229  1.0000
  C   C768      1.0  0.29510  0.56646  0.45601  1.0000
  C   C769      1.0  0.07380  0.40942  0.14847  1.0000
  C   C770      1.0  0.08033  0.40137  0.13024  1.0000
  C   C771      1.0  0.08910  0.41353  0.11218  1.0000
  C   C772      1.0  0.09210  0.43345  0.11248  1.0000
  C   C773      1.0  0.08499  0.44173  0.13058  1.0000
  C   C774      1.0  0.07569  0.42979  0.14850  1.0000
  H   H1329     1.0  0.47593  0.43025  0.17431  1.0000
  H   H1330     1.0  0.09405  0.40733  0.09808  1.0000
  H   H1331     1.0  0.08671  0.45730  0.13084  1.0000
  H   H1332     1.0  0.07038  0.43620  0.16249  1.0000
  C   C775      1.0  0.07383  0.49863  0.31814  1.0000
  C   C776      1.0  0.05301  0.50112  0.32757  1.0000
  C   C777      1.0  0.03807  0.51561  0.31807  1.0000
  C   C778      1.0  0.04386  0.52822  0.29926  1.0000
  C   C779      1.0  0.06466  0.52544  0.28941  1.0000
  C   C780      1.0  0.07967  0.51052  0.29881  1.0000
  H   H1333     1.0  0.04845  0.49181  0.34238  1.0000
  H   H1334     1.0  0.02203  0.51752  0.32566  1.0000
  H   H1335     1.0  0.06920  0.53488  0.27471  1.0000
  H   H1336     1.0  0.09578  0.50871  0.29148  1.0000
  C   C781      1.0  0.13139  0.41392  0.24181  1.0000
  H   H1337     1.0  0.15558  0.39901  0.25919  1.0000
  C   C782      1.0  0.12284  0.39275  0.22059  1.0000
  C   C783      1.0  0.11958  0.41148  0.22794  1.0000
  H   H1338     1.0  0.13139  0.50796  0.45743  1.0000
  H   H1339     1.0  0.10785  0.42410  0.22281  1.0000
  C   C784      1.0  0.21506  0.49702  0.34702  1.0000
  C   C785      1.0  0.19904  0.48529  0.35253  1.0000
  C   C786      1.0  0.19211  0.47779  0.33769  1.0000
  C   C787      1.0  0.20150  0.48146  0.31700  1.0000
  C   C788      1.0  0.21778  0.49292  0.31144  1.0000
  C   C789      1.0  0.22441  0.50081  0.32629  1.0000
  H   H1340     1.0  0.19206  0.48173  0.36844  1.0000
  H   H1341     1.0  0.17972  0.46888  0.34231  1.0000
  H   H1342     1.0  0.22532  0.49576  0.29553  1.0000
  H   H1343     1.0  0.23694  0.50956  0.32172  1.0000
  H   H1344     1.0  0.47479  0.43921  0.19790  1.0000
  C   C790      1.0  0.28359  0.55992  0.42643  1.0000
  C   C791      1.0  0.29905  0.55735  0.43837  1.0000
  H   H1345     1.0  0.28666  0.55260  0.41303  1.0000
  H   H1346     1.0  0.31404  0.54826  0.43392  1.0000
  H   H1347     1.0  0.23719  0.53535  0.46198  1.0000
  C   C792      1.0  0.25857  0.48414  0.43030  1.0000
  H   H1348     1.0  0.16660  0.55020  0.42994  1.0000
  H   H1349     1.0  0.48347  0.45319  0.32579  1.0000
  C   C793      1.0  0.17863  0.38845  0.04911  1.0000
  H   H1350     1.0  0.99037  0.42589  0.19834  1.0000
  H   H1351     1.0  0.03265  0.58228  0.09638  1.0000
  C   C794      1.0  0.37968  0.53038  0.38402  1.0000
  H   H1352     1.0  0.99533  0.55055  0.09572  1.0000
  H   H1353     1.0  0.23392  0.46309  0.00538  1.0000
  H   H1354     1.0  0.13325  0.40599  0.11246  1.0000
  H   H1355     1.0  0.23821  0.50260  0.40930  1.0000
  H   H1356     1.0  0.42671  0.52541  0.37931  1.0000
  H   H1357     1.0  0.04785  0.50085  0.38959  1.0000
  H   H1358     1.0  0.43665  0.52319  0.40262  1.0000
  H   H1359     1.0  0.03064  0.50889  0.37115  1.0000
  H   H1360     1.0  0.02465  0.55552  0.37071  1.0000
  H   H1361     1.0  0.31083  0.40899  0.00821  1.0000
  C   C795      1.0  0.01664  0.39560  0.22004  1.0000
  S   S184      1.0  0.25454  0.41403  0.02219  1.0000
  H   H1362     1.0  0.32112  0.51308  0.44380  1.0000
  N   N44       1.0  0.07459  0.48677  0.23790  1.0000
  C   C796      1.0  0.08917  0.50219  0.23200  1.0000
  C   C797      1.0  0.05334  0.49798  0.23428  1.0000
  C   C798      1.0  0.07444  0.47707  0.26022  1.0000
  C   C799      1.0  0.08144  0.46985  0.22509  1.0000
  C   C800      1.0  0.08441  0.47709  0.20143  1.0000
  C   C801      1.0  0.11249  0.49305  0.23163  1.0000
  C   C802      1.0  0.05805  0.46300  0.27005  1.0000
  C   C803      1.0  0.04269  0.51465  0.24776  1.0000
  C   C804      1.0  0.02124  0.52461  0.24271  1.0000
  C   C805      1.0  0.09371  0.45893  0.19004  1.0000
  C   C806      1.0  0.12553  0.51019  0.22528  1.0000
  C   C807      1.0  0.05941  0.45430  0.29263  1.0000
  H   H1363     1.0  0.08501  0.51338  0.24285  1.0000
  H   H1364     1.0  0.08750  0.51184  0.21672  1.0000
  H   H1365     1.0  0.05410  0.50610  0.21808  1.0000
  H   H1366     1.0  0.04272  0.48680  0.23610  1.0000
  H   H1367     1.0  0.07229  0.48918  0.26980  1.0000
  H   H1368     1.0  0.08976  0.46736  0.26227  1.0000
  H   H1369     1.0  0.09602  0.45988  0.22894  1.0000
  H   H1370     1.0  0.06998  0.45928  0.22883  1.0000
  H   H1371     1.0  0.09491  0.48855  0.19616  1.0000
  H   H1372     1.0  0.06928  0.48419  0.19664  1.0000
  H   H1373     1.0  0.11522  0.48465  0.24709  1.0000
  H   H1374     1.0  0.11831  0.48226  0.22049  1.0000
  H   H1375     1.0  0.06051  0.44966  0.26205  1.0000
  H   H1376     1.0  0.04209  0.47170  0.26953  1.0000
  H   H1377     1.0  0.04066  0.50789  0.26438  1.0000
  H   H1378     1.0  0.05186  0.52721  0.24496  1.0000
  H   H1379     1.0  0.19854  0.45604  0.98688  1.0000
  H   H1380     1.0  0.48543  0.45497  0.26610  1.0000
  H   H1381     1.0  0.08386  0.44678  0.19475  1.0000
  H   H1382     1.0  0.09473  0.46447  0.17320  1.0000
  H   H1383     1.0  0.10958  0.45214  0.19314  1.0000
  H   H1384     1.0  0.12383  0.51874  0.20955  1.0000
  H   H1385     1.0  0.12070  0.52127  0.23622  1.0000
  H   H1386     1.0  0.14211  0.50328  0.22529  1.0000
  H   H1387     1.0  0.07479  0.44447  0.29397  1.0000
  H   H1388     1.0  0.05699  0.46704  0.30150  1.0000
  N   N45       1.0  0.20123  0.47980  0.03807  1.0000
  C   C808      1.0  0.19430  0.46075  0.05187  1.0000
  C   C809      1.0  0.22155  0.48267  0.04247  1.0000
  C   C810      1.0  0.18500  0.49823  0.04340  1.0000
  C   C811      1.0  0.20263  0.47919  0.01563  1.0000
  C   C812      1.0  0.21770  0.46075  0.00724  1.0000
  C   C813      1.0  0.17449  0.45484  0.04801  1.0000
  C   C814      1.0  0.19021  0.52003  0.03348  1.0000
  C   C815      1.0  0.23785  0.46294  0.04756  1.0000
  C   C816      1.0  0.25845  0.46846  0.04870  1.0000
  C   C817      1.0  0.20718  0.53889  0.42866  1.0000
  C   C818      1.0  0.16573  0.43963  0.06637  1.0000
  H   H1389     1.0  0.19194  0.46261  0.06824  1.0000
  H   H1390     1.0  0.20637  0.44671  0.05064  1.0000
  H   H1391     1.0  0.22915  0.49321  0.02934  1.0000
  H   H1392     1.0  0.21864  0.49042  0.05614  1.0000
  H   H1393     1.0  0.18155  0.49764  0.06039  1.0000
  H   H1394     1.0  0.17014  0.49798  0.03885  1.0000
  H   H1395     1.0  0.18698  0.47948  0.01237  1.0000
  H   H1396     1.0  0.20775  0.49335  0.00583  1.0000
  H   H1397     1.0  0.21580  0.44577  0.01747  1.0000
  H   H1398     1.0  0.47326  0.38501  0.11756  1.0000
  H   H1399     1.0  0.16197  0.46823  0.04542  1.0000
  H   H1400     1.0  0.17835  0.44734  0.03419  1.0000
  S   S185      1.0  0.46647  0.56092  0.29709  1.0000
  H   H1401     1.0  0.20450  0.52234  0.03777  1.0000
  H   H1402     1.0  0.23236  0.45381  0.06270  1.0000
  H   H1403     1.0  0.24094  0.45269  0.03615  1.0000
  H   H1404     1.0  0.26955  0.45401  0.05275  1.0000
  H   H1405     1.0  0.26518  0.47691  0.03359  1.0000
  H   H1406     1.0  0.25628  0.47813  0.06070  1.0000
  H   H1407     1.0  0.14617  0.56112  0.36207  1.0000
  H   H1408     1.0  0.16611  0.56515  0.39763  1.0000
  H   H1409     1.0  0.10253  0.57568  0.28928  1.0000
  H   H1410     1.0  0.15253  0.43430  0.06281  1.0000
  H   H1411     1.0  0.17790  0.42610  0.07004  1.0000
  H   H1412     1.0  0.15997  0.44723  0.08010  1.0000
  S   S186      1.0  0.03300  0.57767  0.23197  1.0000
  Fe  Fe96      1.0  0.25567  0.38889  0.04997  1.0000
  H   H1413     1.0  0.13136  0.55128  0.43016  1.0000
  C   C819      1.0  0.01907  0.54026  0.12770  1.0000
  C   C820      1.0  0.15092  0.55961  0.29373  1.0000
  H   H1414     1.0  0.27802  0.46178  0.46406  1.0000
  H   H1415     1.0  0.41881  0.55231  0.25989  1.0000
  H   H1416     1.0  0.43144  0.54908  0.28163  1.0000
  H   H1417     1.0  0.28205  0.51507  0.44337  1.0000
  H   H1418     1.0  0.47329  0.52905  0.39897  1.0000
  C   C821      1.0  0.13072  0.57149  0.47024  1.0000
  H   H1419     1.0  0.38304  0.57041  0.38628  1.0000
  C   C822      1.0  0.10516  0.53184  0.46243  1.0000
  H   H1420     1.0  0.16539  0.45663  0.24788  1.0000
  C   C823      1.0  0.35764  0.40287  0.24300  1.0000
  C   C824      1.0  0.13392  0.53423  0.43111  1.0000
  H   H1421     1.0  0.46998  0.48812  0.30920  1.0000
  C   C825      1.0  0.48495  0.46501  0.25080  1.0000
  H   H1422     1.0  0.09499  0.38591  0.26879  1.0000
  S   S187      1.0  0.22273  0.39546  0.12314  1.0000
  H   H1423     1.0  0.06141  0.39405  0.98613  1.0000
  H   H1424     1.0  0.32077  0.41450  0.02885  1.0000
  H   H1425     1.0  0.27269  0.48925  0.42039  1.0000
  H   H1426     1.0  0.14120  0.56533  0.30755  1.0000
  H   H1427     1.0  0.38426  0.56889  0.33285  1.0000
  C   C826      1.0  0.15765  0.56622  0.36865  1.0000
  H   H1428     1.0  0.01940  0.57070  0.13265  1.0000
  C   C827      1.0  0.26028  0.58107  0.44949  1.0000
  C   C828      1.0  0.03250  0.58130  0.33379  1.0000
  N   N46       1.0  0.16577  0.54007  0.29993  1.0000
  C   C829      1.0  0.17890  0.53159  0.28144  1.0000
  H   H1429     1.0  0.99506  0.56344  0.14105  1.0000
  C   C830      1.0  0.15298  0.52399  0.31209  1.0000
  H   H1430     1.0  0.10700  0.55661  0.31199  1.0000
  H   H1431     1.0  0.04731  0.44462  0.29949  1.0000
  C   C831      1.0  0.16706  0.52548  0.26690  1.0000
  H   H1432     1.0  0.13388  0.38694  0.29978  1.0000
  H   H1433     1.0  0.22453  0.56326  0.31027  1.0000
  H   H1434     1.0  0.07889  0.40114  0.01362  1.0000
  C   C832      1.0  0.18209  0.51694  0.24900  1.0000
  H   H1435     1.0  0.19001  0.51758  0.28667  1.0000
  H   H1436     1.0  0.18875  0.54259  0.27179  1.0000
  H   H1437     1.0  0.12015  0.51398  0.35961  1.0000
  H   H1438     1.0  0.18450  0.52876  0.32382  1.0000
  H   H1439     1.0  0.16269  0.50822  0.31333  1.0000
  H   H1440     1.0  0.14045  0.52331  0.30390  1.0000
  H   H1441     1.0  0.19052  0.40642  0.20413  1.0000
  C   C833      1.0  0.33421  0.56018  0.34674  1.0000
  C   C834      1.0  0.29797  0.50121  0.46904  1.0000
  H   H1442     1.0  0.15810  0.51315  0.27513  1.0000
  H   H1443     1.0  0.38855  0.38732  0.23360  1.0000
  C   C835      1.0  0.27577  0.42155  0.98307  1.0000
  C   C836      1.0  0.37741  0.54339  0.44609  1.0000
  C   C837      1.0  0.08942  0.55575  0.19087  1.0000
  H   H1444     1.0  0.19813  0.56405  0.28978  1.0000
  H   H1445     1.0  0.43209  0.54804  0.38602  1.0000
  C   C838      1.0  0.02379  0.52946  0.14893  1.0000
  H   H1446     1.0  0.01114  0.51281  0.24566  1.0000
  H   H1447     1.0  0.19283  0.50290  0.25486  1.0000
  H   H1448     1.0  0.17326  0.51255  0.23894  1.0000
  H   H1449     1.0  0.19123  0.52877  0.23967  1.0000
  H   H1450     1.0  0.15791  0.53590  0.03634  1.0000
  C   C839      1.0  0.20001  0.55123  0.30290  1.0000
  H   H1451     1.0  0.11991  0.55393  0.17226  1.0000
  H   H1452     1.0  0.02957  0.54307  0.34891  1.0000
  Fe  Fe97      1.0  0.24313  0.57623  0.34549  1.0000
  C   C840      1.0  0.00843  0.56312  0.12803  1.0000
  H   H1453     1.0  0.18981  0.46393  0.23516  1.0000
  H   H1454     1.0  0.38784  0.53884  0.36965  1.0000
  H   H1455     1.0  0.03405  0.53933  0.11681  1.0000
  H   H1456     1.0  0.02248  0.53246  0.22637  1.0000
  H   H1457     1.0  0.04203  0.40929  0.24039  1.0000
  C   C841      1.0  0.36896  0.53282  0.46771  1.0000
  H   H1458     1.0  0.07332  0.57342  0.10244  1.0000
  H   H1459     1.0  0.36314  0.41584  0.24680  1.0000
  H   H1460     1.0  0.46398  0.50959  0.37637  1.0000
  H   H1461     1.0  0.02854  0.57358  0.32239  1.0000
  H   H1462     1.0  0.99211  0.40977  0.17980  1.0000
  H   H1463     1.0  0.02106  0.40718  0.20613  1.0000
  H   H1464     1.0  0.08073  0.54977  0.11971  1.0000
  H   H1465     1.0  0.19914  0.57220  0.32385  1.0000
  H   H1466     1.0  0.27328  0.43746  0.98525  1.0000
  H   H1467     1.0  0.19647  0.53296  0.40336  1.0000
  H   H1468     1.0  0.08696  0.42843  0.02076  1.0000
  H   H1469     1.0  0.35517  0.57115  0.44974  1.0000
  C   C842      1.0  0.27135  0.38602  0.99605  1.0000
  C   C843      1.0  0.09560  0.42086  0.03347  1.0000
  H   H1470     1.0  0.03172  0.51324  0.14827  1.0000
  H   H1471     1.0  0.11397  0.51619  0.33449  1.0000
  N   N47       1.0  0.10755  0.38422  0.02341  1.0000
  H   H1472     1.0  0.33776  0.57765  0.40843  1.0000
  C   C844      1.0  0.07145  0.56565  0.11879  1.0000
  H   H1473     1.0  0.46816  0.55295  0.38190  1.0000
  C   C845      1.0  0.14638  0.39733  0.24850  1.0000
  H   H1474     1.0  0.07476  0.57042  0.14831  1.0000
  H   H1475     1.0  0.03404  0.38895  0.33188  1.0000
  C   C846      1.0  0.06721  0.53518  0.18360  1.0000
  H   H1476     1.0  0.15422  0.52316  0.34462  1.0000
  H   H1477     1.0  0.08909  0.57434  0.34999  1.0000
  C   C847      1.0  0.11361  0.40363  0.02653  1.0000
  C   C848      1.0  0.24834  0.53055  0.47284  1.0000
  C   C849      1.0  0.12682  0.51235  0.34341  1.0000
  H   H1478     1.0  0.37738  0.40492  0.21350  1.0000
  C   C850      1.0  0.48502  0.43059  0.18613  1.0000
  C   C851      1.0  0.28393  0.49988  0.45402  1.0000
  H   H1479     1.0  0.10092  0.39989  0.99351  1.0000
  H   H1480     1.0  0.46035  0.45140  0.24521  1.0000
  N   N48       1.0  0.00175  0.57520  0.10828  1.0000
  C   C852      1.0  0.17943  0.54355  0.31358  1.0000
  N   N49       1.0  0.15556  0.52634  0.42058  1.0000
  C   C853      1.0  0.15704  0.53527  0.39788  1.0000
  C   C854      1.0  0.15858  0.50291  0.42418  1.0000
  C   C855      1.0  0.99345  0.38745  0.34314  1.0000
  C   C856      1.0  0.17072  0.53329  0.43005  1.0000
  C   C857      1.0  0.19381  0.52807  0.42028  1.0000
  C   C858      1.0  0.15450  0.55926  0.39201  1.0000
  C   C859      1.0  0.46108  0.51471  0.27322  1.0000
  C   C860      1.0  0.17355  0.49170  0.40749  1.0000
  C   C861      1.0  0.17817  0.46832  0.41507  1.0000
  H   H1481     1.0  0.13417  0.54288  0.33511  1.0000
  H   H1482     1.0  0.08071  0.55391  0.36944  1.0000
  H   H1483     1.0  0.14519  0.53031  0.39161  1.0000
  H   H1484     1.0  0.17211  0.52907  0.38889  1.0000
  H   H1485     1.0  0.16378  0.49623  0.43920  1.0000
  H   H1486     1.0  0.00912  0.53140  0.12318  1.0000
  H   H1487     1.0  0.35342  0.55424  0.38908  1.0000
  C   C862      1.0  0.36799  0.57120  0.33959  1.0000
  C   C863      1.0  0.37869  0.56067  0.40149  1.0000
  H   H1488     1.0  0.16964  0.52630  0.44664  1.0000
  H   H1489     1.0  0.12352  0.39974  0.03858  1.0000
  H   H1490     1.0  0.19940  0.51119  0.42415  1.0000
  H   H1491     1.0  0.35451  0.39151  0.25737  1.0000
  H   H1492     1.0  0.11402  0.44548  0.02619  1.0000
  H   H1493     1.0  0.48342  0.40140  0.12964  1.0000
  C   C864      1.0  0.36607  0.54552  0.39742  1.0000
  H   H1494     1.0  0.16618  0.49439  0.39368  1.0000
  H   H1495     1.0  0.18850  0.49727  0.40273  1.0000
  H   H1496     1.0  0.18860  0.46064  0.40270  1.0000
  H   H1497     1.0  0.18607  0.46482  0.42860  1.0000
  H   H1498     1.0  0.36220  0.54436  0.33034  1.0000
  H   H1499     1.0  0.17654  0.55247  0.03353  1.0000
  C   C865      1.0  0.19038  0.40810  0.18744  1.0000
  H   H1500     1.0  0.46753  0.46948  0.29471  1.0000
  H   H1501     1.0  0.42343  0.39336  0.16139  1.0000
  H   H1502     1.0  0.16385  0.39904  0.04676  1.0000
  H   H1503     1.0  0.98908  0.40084  0.33109  1.0000
  H   H1504     1.0  0.15591  0.39643  0.08494  1.0000
  H   H1505     1.0  0.17021  0.53567  0.05773  1.0000
  N   N50       1.0  0.36764  0.57410  0.41719  1.0000
  C   C866      1.0  0.32573  0.57694  0.35696  1.0000
  S   S188      1.0  0.10764  0.54936  0.05608  1.0000
  C   C867      1.0  0.07555  0.57370  0.31319  1.0000
  C   C868      1.0  0.10307  0.57450  0.06192  1.0000
  H   H1506     1.0  0.12811  0.42997  0.13711  1.0000
  H   H1507     1.0  0.34717  0.55439  0.43737  1.0000
  H   H1508     1.0  0.11383  0.39118  0.20969  1.0000
  S   S189      1.0  0.09315  0.57388  0.20421  1.0000
  H   H1509     1.0  0.02529  0.52060  0.39390  1.0000
  H   H1510     1.0  0.39119  0.51956  0.39259  1.0000
  N   N51       1.0  0.04804  0.56660  0.34573  1.0000
  H   H1511     1.0  0.02477  0.39135  0.30879  1.0000
  H   H1512     1.0  0.45609  0.54245  0.24941  1.0000
  S   S190      1.0  0.24342  0.57277  0.41931  1.0000
  C   C869      1.0  0.05042  0.39919  0.22910  1.0000
  H   H1513     1.0  0.40307  0.41413  0.15392  1.0000
  H   H1514     1.0  0.46646  0.52402  0.28220  1.0000
  C   C870      1.0  0.07052  0.54887  0.19497  1.0000
  H   H1515     1.0  0.20647  0.53339  0.44545  1.0000
  C   C871      1.0  0.31481  0.40260  0.02373  1.0000
  H   H1516     1.0  0.21141  0.53835  0.29684  1.0000
  H   H1517     1.0  0.17046  0.55440  0.32402  1.0000
  C   C872      1.0  0.07865  0.57763  0.13199  1.0000
  H   H1518     1.0  0.17359  0.55980  0.36146  1.0000
  H   H1519     1.0  0.15582  0.41609  0.11139  1.0000
  H   H1520     1.0  0.32937  0.50507  0.46838  1.0000
  S   S191      1.0  0.14508  0.38592  0.33932  1.0000
  H   H1521     1.0  0.35905  0.53628  0.41184  1.0000
  H   H1522     1.0  0.12202  0.56675  0.08539  1.0000
  H   H1523     1.0  0.09557  0.52507  0.45501  1.0000
  H   H1524     1.0  0.39363  0.55179  0.40569  1.0000
  H   H1525     1.0  0.06497  0.39045  0.23428  1.0000
  H   H1526     1.0  0.29283  0.48863  0.44399  1.0000
  H   H1527     1.0  0.21652  0.47364  0.97490  1.0000
  H   H1528     1.0  0.39694  0.57699  0.42378  1.0000
  S   S192      1.0  0.26761  0.57931  0.36196  1.0000
  C   C873      1.0  0.44759  0.53008  0.25857  1.0000
  H   H1529     1.0  0.11276  0.43120  0.05224  1.0000
  H   H1530     1.0  0.00765  0.40496  0.23181  1.0000
  C   C874      1.0  0.42773  0.54080  0.27067  1.0000
  C   C875      1.0  0.45940  0.52667  0.37428  1.0000
  C   C876      1.0  0.20949  0.55858  0.31810  1.0000
  H   H1531     1.0  0.14720  0.41267  0.15070  1.0000
  H   H1532     1.0  0.19038  0.39776  0.04928  1.0000
  H   H1533     1.0  0.45036  0.50551  0.28454  1.0000
  H   H1534     1.0  0.45591  0.48336  0.26151  1.0000
  H   H1535     1.0  0.45661  0.39343  0.20249  1.0000
  H   H1536     1.0  0.44317  0.52206  0.24785  1.0000
  H   H1537     1.0  0.46862  0.49467  0.23730  1.0000
  H   H1538     1.0  0.09072  0.44969  0.04500  1.0000
  C   C877      1.0  0.16795  0.58263  0.44784  1.0000
  H   H1539     1.0  0.32760  0.48589  0.45407  1.0000
  H   H1540     1.0  0.16365  0.46179  0.41930  1.0000
  C   C878      1.0  0.26811  0.40656  0.99896  1.0000
  H   H1541     1.0  0.09580  0.57587  0.12772  1.0000
  C   C879      1.0  0.14248  0.52686  0.33442  1.0000
  H   H1542     1.0  0.13878  0.56687  0.39842  1.0000
  C   C880      1.0  0.05509  0.57836  0.35900  1.0000
  H   H1543     1.0  0.15636  0.53906  0.26029  1.0000
  C   C881      1.0  0.06554  0.55762  0.33030  1.0000
  C   C882      1.0  0.03722  0.54942  0.35873  1.0000
  H   H1544     1.0  0.08052  0.41125  0.26131  1.0000
  H   H1545     1.0  0.18194  0.39211  0.08822  1.0000
  C   C883      1.0  0.07738  0.57078  0.36392  1.0000
  H   H1546     1.0  0.08465  0.41453  0.04694  1.0000
  H   H1547     1.0  0.16335  0.44178  0.21785  1.0000
  C   C884      1.0  0.05066  0.53086  0.37045  1.0000
  H   H1548     1.0  0.00782  0.58124  0.06303  1.0000
  C   C885      1.0  0.06303  0.39106  0.28500  1.0000
  H   H1549     1.0  0.18739  0.43681  0.24217  1.0000
  H   H1550     1.0  0.05995  0.54749  0.32246  1.0000
  H   H1551     1.0  0.07798  0.54727  0.33792  1.0000
  H   H1552     1.0  0.22350  0.53558  0.42081  1.0000
  C   C886      1.0  0.25013  0.49751  0.44743  1.0000
  H   H1553     1.0  0.10071  0.54896  0.45935  1.0000
  H   H1554     1.0  0.05845  0.55396  0.20692  1.0000
  C   C887      1.0  0.47588  0.56936  0.27094  1.0000
  C   C888      1.0  0.39225  0.38869  0.17640  1.0000
  H   H1555     1.0  0.41039  0.41119  0.17871  1.0000
  C   C889      1.0  0.26398  0.57139  0.43228  1.0000
  H   H1556     1.0  0.38217  0.53141  0.43614  1.0000
  C   C890      1.0  0.02055  0.57637  0.09148  1.0000
  H   H1557     1.0  0.05238  0.53022  0.18659  1.0000
  H   H1558     1.0  0.06367  0.52329  0.35987  1.0000
  H   H1559     1.0  0.05667  0.53594  0.38222  1.0000
  C   C891      1.0  0.09323  0.39075  0.00781  1.0000
  C   C892      1.0  0.17994  0.39105  0.18455  1.0000
  C   C893      1.0  0.27585  0.57883  0.46119  1.0000
  C   C894      1.0  0.17263  0.53699  0.04074  1.0000
  H   H1560     1.0  0.00926  0.52922  0.16046  1.0000
  C   C895      1.0  0.12820  0.52511  0.45435  1.0000
  H   H1561     1.0  0.48622  0.43829  0.23702  1.0000
  H   H1562     1.0  0.26289  0.53615  0.46520  1.0000
  N   N52       1.0  0.18864  0.44809  0.17828  1.0000
  C   C896      1.0  0.17844  0.42978  0.17943  1.0000
  C   C897      1.0  0.17562  0.46783  0.16903  1.0000
  C   C898      1.0  0.20951  0.44494  0.16430  1.0000
  C   C899      1.0  0.19255  0.44954  0.19904  1.0000
  C   C900      1.0  0.17326  0.45354  0.21574  1.0000
  C   C901      1.0  0.16762  0.56948  0.46702  1.0000
  C   C902      1.0  0.22012  0.46431  0.15619  1.0000
  C   C903      1.0  0.15169  0.46925  0.17375  1.0000
  C   C904      1.0  0.14074  0.49121  0.16668  1.0000
  C   C905      1.0  0.17947  0.45266  0.23644  1.0000
  C   C906      1.0  0.24256  0.45828  0.14575  1.0000
  H   H1563     1.0  0.17542  0.42958  0.16394  1.0000
  H   H1564     1.0  0.16297  0.43113  0.18947  1.0000
  H   H1565     1.0  0.17946  0.48153  0.17328  1.0000
  H   H1566     1.0  0.17935  0.47011  0.15191  1.0000
  H   H1567     1.0  0.20822  0.43912  0.15052  1.0000
  H   H1568     1.0  0.22072  0.43277  0.17218  1.0000
  H   H1569     1.0  0.20284  0.43526  0.20521  1.0000
  H   H1570     1.0  0.20116  0.46229  0.19766  1.0000
  C   C907      1.0  0.47430  0.38876  0.13251  1.0000
  H   H1571     1.0  0.16425  0.46924  0.21156  1.0000
  H   H1572     1.0  0.02124  0.38610  0.18407  1.0000
  H   H1573     1.0  0.05501  0.56428  0.12452  1.0000
  H   H1574     1.0  0.22025  0.47255  0.16870  1.0000
  H   H1575     1.0  0.21196  0.47543  0.14455  1.0000
  H   H1576     1.0  0.14723  0.45888  0.16525  1.0000
  H   H1577     1.0  0.14557  0.46463  0.19028  1.0000
  H   H1578     1.0  0.14672  0.49675  0.15019  1.0000
  H   H1579     1.0  0.12390  0.49135  0.16842  1.0000
  H   H1580     1.0  0.14299  0.50197  0.17608  1.0000
  H   H1581     1.0  0.38105  0.52022  0.47359  1.0000
  C   C908      1.0  0.47636  0.45375  0.23799  1.0000
  H   H1582     1.0  0.05140  0.40474  0.28892  1.0000
  H   H1583     1.0  0.24948  0.47243  0.13932  1.0000
  H   H1584     1.0  0.25190  0.44813  0.15700  1.0000
  H   H1585     1.0  0.24328  0.45002  0.13296  1.0000
  H   H1586     1.0  0.13441  0.49595  0.34311  1.0000
  H   H1587     1.0  0.45837  0.39431  0.14030  1.0000
  H   H1588     1.0  0.41785  0.52935  0.27935  1.0000
  H   H1589     1.0  0.02804  0.56064  0.08831  1.0000
  H   H1590     1.0  0.14357  0.49772  0.42545  1.0000
  H   H1591     1.0  0.12342  0.40462  0.14975  1.0000
  C   C909      1.0  0.35546  0.55731  0.33821  1.0000
  C   C910      1.0  0.14568  0.40530  0.12104  1.0000
  C   C911      1.0  0.13559  0.41357  0.14091  1.0000
  H   H1592     1.0  0.34508  0.38718  0.01202  1.0000
  H   H1593     1.0  0.48408  0.52372  0.23556  1.0000
  C   C912      1.0  0.47136  0.48659  0.25295  1.0000
  H   H1594     1.0  0.01384  0.53639  0.25259  1.0000
  H   H1595     1.0  0.04673  0.57764  0.05367  1.0000
  H   H1596     1.0  0.13982  0.55633  0.28528  1.0000
  H   H1597     1.0  0.17155  0.57409  0.26690  1.0000
  H   H1598     1.0  0.05789  0.38463  0.27356  1.0000
  H   H1599     1.0  0.39133  0.54930  0.44701  1.0000
  H   H1600     1.0  0.30957  0.57920  0.36393  1.0000
  H   H1601     1.0  0.16319  0.39374  0.19123  1.0000
  H   H1602     1.0  0.20205  0.55593  0.42565  1.0000
  H   H1603     1.0  0.12224  0.53134  0.42304  1.0000
  C   C913      1.0  0.09588  0.56368  0.30139  1.0000
  H   H1604     1.0  0.24878  0.51389  0.43933  1.0000
  H   H1605     1.0  0.13714  0.53057  0.46353  1.0000
  C   C914      1.0  0.46255  0.58027  0.25737  1.0000
  C   C915      1.0  0.36078  0.56118  0.43774  1.0000
  H   H1606     1.0  0.20655  0.40526  0.17911  1.0000
  C   C916      1.0  0.11180  0.57882  0.07724  1.0000
  H   H1607     1.0  0.06502  0.58073  0.30198  1.0000
  H   H1608     1.0  0.03422  0.53747  0.15394  1.0000
  S   S193      1.0  0.27065  0.39225  0.07550  1.0000
  H   H1609     1.0  0.09322  0.55155  0.29387  1.0000
  H   H1610     1.0  0.23968  0.46086  0.46851  1.0000
  C   C917      1.0  0.24264  0.48621  0.41653  1.0000
  Fe  Fe98      1.0  0.03486  0.57420  0.26530  1.0000
  C   C918      1.0  0.21434  0.45914  0.98601  1.0000
  C   C919      1.0  0.03709  0.38403  0.22732  1.0000
  N   N53       1.0  0.47933  0.50053  0.26317  1.0000
  H   H1611     1.0  0.22858  0.48025  0.42552  1.0000
  H   H1612     1.0  0.34302  0.40918  0.23686  1.0000
  S   S194      1.0  0.31371  0.56082  0.47224  1.0000
  S   S195      1.0  0.06763  0.57878  0.25946  1.0000
  C   C920      1.0  0.15874  0.38325  0.12557  1.0000
  C   C921      1.0  0.37418  0.39269  0.22707  1.0000
  H   H1613     1.0  0.35527  0.52611  0.46753  1.0000
  H   H1614     1.0  0.23392  0.49546  0.45438  1.0000
  H   H1615     1.0  0.07011  0.57809  0.39495  1.0000
  C   C922      1.0  0.16042  0.57829  0.28066  1.0000
  C   C923      1.0  0.47878  0.47701  0.29901  1.0000
  H   H1616     1.0  0.18170  0.39054  0.16792  1.0000
  H   H1617     1.0  0.03989  0.57324  0.15990  1.0000
  H   H1618     1.0  0.04405  0.57878  0.37384  1.0000
  S   S196      1.0  0.48023  0.38868  0.23475  1.0000
  H   H1619     1.0  0.07851  0.38580  0.13006  1.0000
  C   C924      1.0  0.08095  0.58160  0.38027  1.0000
  C   C925      1.0  0.16919  0.38395  0.08805  1.0000
  H   H1620     1.0  0.03160  0.57654  0.18645  1.0000
  H   H1621     1.0  0.99928  0.39282  0.35492  1.0000
  C   C926      1.0  0.08328  0.39871  0.27462  1.0000
  C   C927      1.0  0.33128  0.38299  0.02309  1.0000
  H   H1622     1.0  0.09706  0.57623  0.38323  1.0000
  S   S197      1.0  0.43433  0.57807  0.34745  1.0000
  H   H1623     1.0  0.07008  0.38289  0.31553  1.0000
  H   H1624     1.0  0.48704  0.38346  0.34806  1.0000
  C   C928      1.0  0.26658  0.47148  0.47424  1.0000
  C   C929      1.0  0.32943  0.41754  0.69871  1.0000
  Fe  Fe99      1.0  0.14509  0.56658  0.54509  1.0000
  S   S198      1.0  0.16909  0.53930  0.53686  1.0000
  H   H1625     1.0  0.36027  0.41670  0.81056  1.0000
  C   C930      1.0  0.25063  0.41124  0.92229  1.0000
  S   S199      1.0  0.20367  0.57020  0.52719  1.0000
  H   H1626     1.0  0.40294  0.44431  0.61348  1.0000
  Fe  Fe100     1.0  0.18190  0.56216  0.51041  1.0000
  H   H1627     1.0  0.32574  0.42130  0.88732  1.0000
  Fe  Fe101     1.0  0.18838  0.54998  0.55461  1.0000
  S   S200      1.0  0.20413  0.52953  0.57999  1.0000
  H   H1628     1.0  0.41168  0.40441  0.51954  1.0000
  Fe  Fe102     1.0  0.34098  0.41354  0.58434  1.0000
  S   S201      1.0  0.30687  0.41507  0.59489  1.0000
  H   H1629     1.0  0.25344  0.43446  0.89342  1.0000
  Fe  Fe103     1.0  0.34016  0.45678  0.59381  1.0000
  S   S202      1.0  0.30577  0.46138  0.60517  1.0000
  S   S203      1.0  0.35809  0.48297  0.58984  1.0000
  Fe  Fe104     1.0  0.31182  0.42824  0.62087  1.0000
  S   S204      1.0  0.29939  0.41561  0.65358  1.0000
  Fe  Fe105     1.0  0.30408  0.44797  0.57803  1.0000
  S   S205      1.0  0.28185  0.46138  0.55571  1.0000
  S   S206      1.0  0.34634  0.42455  0.61160  1.0000
  S   S207      1.0  0.33820  0.44545  0.56534  1.0000
  C   C931      1.0  0.31905  0.53466  0.74443  1.0000
  S   S208      1.0  0.35542  0.44202  0.70342  1.0000
  H   H1630     1.0  0.16088  0.42007  0.78091  1.0000
  H   H1631     1.0  0.29254  0.42043  0.83539  1.0000
  H   H1632     1.0  0.36403  0.40805  0.90053  1.0000
  Fe  Fe106     1.0  0.39864  0.53624  0.66086  1.0000
  H   H1633     1.0  0.31953  0.43452  0.74873  1.0000
  S   S209      1.0  0.39617  0.50311  0.66069  1.0000
  C   C932      1.0  0.23928  0.54148  0.49122  1.0000
  H   H1634     1.0  0.44942  0.51154  0.59113  1.0000
  C   C933      1.0  0.14892  0.56432  0.47837  1.0000
  S   S210      1.0  0.39556  0.54719  0.69064  1.0000
  S   S211      1.0  0.42613  0.55170  0.64632  1.0000
  Fe  Fe107     1.0  0.28169  0.50521  0.83749  1.0000
  S   S212      1.0  0.30514  0.51481  0.85174  1.0000
  S   S213      1.0  0.25503  0.49008  0.85789  1.0000
  Fe  Fe108     1.0  0.30527  0.51609  0.79433  1.0000
  S   S214      1.0  0.33048  0.52602  0.80460  1.0000
  Fe  Fe109     1.0  0.32893  0.49812  0.82922  1.0000
  S   S215      1.0  0.35899  0.47959  0.83753  1.0000
  Fe  Fe110     1.0  0.30518  0.54241  0.82610  1.0000
  S   S216      1.0  0.30589  0.48644  0.81714  1.0000
  Fe  Fe111     1.0  0.16707  0.39271  0.88889  1.0000
  C   C934      1.0  0.25826  0.38606  0.86347  1.0000
  H   H1635     1.0  0.34229  0.38682  0.89676  1.0000
  Fe  Fe112     1.0  0.17768  0.41987  0.84756  1.0000
  S   S217      1.0  0.17749  0.39471  0.82999  1.0000
  S   S218      1.0  0.18909  0.44971  0.83047  1.0000
  H   H1636     1.0  0.47419  0.51108  0.67351  1.0000
  H   H1637     1.0  0.21125  0.43141  0.93878  1.0000
  H   H1638     1.0  0.31063  0.40653  0.76850  1.0000
  C   C935      1.0  0.24393  0.54346  0.86518  1.0000
  S   S219      1.0  0.14695  0.41516  0.86834  1.0000
  S   S220      1.0  0.19717  0.39922  0.86932  1.0000
  H   H1639     1.0  0.47116  0.47628  0.60376  1.0000
  N   N54       1.0  0.23483  0.40025  0.91821  1.0000
  H   H1640     1.0  0.21928  0.42675  0.89922  1.0000
  C   C936      1.0  0.43004  0.45065  0.64935  1.0000
  H   H1641     1.0  0.21891  0.43883  0.76697  1.0000
  H   H1642     1.0  0.43201  0.40474  0.65185  1.0000
  H   H1643     1.0  0.30237  0.39571  0.89404  1.0000
  C   C937      1.0  0.33988  0.54687  0.71174  1.0000
  H   H1644     1.0  0.40159  0.44078  0.66684  1.0000
  C   C938      1.0  0.37168  0.41117  0.88410  1.0000
  C   C939      1.0  0.23770  0.47813  0.84955  1.0000
  C   C940      1.0  0.23472  0.48215  0.82908  1.0000
  C   C941      1.0  0.21976  0.47346  0.82350  1.0000
  C   C942      1.0  0.20823  0.45992  0.83805  1.0000
  C   C943      1.0  0.21151  0.45561  0.85841  1.0000
  C   C944      1.0  0.22585  0.46497  0.86416  1.0000
  H   H1645     1.0  0.24345  0.49248  0.81770  1.0000
  H   H1646     1.0  0.21705  0.47735  0.80782  1.0000
  H   H1647     1.0  0.20239  0.44571  0.86986  1.0000
  H   H1648     1.0  0.22754  0.46229  0.88008  1.0000
  H   H1649     1.0  0.22436  0.53667  0.49926  1.0000
  H   H1650     1.0  0.46320  0.43332  0.61968  1.0000
  H   H1651     1.0  0.46374  0.48331  0.70114  1.0000
  N   N55       1.0  0.36693  0.39647  0.87231  1.0000
  H   H1652     1.0  0.26440  0.40715  0.87978  1.0000
  H   H1653     1.0  0.08586  0.38728  0.96930  1.0000
  C   C945      1.0  0.39823  0.44089  0.79037  1.0000
  C   C946      1.0  0.37825  0.45117  0.78763  1.0000
  C   C947      1.0  0.36619  0.46354  0.80177  1.0000
  C   C948      1.0  0.37410  0.46558  0.81867  1.0000
  C   C949      1.0  0.39432  0.45588  0.82093  1.0000
  C   C950      1.0  0.40636  0.44364  0.80680  1.0000
  H   H1654     1.0  0.37206  0.44963  0.77467  1.0000
  H   H1655     1.0  0.35070  0.47124  0.79973  1.0000
  H   H1656     1.0  0.40064  0.45767  0.83376  1.0000
  H   H1657     1.0  0.42186  0.43591  0.80885  1.0000
  C   C951      1.0  0.22024  0.44025  0.78269  1.0000
  H   H1658     1.0  0.34427  0.51794  0.67523  1.0000
  H   H1659     1.0  0.44747  0.42041  0.73240  1.0000
  H   H1660     1.0  0.99096  0.40377  0.82370  1.0000
  C   C952      1.0  0.36748  0.48883  0.61020  1.0000
  C   C953      1.0  0.36783  0.47530  0.62903  1.0000
  C   C954      1.0  0.37637  0.47995  0.64449  1.0000
  C   C955      1.0  0.38446  0.49825  0.64138  1.0000
  C   C956      1.0  0.38353  0.51207  0.62277  1.0000
  C   C957      1.0  0.37527  0.50729  0.60720  1.0000
  H   H1661     1.0  0.36163  0.46120  0.63161  1.0000
  H   H1662     1.0  0.37630  0.46952  0.65910  1.0000
  H   H1663     1.0  0.38964  0.52623  0.62016  1.0000
  H   H1664     1.0  0.37502  0.51794  0.59272  1.0000
  H   H1665     1.0  0.33266  0.51609  0.72099  1.0000
  C   C958      1.0  0.31279  0.42402  0.66886  1.0000
  C   C959      1.0  0.33781  0.43562  0.69117  1.0000
  C   C960      1.0  0.33284  0.44838  0.67303  1.0000
  C   C961      1.0  0.32072  0.44238  0.66164  1.0000
  H   H1666     1.0  0.33904  0.46253  0.66737  1.0000
  H   H1667     1.0  0.31764  0.45194  0.64721  1.0000
  C   C962      1.0  0.22833  0.38512  0.93740  1.0000
  C   C963      1.0  0.22629  0.51138  0.57278  1.0000
  C   C964      1.0  0.23274  0.50840  0.55236  1.0000
  C   C965      1.0  0.24989  0.49307  0.54727  1.0000
  C   C966      1.0  0.26078  0.48084  0.56250  1.0000
  C   C967      1.0  0.25461  0.48418  0.58280  1.0000
  C   C968      1.0  0.23737  0.49937  0.58793  1.0000
  H   H1668     1.0  0.22428  0.51764  0.54060  1.0000
  H   H1669     1.0  0.25464  0.49056  0.53155  1.0000
  H   H1670     1.0  0.26280  0.47473  0.59466  1.0000
  H   H1671     1.0  0.23244  0.50162  0.60374  1.0000
  C   C969      1.0  0.45084  0.45430  0.65309  1.0000
  C   C970      1.0  0.32307  0.55426  0.65581  1.0000
  H   H1672     1.0  0.46075  0.39527  0.50498  1.0000
  H   H1673     1.0  0.42007  0.51361  0.78058  1.0000
  H   H1674     1.0  0.44020  0.45915  0.69927  1.0000
  H   H1675     1.0  0.45192  0.50306  0.66861  1.0000
  H   H1676     1.0  0.44897  0.52678  0.67828  1.0000
  C   C971      1.0  0.48444  0.46523  0.64013  1.0000
  S   S221      1.0  0.27952  0.53451  0.81367  1.0000
  H   H1677     1.0  0.37648  0.40866  0.51266  1.0000
  H   H1678     1.0  0.23527  0.46986  0.49257  1.0000
  H   H1679     1.0  0.27044  0.45738  0.90458  1.0000
  H   H1680     1.0  0.26643  0.40182  0.91933  1.0000
  H   H1681     1.0  0.42832  0.42848  0.60950  1.0000
  H   H1682     1.0  0.41159  0.45705  0.67873  1.0000
  H   H1683     1.0  0.30603  0.53343  0.68024  1.0000
  C   C972      1.0  0.24395  0.38793  0.90112  1.0000
  C   C973      1.0  0.47523  0.43735  0.62644  1.0000
  H   H1684     1.0  0.41989  0.55211  0.87828  1.0000
  C   C974      1.0  0.14596  0.39505  0.77842  1.0000
  H   H1685     1.0  0.08163  0.54565  0.67467  1.0000
  N   N56       1.0  0.46733  0.45762  0.63424  1.0000
  C   C975      1.0  0.29221  0.40134  0.74840  1.0000
  C   C976      1.0  0.37154  0.55436  0.87170  1.0000
  C   C977      1.0  0.41412  0.38546  0.57424  1.0000
  H   H1686     1.0  0.45665  0.44064  0.66426  1.0000
  H   H1687     1.0  0.39810  0.57886  0.78729  1.0000
  C   C978      1.0  0.44577  0.55034  0.85369  1.0000
  C   C979      1.0  0.36140  0.54106  0.86239  1.0000
  H   H1688     1.0  0.46871  0.55690  0.72907  1.0000
  H   H1689     1.0  0.17988  0.48498  0.66071  1.0000
  H   H1690     1.0  0.44723  0.46762  0.66142  1.0000
  H   H1691     1.0  0.26848  0.57099  0.84190  1.0000
  H   H1692     1.0  0.37882  0.53255  0.53418  1.0000
  H   H1693     1.0  0.36586  0.39149  0.80359  1.0000
  C   C980      1.0  0.41600  0.44427  0.66975  1.0000
  H   H1694     1.0  0.24843  0.55360  0.53523  1.0000
  C   C981      1.0  0.41347  0.57788  0.85256  1.0000
  C   C982      1.0  0.37920  0.41665  0.52438  1.0000
  H   H1695     1.0  0.25020  0.53760  0.50223  1.0000
  H   H1696     1.0  0.38535  0.54446  0.87725  1.0000
  S   S222      1.0  0.16342  0.57587  0.56461  1.0000
  H   H1697     1.0  0.44608  0.49870  0.77985  1.0000
  C   C983      1.0  0.25205  0.50678  0.48008  1.0000
  H   H1698     1.0  0.36547  0.41684  0.53690  1.0000
  C   C984      1.0  0.28709  0.41596  0.96453  1.0000
  H   H1699     1.0  0.41526  0.54446  0.85575  1.0000
  H   H1700     1.0  0.25894  0.43864  0.50659  1.0000
  C   C985      1.0  0.08692  0.54424  0.65821  1.0000
  H   H1701     1.0  0.28386  0.38754  0.58091  1.0000
  H   H1702     1.0  0.13955  0.41503  0.80154  1.0000
  H   H1703     1.0  0.47902  0.39558  0.52103  1.0000
  H   H1704     1.0  0.37240  0.53466  0.84953  1.0000
  C   C986      1.0  0.42596  0.41866  0.57206  1.0000
  C   C987      1.0  0.32459  0.57028  0.73583  1.0000
  C   C988      1.0  0.14736  0.56387  0.62938  1.0000
  H   H1705     1.0  0.38302  0.56913  0.84065  1.0000
  H   H1706     1.0  0.28746  0.38482  0.55425  1.0000
  Fe  Fe113     1.0  0.42107  0.56526  0.67555  1.0000
  H   H1707     1.0  0.35603  0.44453  0.90571  1.0000
  H   H1708     1.0  0.26708  0.44342  0.93065  1.0000
  S   S223      1.0  0.30441  0.38924  0.93792  1.0000
  S   S224      1.0  0.46234  0.38549  0.62246  1.0000
  H   H1709     1.0  0.35448  0.39941  0.65592  1.0000
  H   H1710     1.0  0.10177  0.52643  0.47932  1.0000
  H   H1711     1.0  0.06471  0.55973  0.51282  1.0000
  H   H1712     1.0  0.11811  0.54670  0.65859  1.0000
  H   H1713     1.0  0.25583  0.42541  0.75964  1.0000
  H   H1714     1.0  0.19444  0.45604  0.91106  1.0000
  H   H1715     1.0  0.30757  0.39411  0.86695  1.0000
  H   H1716     1.0  0.36152  0.55659  0.52841  1.0000
  H   H1717     1.0  0.47805  0.42423  0.63934  1.0000
  C   C989      1.0  0.33634  0.56663  0.71674  1.0000
  C   C990      1.0  0.43690  0.38909  0.65913  1.0000
  H   H1718     1.0  0.31334  0.56827  0.61896  1.0000
  S   S225      1.0  0.19031  0.55934  0.47713  1.0000
  H   H1719     1.0  0.36335  0.53571  0.51459  1.0000
  C   C991      1.0  0.29973  0.57089  0.63148  1.0000
  H   H1720     1.0  0.48250  0.58128  0.74348  1.0000
  C   C992      1.0  0.18594  0.49959  0.65405  1.0000
  H   H1721     1.0  0.26367  0.42955  0.48231  1.0000
  H   H1722     1.0  0.40291  0.55282  0.76747  1.0000
  C   C993      1.0  0.31531  0.53335  0.66455  1.0000
  H   H1723     1.0  0.39606  0.41237  0.65421  1.0000
  H   H1724     1.0  0.30500  0.56554  0.86948  1.0000
  H   H1725     1.0  0.11307  0.52074  0.66474  1.0000
  Fe  Fe114     1.0  0.14846  0.38808  0.85249  1.0000
  C   C994      1.0  0.46638  0.40517  0.51307  1.0000
  S   S226      1.0  0.16529  0.38880  0.92315  1.0000
  H   H1726     1.0  0.48507  0.44789  0.67164  1.0000
  H   H1727     1.0  0.32029  0.41800  0.82787  1.0000
  C   C995      1.0  0.37612  0.57491  0.59414  1.0000
  C   C996      1.0  0.37002  0.40110  0.81302  1.0000
  C   C997      1.0  0.38063  0.41461  0.64992  1.0000
  H   H1728     1.0  0.47279  0.41766  0.50147  1.0000
  C   C998      1.0  0.09576  0.57410  0.57322  1.0000
  H   H1729     1.0  0.38864  0.40846  0.88417  1.0000
  H   H1730     1.0  0.03425  0.39520  0.83540  1.0000
  H   H1731     1.0  0.33291  0.40793  0.71291  1.0000
  H   H1732     1.0  0.12979  0.39234  0.78112  1.0000
  H   H1733     1.0  0.43262  0.43837  0.64009  1.0000
  C   C999      1.0  0.44867  0.41463  0.52853  1.0000
  H   H1734     1.0  0.43716  0.49418  0.63710  1.0000
  H   H1735     1.0  0.37748  0.43893  0.86175  1.0000
  H   H1736     1.0  0.33099  0.39426  0.54922  1.0000
  H   H1737     1.0  0.29006  0.39344  0.78150  1.0000
  H   H1738     1.0  0.28289  0.50573  0.62367  1.0000
  S   S227      1.0  0.44353  0.56228  0.69809  1.0000
  H   H1739     1.0  0.38091  0.43281  0.51713  1.0000
  H   H1740     1.0  0.44716  0.46763  0.61155  1.0000
  C   C1000     1.0  0.37096  0.40463  0.84942  1.0000
  C   C1001     1.0  0.31673  0.41182  0.68764  1.0000
  H   H1741     1.0  0.43077  0.52417  0.61009  1.0000
  H   H1742     1.0  0.06761  0.56752  0.56758  1.0000
  N   N57       1.0  0.28091  0.42667  0.77466  1.0000
  C   C1002     1.0  0.29042  0.39545  0.96156  1.0000
  C   C1003     1.0  0.28313  0.42903  0.79589  1.0000
  C   C1004     1.0  0.25856  0.42543  0.77529  1.0000
  C   C1005     1.0  0.28610  0.44522  0.75877  1.0000
  C   C1006     1.0  0.30893  0.44824  0.75389  1.0000
  C   C1007     1.0  0.30683  0.40420  0.87825  1.0000
  C   C1008     1.0  0.24203  0.44326  0.78330  1.0000
  C   C1009     1.0  0.30430  0.41952  0.80286  1.0000
  C   C1010     1.0  0.30524  0.42555  0.82312  1.0000
  C   C1011     1.0  0.31203  0.46672  0.73659  1.0000
  H   H1743     1.0  0.20539  0.40616  0.90798  1.0000
  H   H1744     1.0  0.27631  0.39923  0.74835  1.0000
  C   C1012     1.0  0.29397  0.40668  0.76913  1.0000
  H   H1745     1.0  0.07811  0.53372  0.65445  1.0000
  H   H1746     1.0  0.27934  0.44568  0.79749  1.0000
  H   H1747     1.0  0.21635  0.42621  0.79374  1.0000
  H   H1748     1.0  0.40177  0.41360  0.59968  1.0000
  C   C1013     1.0  0.36622  0.43472  0.87587  1.0000
  H   H1749     1.0  0.28140  0.44495  0.74401  1.0000
  H   H1750     1.0  0.27701  0.45976  0.76375  1.0000
  C   C1014     1.0  0.37672  0.57387  0.85591  1.0000
  H   H1751     1.0  0.31340  0.45160  0.76755  1.0000
  C   C1015     1.0  0.26954  0.44186  0.91424  1.0000
  H   H1752     1.0  0.23810  0.43204  0.49776  1.0000
  H   H1753     1.0  0.24423  0.45848  0.77370  1.0000
  H   H1754     1.0  0.24263  0.44384  0.79944  1.0000
  H   H1755     1.0  0.36579  0.57606  0.78018  1.0000
  H   H1756     1.0  0.31757  0.42428  0.79132  1.0000
  H   H1757     1.0  0.14856  0.55433  0.49327  1.0000
  C   C1016     1.0  0.27417  0.57379  0.70604  1.0000
  H   H1758     1.0  0.26047  0.50315  0.49330  1.0000
  H   H1759     1.0  0.30915  0.46375  0.72198  1.0000
  H   H1760     1.0  0.30156  0.48105  0.74060  1.0000
  H   H1761     1.0  0.32822  0.46928  0.73412  1.0000
  H   H1762     1.0  0.46085  0.50325  0.62494  1.0000
  H   H1763     1.0  0.30396  0.44256  0.82128  1.0000
  H   H1764     1.0  0.45270  0.38940  0.55347  1.0000
  C   C1017     1.0  0.36977  0.39646  0.66075  1.0000
  H   H1765     1.0  0.28450  0.43139  0.91038  1.0000
  H   H1766     1.0  0.25481  0.41058  0.78503  1.0000
  C   C1018     1.0  0.38634  0.55243  0.74338  1.0000
  H   H1767     1.0  0.43031  0.43281  0.56156  1.0000
  C   C1019     1.0  0.45876  0.47353  0.61731  1.0000
  H   H1768     1.0  0.17468  0.57677  0.61260  1.0000
  H   H1769     1.0  0.41581  0.39235  0.68759  1.0000
  H   H1770     1.0  0.28079  0.53242  0.52236  1.0000
  H   H1771     1.0  0.37620  0.56328  0.73346  1.0000
  C   C1020     1.0  0.34507  0.39238  0.87985  1.0000
  H   H1772     1.0  0.38239  0.41624  0.63303  1.0000
  H   H1773     1.0  0.11035  0.54650  0.62154  1.0000
  H   H1774     1.0  0.31059  0.39762  0.69321  1.0000
  H   H1775     1.0  0.43988  0.41113  0.57915  1.0000
  H   H1776     1.0  0.00237  0.42149  0.83280  1.0000
  H   H1777     1.0  0.20303  0.49567  0.64939  1.0000
  H   H1778     1.0  0.37139  0.42914  0.65465  1.0000
  C   C1021     1.0  0.33344  0.51530  0.66609  1.0000
  H   H1779     1.0  0.29249  0.55693  0.63430  1.0000
  H   H1780     1.0  0.08167  0.40691  0.79524  1.0000
  H   H1781     1.0  0.29696  0.52698  0.61759  1.0000
  C   C1022     1.0  0.39869  0.40502  0.53280  1.0000
  H   H1782     1.0  0.35671  0.52789  0.87429  1.0000
  H   H1783     1.0  0.29338  0.42756  0.95248  1.0000
  H   H1784     1.0  0.39837  0.38949  0.58317  1.0000
  H   H1785     1.0  0.22182  0.39339  0.95062  1.0000
  C   C1023     1.0  0.24694  0.46132  0.48165  1.0000
  H   H1786     1.0  0.16511  0.54561  0.60639  1.0000
  H   H1787     1.0  0.34901  0.54391  0.69709  1.0000
  S   S228      1.0  0.30747  0.51478  0.76104  1.0000
  H   H1788     1.0  0.18259  0.50956  0.66596  1.0000
  Fe  Fe115     1.0  0.36898  0.41612  0.72623  1.0000
  C   C1024     1.0  0.41591  0.43865  0.60163  1.0000
  H   H1789     1.0  0.18325  0.52505  0.62904  1.0000
  C   C1025     1.0  0.36637  0.39104  0.83563  1.0000
  H   H1790     1.0  0.30731  0.55697  0.76464  1.0000
  H   H1791     1.0  0.36434  0.46429  0.88479  1.0000
  C   C1026     1.0  0.07752  0.56859  0.50627  1.0000
  H   H1792     1.0  0.23720  0.44439  0.91496  1.0000
  C   C1027     1.0  0.21551  0.41476  0.91278  1.0000
  C   C1028     1.0  0.25233  0.43903  0.49273  1.0000
  N   N58       1.0  0.42559  0.48464  0.73000  1.0000
  C   C1029     1.0  0.43079  0.49763  0.70903  1.0000
  C   C1030     1.0  0.40255  0.48407  0.73556  1.0000
  C   C1031     1.0  0.43107  0.49483  0.74553  1.0000
  C   C1032     1.0  0.43805  0.46302  0.73133  1.0000
  C   C1033     1.0  0.43634  0.45066  0.71512  1.0000
  C   C1034     1.0  0.45405  0.49891  0.70111  1.0000
  C   C1035     1.0  0.42502  0.48497  0.76852  1.0000
  C   C1036     1.0  0.39067  0.48560  0.71780  1.0000
  C   C1037     1.0  0.36886  0.48090  0.72617  1.0000
  C   C1038     1.0  0.42935  0.49775  0.78279  1.0000
  H   H1793     1.0  0.42221  0.51373  0.70906  1.0000
  H   H1794     1.0  0.42551  0.49210  0.69702  1.0000
  H   H1795     1.0  0.39968  0.46985  0.74695  1.0000
  H   H1796     1.0  0.39411  0.49726  0.74339  1.0000
  H   H1797     1.0  0.42365  0.51149  0.74364  1.0000
  H   H1798     1.0  0.44804  0.49463  0.74287  1.0000
  H   H1799     1.0  0.45469  0.46315  0.73081  1.0000
  H   H1800     1.0  0.43325  0.45356  0.74651  1.0000
  H   H1801     1.0  0.35002  0.38874  0.83969  1.0000
  H   H1802     1.0  0.42041  0.44744  0.71773  1.0000
  H   H1803     1.0  0.45975  0.50729  0.71065  1.0000
  H   H1804     1.0  0.43412  0.46914  0.77186  1.0000
  H   H1805     1.0  0.40833  0.48391  0.77272  1.0000
  H   H1806     1.0  0.38913  0.50157  0.70874  1.0000
  H   H1807     1.0  0.39854  0.47477  0.70719  1.0000
  H   H1808     1.0  0.36025  0.49111  0.73730  1.0000
  H   H1809     1.0  0.36029  0.48351  0.71322  1.0000
  H   H1810     1.0  0.36956  0.46447  0.73390  1.0000
  C   C1039     1.0  0.14884  0.54869  0.61464  1.0000
  H   H1811     1.0  0.42498  0.49025  0.79905  1.0000
  C   C1040     1.0  0.01978  0.38993  0.83508  1.0000
  H   H1812     1.0  0.41586  0.57849  0.83569  1.0000
  Fe  Fe116     1.0  0.37428  0.57478  0.67772  1.0000
  S   S229      1.0  0.41344  0.42436  0.77374  1.0000
  H   H1813     1.0  0.24801  0.41246  0.93888  1.0000
  H   H1814     1.0  0.08338  0.55985  0.64874  1.0000
  C   C1041     1.0  0.25157  0.43358  0.91019  1.0000
  C   C1042     1.0  0.36763  0.44755  0.89150  1.0000
  N   N59       1.0  0.42082  0.40443  0.56013  1.0000
  C   C1043     1.0  0.37333  0.53820  0.75930  1.0000
  C   C1044     1.0  0.44884  0.49521  0.62281  1.0000
  H   H1815     1.0  0.28014  0.56081  0.66978  1.0000
  H   H1816     1.0  0.29430  0.55406  0.51658  1.0000
  H   H1817     1.0  0.36563  0.53006  0.75120  1.0000
  H   H1818     1.0  0.38319  0.52632  0.76892  1.0000
  H   H1819     1.0  0.36097  0.54705  0.76936  1.0000
  S   S230      1.0  0.11119  0.56427  0.55175  1.0000
  Fe  Fe117     1.0  0.39587  0.40875  0.75846  1.0000
  H   H1820     1.0  0.10711  0.40483  0.81779  1.0000
  H   H1821     1.0  0.33044  0.42023  0.86022  1.0000
  H   H1822     1.0  0.36426  0.54420  0.47834  1.0000
  H   H1823     1.0  0.23645  0.50280  0.48667  1.0000
  N   N60       1.0  0.14109  0.52869  0.62399  1.0000
  C   C1045     1.0  0.15234  0.51639  0.64107  1.0000
  C   C1046     1.0  0.11788  0.53277  0.63157  1.0000
  C   C1047     1.0  0.14533  0.51568  0.60734  1.0000
  H   H1824     1.0  0.32634  0.48349  0.50350  1.0000
  C   C1048     1.0  0.29320  0.57510  0.68908  1.0000
  C   C1049     1.0  0.17631  0.51091  0.63526  1.0000
  C   C1050     1.0  0.13357  0.52458  0.58901  1.0000
  H   H1825     1.0  0.45505  0.42475  0.53568  1.0000
  H   H1826     1.0  0.29660  0.41369  0.73539  1.0000
  H   H1827     1.0  0.27373  0.46965  0.48809  1.0000
  H   H1828     1.0  0.36555  0.57539  0.92324  1.0000
  C   C1051     1.0  0.13657  0.50867  0.57501  1.0000
  H   H1829     1.0  0.14637  0.50160  0.64731  1.0000
  H   H1830     1.0  0.38019  0.56307  0.60685  1.0000
  H   H1831     1.0  0.45167  0.53373  0.85911  1.0000
  H   H1832     1.0  0.11080  0.51962  0.63026  1.0000
  H   H1833     1.0  0.14169  0.49993  0.61412  1.0000
  H   H1834     1.0  0.16204  0.51339  0.60024  1.0000
  H   H1835     1.0  0.14915  0.52462  0.65428  1.0000
  H   H1836     1.0  0.24777  0.57039  0.82995  1.0000
  H   H1837     1.0  0.06853  0.39057  0.88542  1.0000
  H   H1838     1.0  0.27625  0.52895  0.59114  1.0000
  H   H1839     1.0  0.18101  0.50054  0.62368  1.0000
  H   H1840     1.0  0.42164  0.46492  0.64098  1.0000
  H   H1841     1.0  0.13965  0.53837  0.57959  1.0000
  H   H1842     1.0  0.11667  0.52916  0.59408  1.0000
  H   H1843     1.0  0.30641  0.40237  0.80554  1.0000
  H   H1844     1.0  0.35334  0.55956  0.58847  1.0000
  H   H1845     1.0  0.45389  0.55979  0.85989  1.0000
  C   C1052     1.0  0.25103  0.40024  0.87952  1.0000
  H   H1846     1.0  0.30062  0.48603  0.51867  1.0000
  H   H1847     1.0  0.36192  0.42032  0.84535  1.0000
  H   H1848     1.0  0.42377  0.43019  0.67900  1.0000
  H   H1849     1.0  0.41486  0.56258  0.74249  1.0000
  H   H1850     1.0  0.27171  0.42131  0.80797  1.0000
  H   H1851     1.0  0.43669  0.42438  0.51990  1.0000
  H   H1852     1.0  0.35056  0.43948  0.87192  1.0000
  H   H1853     1.0  0.15331  0.50350  0.56937  1.0000
  H   H1854     1.0  0.12950  0.49504  0.58336  1.0000
  H   H1855     1.0  0.12891  0.51580  0.56150  1.0000
  C   C1053     1.0  0.07443  0.57388  0.57742  1.0000
  C   C1054     1.0  0.20178  0.42579  0.93024  1.0000
  C   C1055     1.0  0.18625  0.44412  0.92174  1.0000
  C   C1056     1.0  0.45108  0.42983  0.71684  1.0000
  H   H1856     1.0  0.19273  0.41482  0.94136  1.0000
  Fe  Fe118     1.0  0.40179  0.57858  0.63592  1.0000
  S   S231      1.0  0.40336  0.41023  0.72432  1.0000
  H   H1857     1.0  0.29487  0.41819  0.87538  1.0000
  H   H1858     1.0  0.17616  0.45128  0.93460  1.0000
  H   H1859     1.0  0.31033  0.50142  0.61376  1.0000
  H   H1860     1.0  0.17630  0.43883  0.91341  1.0000
  H   H1861     1.0  0.30551  0.56223  0.69376  1.0000
  C   C1057     1.0  0.32754  0.41107  0.87588  1.0000
  H   H1862     1.0  0.44925  0.42107  0.70533  1.0000
  C   C1058     1.0  0.14522  0.41579  0.78475  1.0000
  C   C1059     1.0  0.11019  0.53585  0.65426  1.0000
  C   C1060     1.0  0.45745  0.51063  0.67900  1.0000
  H   H1863     1.0  0.44947  0.55358  0.83661  1.0000
  H   H1864     1.0  0.26095  0.57534  0.53340  1.0000
  H   H1865     1.0  0.23852  0.41256  0.87414  1.0000
  C   C1061     1.0  0.00574  0.40826  0.82445  1.0000
  C   C1062     1.0  0.31633  0.55417  0.74988  1.0000
  H   H1866     1.0  0.25932  0.56698  0.51041  1.0000
  H   H1867     1.0  0.34191  0.51332  0.65044  1.0000
  S   S232      1.0  0.36160  0.41727  0.75983  1.0000
  H   H1868     1.0  0.00159  0.39471  0.86499  1.0000
  C   C1063     1.0  0.08521  0.39289  0.80617  1.0000
  C   C1064     1.0  0.33070  0.53109  0.72530  1.0000
  H   H1869     1.0  0.38341  0.44389  0.89542  1.0000
  H   H1870     1.0  0.30561  0.53007  0.65470  1.0000
  H   H1871     1.0  0.20877  0.45385  0.78708  1.0000
  S   S233      1.0  0.37481  0.56234  0.64948  1.0000
  H   H1872     1.0  0.09212  0.55877  0.51041  1.0000
  C   C1065     1.0  0.40327  0.41586  0.54907  1.0000
  H   H1873     1.0  0.13458  0.42813  0.77641  1.0000
  H   H1874     1.0  0.46743  0.43211  0.71394  1.0000
  C   C1066     1.0  0.40819  0.42654  0.58894  1.0000
  H   H1875     1.0  0.33511  0.55191  0.64194  1.0000
  H   H1876     1.0  0.32763  0.50074  0.67369  1.0000
  C   C1067     1.0  0.46520  0.57336  0.72341  1.0000
  H   H1877     1.0  0.15482  0.55630  0.64285  1.0000
  H   H1878     1.0  0.32265  0.47182  0.53020  1.0000
  H   H1879     1.0  0.40598  0.43168  0.54138  1.0000
  H   H1880     1.0  0.38861  0.41840  0.56037  1.0000
  H   H1881     1.0  0.43701  0.38554  0.53738  1.0000
  H   H1882     1.0  0.36048  0.55901  0.88536  1.0000
  H   H1883     1.0  0.47820  0.47972  0.64651  1.0000
  H   H1884     1.0  0.39538  0.43703  0.58189  1.0000
  H   H1885     1.0  0.42575  0.50166  0.60288  1.0000
  C   C1068     1.0  0.25165  0.57701  0.84203  1.0000
  H   H1886     1.0  0.36732  0.39645  0.67751  1.0000
  H   H1887     1.0  0.26173  0.38967  0.56905  1.0000
  H   H1888     1.0  0.13990  0.55747  0.60259  1.0000
  H   H1889     1.0  0.42192  0.45228  0.59166  1.0000
  C   C1069     1.0  0.43986  0.39742  0.54517  1.0000
  H   H1890     1.0  0.01364  0.41328  0.80848  1.0000
  H   H1891     1.0  0.26070  0.53722  0.86475  1.0000
  H   H1892     1.0  0.07876  0.57217  0.48926  1.0000
  N   N61       1.0  0.30762  0.52852  0.55275  1.0000
  C   C1070     1.0  0.32448  0.54028  0.54075  1.0000
  C   C1071     1.0  0.28672  0.54127  0.54966  1.0000
  C   C1072     1.0  0.30877  0.52604  0.57529  1.0000
  C   C1073     1.0  0.31012  0.50740  0.54707  1.0000
  C   C1074     1.0  0.32013  0.50538  0.52438  1.0000
  C   C1075     1.0  0.34645  0.53108  0.54603  1.0000
  C   C1076     1.0  0.29083  0.51740  0.59096  1.0000
  C   C1077     1.0  0.28212  0.54663  0.52751  1.0000
  C   C1078     1.0  0.26145  0.56152  0.52664  1.0000
  C   C1079     1.0  0.31722  0.48543  0.51893  1.0000
  C   C1080     1.0  0.36352  0.53956  0.52969  1.0000
  C   C1081     1.0  0.29559  0.51260  0.61282  1.0000
  H   H1893     1.0  0.32056  0.55645  0.54352  1.0000
  H   H1894     1.0  0.32543  0.54211  0.52391  1.0000
  H   H1895     1.0  0.27404  0.53302  0.55867  1.0000
  H   H1896     1.0  0.28452  0.55605  0.55555  1.0000
  H   H1897     1.0  0.30960  0.54120  0.57910  1.0000
  H   H1898     1.0  0.32326  0.51542  0.57877  1.0000
  H   H1899     1.0  0.31987  0.49545  0.55686  1.0000
  H   H1900     1.0  0.29487  0.50225  0.55055  1.0000
  H   H1901     1.0  0.33704  0.50519  0.52200  1.0000
  H   H1902     1.0  0.31365  0.51833  0.51311  1.0000
  H   H1903     1.0  0.34760  0.53513  0.56083  1.0000
  H   H1904     1.0  0.34966  0.51395  0.54777  1.0000
  H   H1905     1.0  0.28819  0.50311  0.58699  1.0000
  H   H1906     1.0  0.15229  0.39675  0.76175  1.0000
  H   H1907     1.0  0.39150  0.56961  0.89238  1.0000
  H   H1908     1.0  0.38661  0.40222  0.80772  1.0000
  H   H1909     1.0  0.27827  0.57468  0.72089  1.0000
  H   H1910     1.0  0.23871  0.53854  0.85272  1.0000
  H   H1911     1.0  0.39728  0.54238  0.73326  1.0000
  C   C1082     1.0  0.43809  0.50891  0.60562  1.0000
  C   C1083     1.0  0.23978  0.56706  0.86284  1.0000
  H   H1912     1.0  0.38743  0.40672  0.84430  1.0000
  H   H1913     1.0  0.27524  0.58002  0.80358  1.0000
  H   H1914     1.0  0.22281  0.57231  0.86397  1.0000
  C   C1084     1.0  0.42240  0.55524  0.86125  1.0000
  H   H1915     1.0  0.33163  0.55685  0.66716  1.0000
  H   H1916     1.0  0.13088  0.57035  0.63462  1.0000
  H   H1917     1.0  0.34735  0.55028  0.85654  1.0000
  H   H1918     1.0  0.24480  0.57087  0.87598  1.0000
  H   H1919     1.0  0.03588  0.39134  0.87090  1.0000
  C   C1085     1.0  0.09981  0.39170  0.81883  1.0000
  H   H1920     1.0  0.23535  0.53660  0.88016  1.0000
  C   C1086     1.0  0.39949  0.56319  0.75290  1.0000
  H   H1921     1.0  0.26471  0.39496  0.84850  1.0000
  H   H1922     1.0  0.39632  0.38895  0.53945  1.0000
  C   C1087     1.0  0.31025  0.58025  0.86432  1.0000
  H   H1923     1.0  0.23638  0.55851  0.48591  1.0000
  H   H1924     1.0  0.26888  0.55882  0.70782  1.0000
  H   H1925     1.0  0.11647  0.56689  0.47884  1.0000
  C   C1088     1.0  0.45303  0.58060  0.70783  1.0000
  H   H1926     1.0  0.43298  0.57052  0.76398  1.0000
  C   C1089     1.0  0.36101  0.57286  0.58353  1.0000
  H   H1927     1.0  0.43172  0.58025  0.79797  1.0000
  H   H1928     1.0  0.29813  0.48792  0.48192  1.0000
  S   S234      1.0  0.36166  0.38402  0.57636  1.0000
  C   C1090     1.0  0.28830  0.57406  0.66792  1.0000
  N   N62       1.0  0.30669  0.57290  0.65066  1.0000
  S   S235      1.0  0.31057  0.57532  0.82440  1.0000
  H   H1929     1.0  0.27585  0.57232  0.60213  1.0000
  C   C1091     1.0  0.10443  0.58222  0.58610  1.0000
  C   C1092     1.0  0.06182  0.58184  0.59438  1.0000
  H   H1930     1.0  0.04533  0.58175  0.59748  1.0000
  H   H1931     1.0  0.34368  0.58234  0.62538  1.0000
  H   H1932     1.0  0.29237  0.51561  0.47566  1.0000
  C   C1093     1.0  0.15804  0.58220  0.61846  1.0000
  H   H1933     1.0  0.42728  0.38350  0.60191  1.0000
  Fe  Fe119     1.0  0.36244  0.38307  0.76417  1.0000
  H   H1934     1.0  0.35829  0.68640  0.34901  1.0000
  C   C1094     1.0  0.48331  0.73102  0.38725  1.0000
  C   C1095     1.0  0.47597  0.61780  0.38444  1.0000
  H   H1935     1.0  0.46796  0.62769  0.22805  1.0000
  Fe  Fe120     1.0  0.43943  0.63214  0.31512  1.0000
  S   S236      1.0  0.42387  0.62764  0.34810  1.0000
  S   S237      1.0  0.44434  0.66418  0.29943  1.0000
  Fe  Fe121     1.0  0.45054  0.60193  0.35295  1.0000
  S   S238      1.0  0.46963  0.59597  0.37812  1.0000
  Fe  Fe122     1.0  0.40880  0.60449  0.33951  1.0000
  C   C1096     1.0  0.22111  0.63851  0.38898  1.0000
  S   S239      1.0  0.46726  0.60794  0.32047  1.0000
  S   S240      1.0  0.42242  0.61117  0.30580  1.0000
  Fe  Fe123     1.0  0.02191  0.61138  0.23308  1.0000
  S   S241      1.0  0.05411  0.61928  0.22547  1.0000
  H   H1936     1.0  0.37565  0.59491  0.43361  1.0000
  Fe  Fe124     1.0  0.05435  0.61229  0.25962  1.0000
  S   S242      1.0  0.07404  0.62684  0.27434  1.0000
  H   H1937     1.0  0.42403  0.64890  0.23582  1.0000
  C   C1097     1.0  0.22814  0.67918  0.44810  1.0000
  H   H1938     1.0  0.32661  0.69759  0.34165  1.0000
  Fe  Fe125     1.0  0.10628  0.62130  0.41866  1.0000
  S   S243      1.0  0.12035  0.64761  0.42171  1.0000
  H   H1939     1.0  0.00371  0.63841  0.12710  1.0000
  Fe  Fe126     1.0  0.08390  0.64550  0.38407  1.0000
  S   S244      1.0  0.09563  0.67449  0.38420  1.0000
  S   S245      1.0  0.05964  0.64331  0.36596  1.0000
  Fe  Fe127     1.0  0.12604  0.65310  0.38720  1.0000
  S   S246      1.0  0.15490  0.66460  0.36936  1.0000
  Fe  Fe128     1.0  0.08919  0.66704  0.41879  1.0000
  S   S247      1.0  0.07213  0.69024  0.43945  1.0000
  S   S248      1.0  0.11496  0.62470  0.38425  1.0000
  S   S249      1.0  0.07452  0.64003  0.41850  1.0000
  S   S250      1.0  0.36516  0.63330  0.45361  1.0000
  Fe  Fe129     1.0  0.06842  0.69827  0.02172  1.0000
  S   S251      1.0  0.06605  0.69760  0.05554  1.0000
  Fe  Fe130     1.0  0.03773  0.66834  0.02939  1.0000
  S   S252      1.0  0.03305  0.66540  0.06362  1.0000
  S   S253      1.0  0.02166  0.65140  0.01382  1.0000
  Fe  Fe131     1.0  0.03196  0.69984  0.05704  1.0000
  S   S254      1.0  0.00514  0.72217  0.07065  1.0000
  Fe  Fe132     1.0  0.06758  0.66321  0.05856  1.0000
  S   S255      1.0  0.08727  0.63937  0.07879  1.0000
  S   S256      1.0  0.03418  0.70293  0.02303  1.0000
  S   S257      1.0  0.07249  0.66376  0.02462  1.0000
  H   H1940     1.0  0.14641  0.70503  0.41927  1.0000
  Fe  Fe133     1.0  0.35900  0.74134  0.33803  1.0000
  S   S258      1.0  0.37629  0.72593  0.36368  1.0000
  S   S259      1.0  0.35738  0.72244  0.31504  1.0000
  S   S260      1.0  0.33267  0.72565  0.41459  1.0000
  H   H1941     1.0  0.08057  0.76133  0.11272  1.0000
  C   C1098     1.0  0.09036  0.59049  0.05101  1.0000
  H   H1942     1.0  0.43050  0.71418  0.40078  1.0000
  H   H1943     1.0  0.15377  0.61258  0.31270  1.0000
  H   H1944     1.0  0.99569  0.72684  0.13251  1.0000
  H   H1945     1.0  0.40838  0.73408  0.40591  1.0000
  H   H1946     1.0  0.32891  0.66273  0.46577  1.0000
  H   H1947     1.0  0.47426  0.66448  0.26017  1.0000
  C   C1099     1.0  0.39353  0.67660  0.46570  1.0000
  H   H1948     1.0  0.99285  0.58819  0.21312  1.0000
  C   C1100     1.0  0.33849  0.67020  0.37477  1.0000
  H   H1949     1.0  0.08379  0.58734  0.03896  1.0000
  H   H1950     1.0  0.44616  0.58435  0.26312  1.0000
  C   C1101     1.0  0.03369  0.60538  0.16470  1.0000
  Fe  Fe134     1.0  0.44903  0.58636  0.31433  1.0000
  C   C1102     1.0  0.33601  0.60332  0.42309  1.0000
  C   C1103     1.0  0.34212  0.69991  0.42489  1.0000
  C   C1104     1.0  0.36005  0.68852  0.41502  1.0000
  C   C1105     1.0  0.36678  0.66776  0.42352  1.0000
  H   H1951     1.0  0.36871  0.69569  0.40093  1.0000
  H   H1952     1.0  0.38069  0.65900  0.41597  1.0000
  C   C1106     1.0  0.00978  0.74095  0.08265  1.0000
  C   C1107     1.0  0.02613  0.73694  0.09354  1.0000
  C   C1108     1.0  0.02853  0.75184  0.10420  1.0000
  H   H1953     1.0  0.22346  0.61906  0.41845  1.0000
  C   C1109     1.0  0.14357  0.59579  0.27313  1.0000
  H   H1954     1.0  0.20641  0.60283  0.44894  1.0000
  H   H1955     1.0  0.03652  0.72216  0.09423  1.0000
  H   H1956     1.0  0.04082  0.74855  0.11310  1.0000
  S   S261      1.0  0.22756  0.60353  0.32525  1.0000
  H   H1957     1.0  0.48658  0.61190  0.25573  1.0000
  C   C1110     1.0  0.29556  0.64060  0.34111  1.0000
  H   H1958     1.0  0.33139  0.60370  0.36623  1.0000
  C   C1111     1.0  0.10747  0.59893  0.08185  1.0000
  C   C1112     1.0  0.09408  0.61473  0.07145  1.0000
  C   C1113     1.0  0.08564  0.61045  0.05595  1.0000
  H   H1959     1.0  0.02847  0.61237  0.15003  1.0000
  H   H1960     1.0  0.99546  0.65620  0.05328  1.0000
  H   H1961     1.0  0.11429  0.60216  0.09368  1.0000
  H   H1962     1.0  0.07523  0.62241  0.04790  1.0000
  C   C1114     1.0  0.35567  0.65848  0.44194  1.0000
  C   C1115     1.0  0.43467  0.63984  0.43542  1.0000
  H   H1963     1.0  0.45034  0.73559  0.33150  1.0000
  H   H1964     1.0  0.30760  0.62643  0.34267  1.0000
  C   C1116     1.0  0.17135  0.67889  0.42408  1.0000
  H   H1965     1.0  0.22466  0.68529  0.46273  1.0000
  H   H1966     1.0  0.38185  0.67511  0.45690  1.0000
  C   C1117     1.0  0.47037  0.58513  0.23616  1.0000
  C   C1118     1.0  0.99385  0.62693  0.12780  1.0000
  H   H1967     1.0  0.09185  0.76299  0.07526  1.0000
  N   N63       1.0  0.48748  0.64322  0.23896  1.0000
  H   H1968     1.0  0.45977  0.70043  0.46502  1.0000
  C   C1119     1.0  0.06960  0.62923  0.30056  1.0000
  C   C1120     1.0  0.04964  0.63440  0.31152  1.0000
  C   C1121     1.0  0.04684  0.63823  0.33172  1.0000
  C   C1122     1.0  0.06394  0.63677  0.34119  1.0000
  C   C1123     1.0  0.08387  0.63069  0.33058  1.0000
  C   C1124     1.0  0.08667  0.62730  0.31022  1.0000
  H   H1969     1.0  0.03641  0.63626  0.30411  1.0000
  H   H1970     1.0  0.03135  0.64289  0.33986  1.0000
  H   H1971     1.0  0.09707  0.62914  0.33792  1.0000
  H   H1972     1.0  0.10211  0.62323  0.30180  1.0000
  H   H1973     1.0  0.16240  0.69813  0.39583  1.0000
  C   C1125     1.0  0.10548  0.70004  0.45157  1.0000
  C   C1126     1.0  0.08398  0.70323  0.45284  1.0000
  H   H1974     1.0  0.09658  0.59136  0.15509  1.0000
  H   H1975     1.0  0.29059  0.64406  0.37266  1.0000
  H   H1976     1.0  0.11533  0.68932  0.44223  1.0000
  H   H1977     1.0  0.28360  0.67010  0.42978  1.0000
  H   H1978     1.0  0.08821  0.61902  0.17733  1.0000
  C   C1127     1.0  0.20755  0.61980  0.33860  1.0000
  C   C1128     1.0  0.20601  0.64121  0.33236  1.0000
  C   C1129     1.0  0.19005  0.65469  0.34230  1.0000
  C   C1130     1.0  0.17502  0.64690  0.35808  1.0000
  C   C1131     1.0  0.17635  0.62545  0.36436  1.0000
  C   C1132     1.0  0.19277  0.61188  0.35473  1.0000
  H   H1979     1.0  0.21739  0.64738  0.31995  1.0000
  H   H1980     1.0  0.18931  0.67122  0.33760  1.0000
  H   H1981     1.0  0.16486  0.61934  0.37667  1.0000
  H   H1982     1.0  0.48657  0.62992  0.27133  1.0000
  H   H1983     1.0  0.41660  0.63698  0.26216  1.0000
  H   H1984     1.0  0.04463  0.60217  0.06181  1.0000
  N   N64       1.0  0.37683  0.75129  0.05270  1.0000
  C   C1133     1.0  0.99093  0.64429  0.04765  1.0000
  H   H1985     1.0  0.45715  0.72818  0.36393  1.0000
  H   H1986     1.0  0.47867  0.67665  0.23422  1.0000
  C   C1134     1.0  0.46222  0.63668  0.38348  1.0000
  C   C1135     1.0  0.46681  0.65344  0.39007  1.0000
  H   H1987     1.0  0.44771  0.63803  0.37841  1.0000
  H   H1988     1.0  0.45574  0.66772  0.39011  1.0000
  H   H1989     1.0  0.11858  0.74297  0.04185  1.0000
  C   C1136     1.0  0.30136  0.67376  0.38810  1.0000
  C   C1137     1.0  0.07856  0.77640  0.10205  1.0000
  H   H1990     1.0  0.45401  0.76914  0.30944  1.0000
  C   C1138     1.0  0.42030  0.68085  0.30215  1.0000
  C   C1139     1.0  0.41923  0.70143  0.30403  1.0000
  C   C1140     1.0  0.39989  0.71423  0.30815  1.0000
  C   C1141     1.0  0.38165  0.70679  0.30927  1.0000
  C   C1142     1.0  0.38279  0.68649  0.30649  1.0000
  C   C1143     1.0  0.40206  0.67337  0.30343  1.0000
  H   H1991     1.0  0.43329  0.70724  0.30304  1.0000
  H   H1992     1.0  0.39907  0.72991  0.31033  1.0000
  H   H1993     1.0  0.36873  0.68069  0.30735  1.0000
  H   H1994     1.0  0.40278  0.65750  0.30200  1.0000
  H   H1995     1.0  0.30835  0.62694  0.42361  1.0000
  H   H1996     1.0  0.14094  0.64277  0.45869  1.0000
  C   C1144     1.0  0.20379  0.61689  0.45600  1.0000
  H   H1997     1.0  0.43217  0.62134  0.24391  1.0000
  H   H1998     1.0  0.05452  0.59495  0.35165  1.0000
  H   H1999     1.0  0.17323  0.65206  0.41019  1.0000
  C   C1145     1.0  0.41938  0.64789  0.45390  1.0000
  H   H2000     1.0  0.14578  0.62062  0.33741  1.0000
  H   H2001     1.0  0.13549  0.59069  0.26285  1.0000
  C   C1146     1.0  0.21096  0.63004  0.41122  1.0000
  C   C1147     1.0  0.44960  0.77928  0.35089  1.0000
  C   C1148     1.0  0.21225  0.66587  0.44827  1.0000
  C   C1149     1.0  0.25220  0.77638  0.98884  1.0000
  H   H2002     1.0  0.00849  0.69300  0.99467  1.0000
  H   H2003     1.0  0.30320  0.65751  0.39644  1.0000
  N   N65       1.0  0.07022  0.61286  0.14465  1.0000
  C   C1150     1.0  0.06873  0.60090  0.12862  1.0000
  C   C1151     1.0  0.06554  0.63586  0.13654  1.0000
  C   C1152     1.0  0.09249  0.60789  0.14796  1.0000
  C   C1153     1.0  0.05646  0.60695  0.16502  1.0000
  C   C1154     1.0  0.09381  0.75633  0.97940  1.0000
  H   H2004     1.0  0.31892  0.70801  0.36448  1.0000
  C   C1155     1.0  0.09831  0.62052  0.16197  1.0000
  C   C1156     1.0  0.04504  0.64450  0.12821  1.0000
  C   C1157     1.0  0.04443  0.66694  0.11707  1.0000
  H   H2005     1.0  0.37940  0.66894  0.37644  1.0000
  H   H2006     1.0  0.28102  0.70624  0.36299  1.0000
  H   H2007     1.0  0.15788  0.69308  0.32913  1.0000
  H   H2008     1.0  0.07636  0.60797  0.11329  1.0000
  H   H2009     1.0  0.05260  0.60195  0.12679  1.0000
  H   H2010     1.0  0.06500  0.64486  0.14875  1.0000
  H   H2011     1.0  0.07836  0.64026  0.12386  1.0000
  H   H2012     1.0  0.10319  0.61001  0.13284  1.0000
  H   H2013     1.0  0.24142  0.62735  0.36250  1.0000
  H   H2014     1.0  0.43398  0.70655  0.36612  1.0000
  H   H2015     1.0  0.05544  0.61831  0.17516  1.0000
  C   C1158     1.0  0.08738  0.77795  0.03387  1.0000
  H   H2016     1.0  0.05472  0.71991  0.46606  1.0000
  C   C1159     1.0  0.45987  0.69334  0.34342  1.0000
  H   H2017     1.0  0.36824  0.76024  0.11435  1.0000
  H   H2018     1.0  0.45995  0.59301  0.22562  1.0000
  H   H2019     1.0  0.09701  0.63714  0.15490  1.0000
  H   H2020     1.0  0.04298  0.63551  0.11704  1.0000
  H   H2021     1.0  0.03177  0.64464  0.14119  1.0000
  H   H2022     1.0  0.14940  0.71299  0.30880  1.0000
  H   H2023     1.0  0.04556  0.67702  0.12769  1.0000
  H   H2024     1.0  0.05735  0.66806  0.10375  1.0000
  H   H2025     1.0  0.18165  0.64576  0.45500  1.0000
  N   N66       1.0  0.47336  0.70939  0.34096  1.0000
  H   H2026     1.0  0.99449  0.70836  0.97491  1.0000
  H   H2027     1.0  0.05327  0.78014  0.01575  1.0000
  H   H2028     1.0  0.23037  0.65041  0.38876  1.0000
  C   C1160     1.0  0.08041  0.74213  0.98820  1.0000
  H   H2029     1.0  0.12448  0.62198  0.17538  1.0000
  H   H2030     1.0  0.40503  0.71122  0.39805  1.0000
  H   H2031     1.0  0.40419  0.69401  0.03556  1.0000
  H   H2032     1.0  0.00329  0.61972  0.00650  1.0000
  C   C1161     1.0  0.38228  0.58705  0.42009  1.0000
  H   H2033     1.0  0.14767  0.64911  0.29507  1.0000
  H   H2034     1.0  0.35598  0.66135  0.34509  1.0000
  H   H2035     1.0  0.44934  0.61112  0.45258  1.0000
  C   C1162     1.0  0.12075  0.61289  0.16516  1.0000
  C   C1163     1.0  0.99921  0.77524  0.09178  1.0000
  H   H2036     1.0  0.48351  0.65758  0.19579  1.0000
  H   H2037     1.0  0.46743  0.70256  0.37441  1.0000
  H   H2038     1.0  0.39046  0.66281  0.35123  1.0000
  H   H2039     1.0  0.35305  0.59593  0.39375  1.0000
  N   N67       1.0  0.31737  0.67540  0.36862  1.0000
  C   C1164     1.0  0.47081  0.71571  0.36175  1.0000
  C   C1165     1.0  0.42925  0.63675  0.24854  1.0000
  H   H2040     1.0  0.19371  0.59535  0.35943  1.0000
  S   S262      1.0  0.10822  0.59119  0.44060  1.0000
  C   C1166     1.0  0.37276  0.74900  0.07588  1.0000
  H   H2041     1.0  0.28544  0.67737  0.38466  1.0000
  Fe  Fe135     1.0  0.38698  0.75630  0.35855  1.0000
  H   H2042     1.0  0.27831  0.73439  0.33277  1.0000
  H   H2043     1.0  0.07868  0.59864  0.37497  1.0000
  C   C1167     1.0  0.07702  0.77274  0.08091  1.0000
  H   H2044     1.0  0.24871  0.61458  0.38693  1.0000
  H   H2045     1.0  0.46648  0.76819  0.25023  1.0000
  H   H2046     1.0  0.39570  0.59719  0.38754  1.0000
  H   H2047     1.0  0.07582  0.75147  0.02883  1.0000
  C   C1168     1.0  0.31685  0.61507  0.41419  1.0000
  H   H2048     1.0  0.34570  0.76596  0.04801  1.0000
  C   C1169     1.0  0.31636  0.65978  0.35574  1.0000
  C   C1170     1.0  0.34875  0.58745  0.40960  1.0000
  N   N68       1.0  0.20035  0.64611  0.42451  1.0000
  C   C1171     1.0  0.44053  0.61623  0.43967  1.0000
  C   C1172     1.0  0.30185  0.68743  0.40374  1.0000
  H   H2049     1.0  0.39860  0.62127  0.42036  1.0000
  H   H2050     1.0  0.42926  0.71241  0.34024  1.0000
  C   C1173     1.0  0.11420  0.71097  0.46225  1.0000
  C   C1174     1.0  0.40443  0.61495  0.40591  1.0000
  H   H2051     1.0  0.29110  0.69714  0.33877  1.0000
  H   H2052     1.0  0.34526  0.61476  0.42419  1.0000
  H   H2053     1.0  0.34665  0.74784  0.11458  1.0000
  H   H2054     1.0  0.18154  0.68953  0.42500  1.0000
  H   H2055     1.0  0.16876  0.62798  0.32029  1.0000
  C   C1175     1.0  0.18422  0.66083  0.41340  1.0000
  H   H2056     1.0  0.46708  0.75561  0.28853  1.0000
  H   H2057     1.0  0.31597  0.68173  0.41069  1.0000
  H   H2058     1.0  0.20903  0.64542  0.37937  1.0000
  C   C1176     1.0  0.01458  0.70995  0.15470  1.0000
  H   H2059     1.0  0.40782  0.68838  0.35910  1.0000
  H   H2060     1.0  0.34437  0.72790  0.06833  1.0000
  H   H2061     1.0  0.17695  0.62813  0.44136  1.0000
  C   C1177     1.0  0.39368  0.73392  0.04588  1.0000
  H   H2062     1.0  0.36704  0.73443  0.08337  1.0000
  H   H2063     1.0  0.24302  0.76487  0.98776  1.0000
  H   H2064     1.0  0.08059  0.74827  0.05425  1.0000
  Fe  Fe136     1.0  0.34890  0.74059  0.38418  1.0000
  H   H2065     1.0  0.28033  0.63575  0.34310  1.0000
  H   H2066     1.0  0.21881  0.67039  0.41481  1.0000
  H   H2067     1.0  0.21919  0.62072  0.45540  1.0000
  C   C1178     1.0  0.29384  0.70613  0.34960  1.0000
  C   C1179     1.0  0.05916  0.74842  0.98838  1.0000
  H   H2068     1.0  0.22681  0.60867  0.37906  1.0000
  H   H2069     1.0  0.06372  0.59212  0.17368  1.0000
  C   C1180     1.0  0.18959  0.63489  0.44433  1.0000
  H   H2070     1.0  0.02966  0.67265  0.11111  1.0000
  H   H2071     1.0  0.45930  0.76593  0.35804  1.0000
  H   H2072     1.0  0.00699  0.60475  0.07197  1.0000
  C   C1181     1.0  0.38855  0.60394  0.40153  1.0000
  H   H2073     1.0  0.14377  0.68236  0.41055  1.0000
  S   S263      1.0  0.37436  0.60580  0.35230  1.0000
  H   H2074     1.0  0.01331  0.58312  0.16916  1.0000
  H   H2075     1.0  0.99060  0.61874  0.14392  1.0000
  H   H2076     1.0  0.05085  0.70515  0.31684  1.0000
  H   H2077     1.0  0.13084  0.70868  0.46094  1.0000
  H   H2078     1.0  0.13212  0.73571  0.33477  1.0000
  C   C1182     1.0  0.46586  0.72745  0.32516  1.0000
  H   H2079     1.0  0.33047  0.59535  0.43879  1.0000
  H   H2080     1.0  0.06423  0.76410  0.08308  1.0000
  H   H2081     1.0  0.01034  0.70232  0.12697  1.0000
  H   H2082     1.0  0.26862  0.69232  0.41572  1.0000
  H   H2083     1.0  0.00715  0.62066  0.32705  1.0000
  C   C1183     1.0  0.41368  0.71708  0.40723  1.0000
  H   H2084     1.0  0.19664  0.67531  0.45131  1.0000
  H   H2085     1.0  0.38760  0.74780  0.08133  1.0000
  H   H2086     1.0  0.02323  0.61419  0.17621  1.0000
  C   C1184     1.0  0.00069  0.71041  0.13935  1.0000
  H   H2087     1.0  0.30607  0.72951  0.32484  1.0000
  S   S264      1.0  0.02110  0.60751  0.26751  1.0000
  H   H2088     1.0  0.10497  0.63603  0.47127  1.0000
  H   H2089     1.0  0.39269  0.73198  0.03015  1.0000
  H   H2090     1.0  0.47001  0.74406  0.38673  1.0000
  H   H2091     1.0  0.22761  0.69252  0.43516  1.0000
  C   C1185     1.0  0.35717  0.76669  0.08513  1.0000
  H   H2092     1.0  0.37807  0.64420  0.37054  1.0000
  H   H2093     1.0  0.12701  0.70764  0.25258  1.0000
  H   H2094     1.0  0.28452  0.69592  0.43258  1.0000
  H   H2095     1.0  0.40741  0.62804  0.39318  1.0000
  H   H2096     1.0  0.45048  0.61080  0.42579  1.0000
  C   C1186     1.0  0.01534  0.77115  0.10296  1.0000
  H   H2097     1.0  0.35681  0.71984  0.04403  1.0000
  H   H2098     1.0  0.29889  0.64972  0.32538  1.0000
  C   C1187     1.0  0.41563  0.68283  0.43211  1.0000
  H   H2099     1.0  0.10642  0.72494  0.03444  1.0000
  C   C1188     1.0  0.40971  0.70674  0.42979  1.0000
  H   H2100     1.0  0.08727  0.70861  0.30605  1.0000
  H   H2101     1.0  0.40485  0.67767  0.42463  1.0000
  H   H2102     1.0  0.43106  0.67927  0.42242  1.0000
  H   H2103     1.0  0.04875  0.73756  0.99493  1.0000
  H   H2104     1.0  0.41063  0.68058  0.06008  1.0000
  H   H2105     1.0  0.15065  0.60928  0.26433  1.0000
  H   H2106     1.0  0.39294  0.71138  0.43574  1.0000
  H   H2107     1.0  0.41884  0.71298  0.43813  1.0000
  H   H2108     1.0  0.42729  0.64427  0.42149  1.0000
  C   C1189     1.0  0.35936  0.58806  0.34964  1.0000
  C   C1190     1.0  0.40970  0.69569  0.04940  1.0000
  C   C1191     1.0  0.31508  0.69704  0.35621  1.0000
  H   H2109     1.0  0.12129  0.68520  0.24578  1.0000
  H   H2110     1.0  0.39024  0.69311  0.46761  1.0000
  H   H2111     1.0  0.12453  0.64124  0.31117  1.0000
  H   H2112     1.0  0.44912  0.64623  0.43179  1.0000
  H   H2113     1.0  0.32142  0.62280  0.39809  1.0000
  H   H2114     1.0  0.11030  0.75146  0.97911  1.0000
  C   C1192     1.0  0.21639  0.65729  0.42780  1.0000
  C   C1193     1.0  0.15502  0.69183  0.41163  1.0000
  H   H2115     1.0  0.02807  0.75766  0.03706  1.0000
  H   H2116     1.0  0.37486  0.61581  0.39820  1.0000
  C   C1194     1.0  0.99894  0.60734  0.33341  1.0000
  C   C1195     1.0  0.43009  0.67675  0.46460  1.0000
  C   C1196     1.0  0.35718  0.67025  0.35672  1.0000
  C   C1197     1.0  0.23539  0.62119  0.37879  1.0000
  C   C1198     1.0  0.33096  0.69049  0.44316  1.0000
  C   C1199     1.0  0.35740  0.75216  0.04445  1.0000
  C   C1200     1.0  0.44877  0.64088  0.25401  1.0000
  C   C1201     1.0  0.02952  0.58317  0.17037  1.0000
  C   C1202     1.0  0.46928  0.76169  0.30178  1.0000
  C   C1203     1.0  0.33761  0.66978  0.45158  1.0000
  H   H2117     1.0  0.01904  0.60310  0.11996  1.0000
  H   H2118     1.0  0.04960  0.76864  0.05615  1.0000
  C   C1204     1.0  0.08642  0.75441  0.03802  1.0000
  H   H2119     1.0  0.46587  0.67892  0.35354  1.0000
  H   H2120     1.0  0.03928  0.59485  0.32460  1.0000
  H   H2121     1.0  0.03309  0.60113  0.04046  1.0000
  H   H2122     1.0  0.01473  0.59705  0.35932  1.0000
  S   S265      1.0  0.31110  0.61964  0.47001  1.0000
  H   H2123     1.0  0.32231  0.66525  0.33918  1.0000
  H   H2124     1.0  0.39658  0.77309  0.05223  1.0000
  S   S266      1.0  0.37203  0.77068  0.33093  1.0000
  H   H2125     1.0  0.16316  0.67327  0.43970  1.0000
  H   H2126     1.0  0.32741  0.74203  0.02782  1.0000
  H   H2127     1.0  0.19984  0.62033  0.41000  1.0000
  C   C1205     1.0  0.99080  0.59648  0.11218  1.0000
  H   H2128     1.0  0.31954  0.72208  0.04869  1.0000
  H   H2129     1.0  0.40049  0.71281  0.07423  1.0000
  H   H2130     1.0  0.42548  0.69968  0.04474  1.0000
  C   C1206     1.0  0.17245  0.78036  0.07116  1.0000
  H   H2131     1.0  0.27993  0.75265  0.99084  1.0000
  C   C1207     1.0  0.10777  0.74153  0.03210  1.0000
  C   C1208     1.0  0.00131  0.63908  0.02868  1.0000
  H   H2132     1.0  0.40926  0.73792  0.04461  1.0000
  C   C1209     1.0  0.48555  0.65177  0.39682  1.0000
  H   H2133     1.0  0.40478  0.64252  0.45391  1.0000
  H   H2134     1.0  0.43027  0.78073  0.40161  1.0000
  C   C1210     1.0  0.29496  0.65358  0.35733  1.0000
  C   C1211     1.0  0.00004  0.70862  0.98918  1.0000
  H   H2135     1.0  0.08043  0.70503  0.33360  1.0000
  H   H2136     1.0  0.15936  0.72705  0.33546  1.0000
  C   C1212     1.0  0.34700  0.73275  0.05139  1.0000
  H   H2137     1.0  0.34033  0.65480  0.38509  1.0000
  S   S267      1.0  0.33044  0.75345  0.35896  1.0000
  C   C1213     1.0  0.27023  0.76460  0.99960  1.0000
  H   H2138     1.0  0.44455  0.65600  0.25931  1.0000
  C   C1214     1.0  0.28346  0.68630  0.42148  1.0000
  C   C1215     1.0  0.07134  0.71711  0.46517  1.0000
  H   H2139     1.0  0.11424  0.74652  0.01567  1.0000
  H   H2140     1.0  0.14979  0.60013  0.42495  1.0000
  H   H2141     1.0  0.47919  0.77371  0.29605  1.0000
  C   C1216     1.0  0.37750  0.66095  0.36437  1.0000
  H   H2142     1.0  0.06468  0.68249  0.30639  1.0000
  H   H2143     1.0  0.45303  0.62862  0.26701  1.0000
  H   H2144     1.0  0.14555  0.68360  0.25388  1.0000
  H   H2145     1.0  0.23181  0.64691  0.42739  1.0000
  C   C1217     1.0  0.29327  0.72851  0.33832  1.0000
  H   H2146     1.0  0.42645  0.60900  0.44357  1.0000
  S   S268      1.0  0.99769  0.63051  0.21383  1.0000
  H   H2147     1.0  0.16825  0.58463  0.29020  1.0000
  H   H2148     1.0  0.19154  0.66849  0.39813  1.0000
  H   H2149     1.0  0.05727  0.68123  0.33396  1.0000
  H   H2150     1.0  0.37951  0.70736  0.06500  1.0000
  C   C1218     1.0  0.03648  0.59268  0.05573  1.0000
  H   H2151     1.0  0.42832  0.67374  0.34337  1.0000
  N   N69       1.0  0.41516  0.67099  0.45385  1.0000
  C   C1219     1.0  0.38442  0.77159  0.04395  1.0000
  C   C1220     1.0  0.32594  0.73665  0.04472  1.0000
  C   C1221     1.0  0.13097  0.58430  0.45100  1.0000
  H   H2152     1.0  0.46011  0.65860  0.45338  1.0000
  H   H2153     1.0  0.15558  0.58340  0.36491  1.0000
  H   H2154     1.0  0.07856  0.58637  0.31963  1.0000
  H   H2155     1.0  0.14057  0.71517  0.35502  1.0000
  H   H2156     1.0  0.41932  0.60410  0.40717  1.0000
  N   N70       1.0  0.12264  0.68265  0.31654  1.0000
  C   C1222     1.0  0.10085  0.67806  0.32236  1.0000
  C   C1223     1.0  0.13750  0.66307  0.32283  1.0000
  C   C1224     1.0  0.12411  0.69823  0.32914  1.0000
  C   C1225     1.0  0.12829  0.69138  0.29394  1.0000
  C   C1226     1.0  0.11867  0.68362  0.27861  1.0000
  C   C1227     1.0  0.08323  0.69719  0.32008  1.0000
  C   C1228     1.0  0.14517  0.70582  0.32516  1.0000
  C   C1229     1.0  0.13970  0.64503  0.31118  1.0000
  C   C1230     1.0  0.15280  0.62538  0.32106  1.0000
  C   C1231     1.0  0.12881  0.69049  0.25637  1.0000
  C   C1232     1.0  0.06282  0.69105  0.31923  1.0000
  C   C1233     1.0  0.14414  0.72195  0.33842  1.0000
  H   H2157     1.0  0.09792  0.67003  0.33868  1.0000
  H   H2158     1.0  0.09871  0.66699  0.31333  1.0000
  H   H2159     1.0  0.15348  0.66611  0.32062  1.0000
  H   H2160     1.0  0.13312  0.65716  0.33961  1.0000
  H   H2161     1.0  0.12037  0.69189  0.34587  1.0000
  H   H2162     1.0  0.11251  0.71256  0.32625  1.0000
  H   H2163     1.0  0.12353  0.70855  0.29112  1.0000
  H   H2164     1.0  0.14547  0.68855  0.28915  1.0000
  H   H2165     1.0  0.10188  0.69009  0.27994  1.0000
  H   H2166     1.0  0.12019  0.66659  0.28133  1.0000
  C   C1234     1.0  0.39474  0.71235  0.06011  1.0000
  H   H2167     1.0  0.13203  0.60083  0.28634  1.0000
  S   S269      1.0  0.42007  0.75512  0.36024  1.0000
  H   H2168     1.0  0.13155  0.61482  0.15021  1.0000
  H   H2169     1.0  0.46085  0.65513  0.22373  1.0000
  H   H2170     1.0  0.24512  0.58978  0.45421  1.0000
  H   H2171     1.0  0.02813  0.71731  0.14662  1.0000
  H   H2172     1.0  0.31488  0.74840  0.05282  1.0000
  H   H2173     1.0  0.26411  0.75676  0.01525  1.0000
  H   H2174     1.0  0.34035  0.68161  0.38369  1.0000
  H   H2175     1.0  0.02033  0.69373  0.16165  1.0000
  H   H2176     1.0  0.36073  0.75448  0.02737  1.0000
  H   H2177     1.0  0.30148  0.70391  0.39643  1.0000
  S   S270      1.0  0.09062  0.71673  0.99893  1.0000
  H   H2178     1.0  0.46341  0.72192  0.31161  1.0000
  H   H2179     1.0  0.45439  0.68389  0.43764  1.0000
  H   H2180     1.0  0.31701  0.69920  0.45079  1.0000
  C   C1235     1.0  0.46575  0.68370  0.46481  1.0000
  H   H2181     1.0  0.12308  0.59631  0.17253  1.0000
  C   C1236     1.0  0.46657  0.64163  0.23505  1.0000
  C   C1237     1.0  0.42467  0.68226  0.35644  1.0000
  S   S271      1.0  0.36115  0.76977  0.38151  1.0000
  C   C1238     1.0  0.35350  0.76209  0.10863  1.0000
  H   H2182     1.0  0.28254  0.66726  0.35530  1.0000
  C   C1239     1.0  0.39346  0.77531  0.02051  1.0000
  S   S272      1.0  0.34878  0.76205  0.98653  1.0000
  C   C1240     1.0  0.99611  0.75993  0.08213  1.0000
  H   H2183     1.0  0.40645  0.76284  0.01624  1.0000
  H   H2184     1.0  0.21349  0.65310  0.46165  1.0000
  C   C1241     1.0  0.01630  0.58932  0.07039  1.0000
  C   C1242     1.0  0.43648  0.70023  0.35179  1.0000
  H   H2185     1.0  0.48210  0.68198  0.45667  1.0000
  H   H2186     1.0  0.01747  0.77575  0.01653  1.0000
  C   C1243     1.0  0.05135  0.76878  0.97980  1.0000
  H   H2187     1.0  0.24398  0.66975  0.44681  1.0000
  C   C1244     1.0  0.42938  0.77820  0.34954  1.0000
  C   C1245     1.0  0.45295  0.67505  0.45356  1.0000
  H   H2188     1.0  0.36330  0.78137  0.08035  1.0000
  H   H2189     1.0  0.30627  0.60428  0.41449  1.0000
  H   H2190     1.0  0.46041  0.68869  0.32843  1.0000
  H   H2191     1.0  0.29470  0.73856  0.34885  1.0000
  H   H2192     1.0  0.32688  0.64482  0.35993  1.0000
  H   H2193     1.0  0.42844  0.67144  0.37051  1.0000
  H   H2194     1.0  0.34253  0.77525  0.11467  1.0000
  H   H2195     1.0  0.01020  0.62017  0.09826  1.0000
  C   C1246     1.0  0.99534  0.62380  0.02118  1.0000
  H   H2196     1.0  0.48157  0.75131  0.32941  1.0000
  C   C1247     1.0  0.02295  0.77436  0.03122  1.0000
  H   H2197     1.0  0.47901  0.71858  0.40024  1.0000
  H   H2198     1.0  0.42564  0.77848  0.28683  1.0000
  C   C1248     1.0  0.01184  0.59034  0.34676  1.0000
  C   C1249     1.0  0.47808  0.77842  0.24787  1.0000
  H   H2199     1.0  0.17189  0.76635  0.06517  1.0000
  H   H2200     1.0  0.10226  0.77974  0.03745  1.0000
  H   H2201     1.0  0.99581  0.60130  0.32050  1.0000
  H   H2202     1.0  0.38143  0.77620  0.01123  1.0000
  H   H2203     1.0  0.34194  0.76894  0.08033  1.0000
  H   H2204     1.0  0.00599  0.71866  0.16708  1.0000
  C   C1250     1.0  0.33821  0.59080  0.35834  1.0000
  H   H2205     1.0  0.01098  0.71972  0.98546  1.0000
  C   C1251     1.0  0.00500  0.61141  0.11378  1.0000
  C   C1252     1.0  0.14952  0.59027  0.43990  1.0000
  C   C1253     1.0  0.48548  0.66376  0.24551  1.0000
  C   C1254     1.0  0.47954  0.74421  0.31688  1.0000
  H   H2206     1.0  0.99755  0.77884  0.97933  1.0000
  H   H2207     1.0  0.42467  0.69279  0.46783  1.0000
  H   H2208     1.0  0.03491  0.77353  0.97990  1.0000
  H   H2209     1.0  0.18242  0.58672  0.43907  1.0000
  H   H2210     1.0  0.27997  0.77543  0.00120  1.0000
  H   H2211     1.0  0.00977  0.78086  0.04237  1.0000
  H   H2212     1.0  0.42478  0.63923  0.46835  1.0000
  H   H2213     1.0  0.17412  0.77563  0.08760  1.0000
  H   H2214     1.0  0.40647  0.77157  0.27581  1.0000
  H   H2215     1.0  0.40634  0.77682  0.39634  1.0000
  Fe  Fe137     1.0  0.06497  0.58528  0.22633  1.0000
  Fe  Fe138     1.0  0.34494  0.78156  0.35446  1.0000
  H   H2216     1.0  0.08893  0.78282  0.01683  1.0000
  C   C1255     1.0  0.10149  0.72484  0.47463  1.0000
  C   C1256     1.0  0.13324  0.64436  0.47465  1.0000
  H   H2217     1.0  0.44639  0.69577  0.89007  1.0000
  C   C1257     1.0  0.22523  0.60945  0.83760  1.0000
  H   H2218     1.0  0.03787  0.68590  0.53226  1.0000
  C   C1258     1.0  0.36793  0.59695  0.89403  1.0000
  S   S273      1.0  0.01478  0.63524  0.59909  1.0000
  C   C1259     1.0  0.08595  0.77686  0.97120  1.0000
  Fe  Fe139     1.0  0.32873  0.60004  0.52320  1.0000
  Fe  Fe140     1.0  0.02198  0.61086  0.62608  1.0000
  H   H2219     1.0  0.35042  0.60092  0.92421  1.0000
  S   S274      1.0  0.00148  0.62859  0.64981  1.0000
  H   H2220     1.0  0.26894  0.60012  0.59595  1.0000
  S   S275      1.0  0.07993  0.70853  0.58273  1.0000
  H   H2221     1.0  0.22000  0.60899  0.80686  1.0000
  C   C1260     1.0  0.13317  0.66881  0.57698  1.0000
  S   S276      1.0  0.34577  0.58703  0.69885  1.0000
  S   S277      1.0  0.39927  0.59356  0.66356  1.0000
  H   H2222     1.0  0.40048  0.71682  0.89025  1.0000
  H   H2223     1.0  0.08726  0.62738  0.57219  1.0000
  S   S278      1.0  0.40307  0.59628  0.60312  1.0000
  Fe  Fe141     1.0  0.29606  0.62877  0.50040  1.0000
  C   C1261     1.0  0.21432  0.60231  0.82306  1.0000
  S   S279      1.0  0.26755  0.65357  0.50044  1.0000
  C   C1262     1.0  0.45666  0.61577  0.70890  1.0000
  H   H2224     1.0  0.32399  0.59171  0.66038  1.0000
  C   C1263     1.0  0.13636  0.64629  0.57316  1.0000
  S   S280      1.0  0.15629  0.58846  0.51717  1.0000
  H   H2225     1.0  0.01232  0.67661  0.66166  1.0000
  H   H2226     1.0  0.15290  0.69382  0.52873  1.0000
  H   H2227     1.0  0.02088  0.67434  0.68571  1.0000
  S   S281      1.0  0.32551  0.63360  0.50815  1.0000
  H   H2228     1.0  0.26139  0.58680  0.70253  1.0000
  H   H2229     1.0  0.36939  0.61455  0.85543  1.0000
  H   H2230     1.0  0.47048  0.71950  0.87179  1.0000
  Fe  Fe142     1.0  0.33458  0.65325  0.88825  1.0000
  S   S282      1.0  0.34630  0.65435  0.91685  1.0000
  S   S283      1.0  0.31759  0.62636  0.89118  1.0000
  Fe  Fe143     1.0  0.35363  0.69074  0.86454  1.0000
  S   S284      1.0  0.36731  0.69379  0.89091  1.0000
  S   S285      1.0  0.35825  0.71403  0.83533  1.0000
  Fe  Fe144     1.0  0.37580  0.65929  0.89487  1.0000
  S   S286      1.0  0.40650  0.64156  0.90222  1.0000
  Fe  Fe145     1.0  0.33663  0.68911  0.91027  1.0000
  S   S287      1.0  0.31834  0.71240  0.93094  1.0000
  S   S288      1.0  0.36474  0.65650  0.86681  1.0000
  S   S289      1.0  0.32221  0.68761  0.88342  1.0000
  H   H2231     1.0  0.35634  0.70535  0.94832  1.0000
  H   H2232     1.0  0.29986  0.74951  0.94708  1.0000
  C   C1264     1.0  0.32137  0.60726  0.83685  1.0000
  C   C1265     1.0  0.32326  0.61879  0.85131  1.0000
  C   C1266     1.0  0.31811  0.61135  0.87237  1.0000
  H   H2233     1.0  0.17864  0.60718  0.47948  1.0000
  H   H2234     1.0  0.12858  0.66686  0.51241  1.0000
  H   H2235     1.0  0.32470  0.61351  0.82062  1.0000
  H   H2236     1.0  0.32787  0.63380  0.84619  1.0000
  N   N71       1.0  0.14610  0.68292  0.56158  1.0000
  H   H2237     1.0  0.47328  0.75570  0.74525  1.0000
  C   C1267     1.0  0.34649  0.71933  0.95262  1.0000
  H   H2238     1.0  0.25017  0.59077  0.79727  1.0000
  H   H2239     1.0  0.21095  0.66545  0.55184  1.0000
  H   H2240     1.0  0.38716  0.58948  0.71220  1.0000
  H   H2241     1.0  0.36142  0.58388  0.85411  1.0000
  C   C1268     1.0  0.38089  0.60710  0.57120  1.0000
  C   C1269     1.0  0.36596  0.60490  0.56030  1.0000
  H   H2242     1.0  0.27264  0.58598  0.47472  1.0000
  H   H2243     1.0  0.43056  0.59747  0.75220  1.0000
  C   C1270     1.0  0.11648  0.63088  0.48174  1.0000
  H   H2244     1.0  0.38833  0.62056  0.56659  1.0000
  H   H2245     1.0  0.36192  0.61665  0.54742  1.0000
  C   C1271     1.0  0.28362  0.58919  0.62295  1.0000
  C   C1272     1.0  0.24149  0.62512  0.51685  1.0000
  H   H2246     1.0  0.41096  0.72966  0.90559  1.0000
  C   C1273     1.0  0.04649  0.67018  0.49012  1.0000
  C   C1274     1.0  0.12807  0.76369  0.92628  1.0000
  H   H2247     1.0  0.11541  0.73532  0.58801  1.0000
  C   C1275     1.0  0.00589  0.69995  0.54178  1.0000
  C   C1276     1.0  0.45370  0.61160  0.85260  1.0000
  C   C1277     1.0  0.45283  0.60313  0.87348  1.0000
  C   C1278     1.0  0.43849  0.61273  0.88841  1.0000
  C   C1279     1.0  0.42434  0.63050  0.88263  1.0000
  C   C1280     1.0  0.42488  0.63896  0.86168  1.0000
  C   C1281     1.0  0.43973  0.62960  0.84663  1.0000
  C   C1282     1.0  0.31469  0.58804  0.84326  1.0000
  H   H2248     1.0  0.43815  0.60615  0.90454  1.0000
  H   H2249     1.0  0.41404  0.65278  0.85713  1.0000
  H   H2250     1.0  0.44007  0.63596  0.83047  1.0000
  H   H2251     1.0  0.36295  0.68702  0.49891  1.0000
  H   H2252     1.0  0.17952  0.70572  0.55618  1.0000
  C   C1283     1.0  0.20573  0.65513  0.51402  1.0000
  H   H2253     1.0  0.24866  0.63478  0.88238  1.0000
  H   H2254     1.0  0.11164  0.67769  0.54594  1.0000
  S   S290      1.0  0.47848  0.64221  0.78579  1.0000
  H   H2255     1.0  0.46116  0.73459  0.91352  1.0000
  H   H2256     1.0  0.36380  0.63736  0.82308  1.0000
  H   H2257     1.0  0.20408  0.59794  0.48615  1.0000
  C   C1284     1.0  0.39798  0.72200  0.90525  1.0000
  H   H2258     1.0  0.22663  0.67668  0.50069  1.0000
  H   H2259     1.0  0.48526  0.72290  0.90025  1.0000
  C   C1285     1.0  0.36608  0.67039  0.49758  1.0000
  C   C1286     1.0  0.13225  0.73150  0.58857  1.0000
  H   H2260     1.0  0.30363  0.60625  0.64779  1.0000
  C   C1287     1.0  0.40853  0.75042  0.83500  1.0000
  C   C1288     1.0  0.39227  0.75962  0.82429  1.0000
  C   C1289     1.0  0.37672  0.74845  0.82451  1.0000
  C   C1290     1.0  0.37749  0.72809  0.83535  1.0000
  C   C1291     1.0  0.39379  0.71899  0.84602  1.0000
  C   C1292     1.0  0.40915  0.73020  0.84602  1.0000
  H   H2261     1.0  0.36408  0.75559  0.81630  1.0000
  H   H2262     1.0  0.39491  0.70308  0.85381  1.0000
  H   H2263     1.0  0.42180  0.72299  0.85419  1.0000
  H   H2264     1.0  0.39793  0.70811  0.91762  1.0000
  H   H2265     1.0  0.27819  0.59572  0.76728  1.0000
  C   C1293     1.0  0.22533  0.66070  0.50704  1.0000
  C   C1294     1.0  0.24328  0.64575  0.50854  1.0000
  C   C1295     1.0  0.13836  0.70475  0.56546  1.0000
  H   H2266     1.0  0.42353  0.58807  0.85492  1.0000
  H   H2267     1.0  0.45627  0.67309  0.74513  1.0000
  H   H2268     1.0  0.27598  0.62744  0.87285  1.0000
  C   C1296     1.0  0.32735  0.72608  0.94612  1.0000
  H   H2269     1.0  0.47566  0.67827  0.83416  1.0000
  H   H2270     1.0  0.12160  0.70912  0.56481  1.0000
  H   H2271     1.0  0.33486  0.75078  0.90643  1.0000
  C   C1297     1.0  0.35758  0.60911  0.77063  1.0000
  H   H2272     1.0  0.24133  0.64115  0.84697  1.0000
  H   H2273     1.0  0.25523  0.61353  0.51807  1.0000
  C   C1298     1.0  0.18379  0.69018  0.55177  1.0000
  S   S291      1.0  0.33509  0.58546  0.55543  1.0000
  C   C1299     1.0  0.01608  0.69120  0.60578  1.0000
  C   C1300     1.0  0.03369  0.67699  0.61047  1.0000
  C   C1301     1.0  0.05340  0.68224  0.60311  1.0000
  C   C1302     1.0  0.05547  0.70154  0.59082  1.0000
  C   C1303     1.0  0.03790  0.71555  0.58576  1.0000
  C   C1304     1.0  0.01820  0.71045  0.59345  1.0000
  H   H2274     1.0  0.03212  0.66220  0.62030  1.0000
  H   H2275     1.0  0.06699  0.67139  0.60708  1.0000
  H   H2276     1.0  0.03942  0.73052  0.57634  1.0000
  H   H2277     1.0  0.26305  0.65353  0.86553  1.0000
  Fe  Fe146     1.0  0.07792  0.73779  0.55933  1.0000
  C   C1305     1.0  0.10311  0.77959  0.87727  1.0000
  H   H2278     1.0  0.47401  0.77419  0.84309  1.0000
  H   H2279     1.0  0.32876  0.59863  0.78630  1.0000
  C   C1306     1.0  0.10805  0.74626  0.90065  1.0000
  C   C1307     1.0  0.12859  0.73696  0.88765  1.0000
  H   H2280     1.0  0.13198  0.64587  0.55834  1.0000
  H   H2281     1.0  0.05991  0.62826  0.57371  1.0000
  H   H2282     1.0  0.12066  0.58308  0.58255  1.0000
  C   C1308     1.0  0.33839  0.76222  0.89220  1.0000
  H   H2283     1.0  0.09330  0.61037  0.54207  1.0000
  H   H2284     1.0  0.10642  0.64089  0.59161  1.0000
  H   H2285     1.0  0.10738  0.73828  0.91697  1.0000
  H   H2286     1.0  0.09549  0.74149  0.89534  1.0000
  H   H2287     1.0  0.21678  0.58522  0.82488  1.0000
  H   H2288     1.0  0.12772  0.74128  0.87101  1.0000
  H   H2289     1.0  0.42951  0.60730  0.78576  1.0000
  H   H2290     1.0  0.09419  0.60193  0.48976  1.0000
  H   H2291     1.0  0.03384  0.66692  0.50328  1.0000
  H   H2292     1.0  0.46333  0.58908  0.87816  1.0000
  C   C1309     1.0  0.99277  0.72140  0.54505  1.0000
  H   H2293     1.0  0.15718  0.70547  0.58838  1.0000
  H   H2294     1.0  0.28959  0.60978  0.78052  1.0000
  H   H2295     1.0  0.06115  0.65083  0.53958  1.0000
  C   C1310     1.0  0.35570  0.58793  0.56672  1.0000
  C   C1311     1.0  0.47035  0.73748  0.77627  1.0000
  H   H2296     1.0  0.46868  0.69186  0.90221  1.0000
  S   S292      1.0  0.42855  0.76353  0.83465  1.0000
  H   H2297     1.0  0.22301  0.62660  0.83333  1.0000
  C   C1312     1.0  0.36823  0.58742  0.76559  1.0000
  H   H2298     1.0  0.36695  0.61395  0.88941  1.0000
  H   H2299     1.0  0.30746  0.75871  0.87165  1.0000
  H   H2300     1.0  0.43967  0.60784  0.68860  1.0000
  H   H2301     1.0  0.46996  0.68921  0.72412  1.0000
  C   C1313     1.0  0.47073  0.73397  0.89791  1.0000
  C   C1314     1.0  0.31996  0.74497  0.87336  1.0000
  C   C1315     1.0  0.26456  0.59475  0.79956  1.0000
  H   H2302     1.0  0.35477  0.59259  0.88949  1.0000
  H   H2303     1.0  0.99686  0.73258  0.53082  1.0000
  H   H2304     1.0  0.36463  0.72845  0.90972  1.0000
  H   H2305     1.0  0.16993  0.67296  0.58057  1.0000
  H   H2306     1.0  0.21632  0.60649  0.85352  1.0000
  H   H2307     1.0  0.26830  0.58926  0.63323  1.0000
  C   C1316     1.0  0.37739  0.73686  0.90875  1.0000
  H   H2308     1.0  0.15694  0.59277  0.62939  1.0000
  H   H2309     1.0  0.22061  0.60383  0.53129  1.0000
  C   C1317     1.0  0.26080  0.60793  0.81676  1.0000
  C   C1318     1.0  0.13263  0.71332  0.89297  1.0000
  Fe  Fe147     1.0  0.34071  0.62136  0.47902  1.0000
  C   C1319     1.0  0.38216  0.60293  0.72028  1.0000
  H   H2310     1.0  0.11967  0.70697  0.89022  1.0000
  H   H2311     1.0  0.00512  0.68873  0.55650  1.0000
  H   H2312     1.0  0.32186  0.58554  0.73973  1.0000
  C   C1320     1.0  0.16847  0.67571  0.56406  1.0000
  H   H2313     1.0  0.34430  0.76196  0.85880  1.0000
  C   C1321     1.0  0.36545  0.59217  0.91746  1.0000
  H   H2314     1.0  0.44702  0.76578  0.87513  1.0000
  Fe  Fe148     1.0  0.09321  0.75331  0.51448  1.0000
  C   C1322     1.0  0.35272  0.77934  0.91293  1.0000
  S   S293      1.0  0.99795  0.59300  0.62422  1.0000
  C   C1323     1.0  0.25484  0.60779  0.85389  1.0000
  S   S294      1.0  0.10697  0.74930  0.54299  1.0000
  C   C1324     1.0  0.25615  0.63119  0.85010  1.0000
  H   H2315     1.0  0.99745  0.75961  0.70008  1.0000
  H   H2316     1.0  0.10349  0.64808  0.50652  1.0000
  C   C1325     1.0  0.04487  0.78033  0.92255  1.0000
  H   H2317     1.0  0.00237  0.76875  0.62310  1.0000
  H   H2318     1.0  0.46349  0.77071  0.76566  1.0000
  H   H2319     1.0  0.11780  0.62339  0.51415  1.0000
  H   H2320     1.0  0.40736  0.61084  0.82093  1.0000
  C   C1326     1.0  0.12301  0.63348  0.59019  1.0000
  C   C1327     1.0  0.34009  0.74857  0.97094  1.0000
  H   H2321     1.0  0.20663  0.68043  0.57215  1.0000
  H   H2322     1.0  0.27664  0.58815  0.66414  1.0000
  H   H2323     1.0  0.40121  0.59300  0.88658  1.0000
  H   H2324     1.0  0.17446  0.66041  0.55915  1.0000
  H   H2325     1.0  0.32418  0.77433  0.89208  1.0000
  S   S295      1.0  0.11288  0.73869  0.48759  1.0000
  H   H2326     1.0  0.32877  0.61111  0.75980  1.0000
  C   C1328     1.0  0.14437  0.68239  0.53981  1.0000
  C   C1329     1.0  0.32104  0.75547  0.96425  1.0000
  C   C1330     1.0  0.48013  0.75755  0.84807  1.0000
  H   H2327     1.0  0.99861  0.72640  0.55707  1.0000
  H   H2328     1.0  0.26434  0.62038  0.77354  1.0000
  C   C1331     1.0  0.12206  0.68731  0.53491  1.0000
  C   C1332     1.0  0.38610  0.60826  0.85064  1.0000
  H   H2329     1.0  0.47020  0.68957  0.77951  1.0000
  H   H2330     1.0  0.99267  0.71971  0.65511  1.0000
  H   H2331     1.0  0.07961  0.66311  0.48191  1.0000
  H   H2332     1.0  0.27047  0.59904  0.85633  1.0000
  H   H2333     1.0  0.01545  0.78051  0.57545  1.0000
  C   C1333     1.0  0.47306  0.58718  0.73165  1.0000
  H   H2334     1.0  0.12464  0.61784  0.58647  1.0000
  C   C1334     1.0  0.44879  0.60196  0.70067  1.0000
  C   C1335     1.0  0.06993  0.75374  0.61727  1.0000
  S   S296      1.0  0.29806  0.59607  0.51741  1.0000
  N   N72       1.0  0.10415  0.76944  0.89931  1.0000
  Fe  Fe149     1.0  0.05122  0.77250  0.53541  1.0000
  C   C1336     1.0  0.14072  0.70886  0.58651  1.0000
  S   S297      1.0  0.47047  0.59749  0.83460  1.0000
  H   H2335     1.0  0.04596  0.68716  0.48635  1.0000
  H   H2336     1.0  0.06652  0.61402  0.54081  1.0000
  H   H2337     1.0  0.31532  0.73421  0.88776  1.0000
  H   H2338     1.0  0.45338  0.63221  0.70306  1.0000
  H   H2339     1.0  0.13188  0.69923  0.59938  1.0000
  H   H2340     1.0  0.38983  0.76336  0.89152  1.0000
  H   H2341     1.0  0.38184  0.70605  0.79121  1.0000
  H   H2342     1.0  0.19206  0.62458  0.48659  1.0000
  H   H2343     1.0  0.36190  0.61136  0.78489  1.0000
  C   C1337     1.0  0.10604  0.63177  0.50443  1.0000
  H   H2344     1.0  0.03082  0.71191  0.51884  1.0000
  H   H2345     1.0  0.14049  0.74204  0.57603  1.0000
  H   H2346     1.0  0.35246  0.73741  0.87437  1.0000
  C   C1338     1.0  0.38894  0.58562  0.88369  1.0000
  H   H2347     1.0  0.10486  0.59213  0.51260  1.0000
  C   C1339     1.0  0.08409  0.77552  0.91356  1.0000
  H   H2348     1.0  0.38446  0.63734  0.80110  1.0000
  C   C1340     1.0  0.40195  0.58918  0.77223  1.0000
  C   C1341     1.0  0.28088  0.58718  0.60160  1.0000
  H   H2349     1.0  0.10628  0.68725  0.51004  1.0000
  H   H2350     1.0  0.13641  0.66762  0.59270  1.0000
  H   H2351     1.0  0.05355  0.63259  0.51118  1.0000
  H   H2352     1.0  0.36756  0.72502  0.97003  1.0000
  H   H2353     1.0  0.48232  0.67605  0.74565  1.0000
  C   C1342     1.0  0.27477  0.60594  0.77898  1.0000
  H   H2354     1.0  0.43759  0.74595  0.78707  1.0000
  C   C1343     1.0  0.07590  0.64137  0.54361  1.0000
  N   N73       1.0  0.39112  0.58590  0.86092  1.0000
  C   C1344     1.0  0.46729  0.68415  0.74108  1.0000
  H   H2355     1.0  0.06400  0.75681  0.90652  1.0000
  Fe  Fe150     1.0  0.17712  0.59514  0.53570  1.0000
  H   H2356     1.0  0.45534  0.69403  0.84941  1.0000
  H   H2357     1.0  0.33121  0.62841  0.62929  1.0000
  H   H2358     1.0  0.09877  0.59548  0.61364  1.0000
  H   H2359     1.0  0.37524  0.62356  0.69224  1.0000
  H   H2360     1.0  0.32673  0.62636  0.77934  1.0000
  H   H2361     1.0  0.39651  0.60531  0.77521  1.0000
  H   H2362     1.0  0.36540  0.60440  0.72666  1.0000
  H   H2363     1.0  0.02171  0.74735  0.66963  1.0000
  C   C1345     1.0  0.39551  0.60060  0.73695  1.0000
  C   C1346     1.0  0.35278  0.73050  0.96498  1.0000
  S   S298      1.0  0.05531  0.59858  0.62938  1.0000
  H   H2364     1.0  0.38017  0.75058  0.87636  1.0000
  H   H2365     1.0  0.14213  0.74245  0.89015  1.0000
  H   H2366     1.0  0.18416  0.69216  0.53500  1.0000
  C   C1347     1.0  0.12229  0.68337  0.51343  1.0000
  N   N74       1.0  0.08630  0.62296  0.51166  1.0000
  H   H2367     1.0  0.14714  0.70701  0.88317  1.0000
  H   H2368     1.0  0.07004  0.73851  0.48536  1.0000
  H   H2369     1.0  0.19196  0.66676  0.51273  1.0000
  H   H2370     1.0  0.36199  0.62175  0.75799  1.0000
  H   H2371     1.0  0.13679  0.74810  0.92397  1.0000
  H   H2372     1.0  0.32410  0.60045  0.61358  1.0000
  C   C1348     1.0  0.20392  0.63464  0.52287  1.0000
  C   C1349     1.0  0.45523  0.77000  0.88580  1.0000
  H   H2373     1.0  0.44531  0.73316  0.88195  1.0000
  H   H2374     1.0  0.36292  0.66107  0.51324  1.0000
  C   C1350     1.0  0.31178  0.59196  0.87877  1.0000
  C   C1351     1.0  0.22183  0.61959  0.52415  1.0000
  N   N75       1.0  0.01493  0.74030  0.64219  1.0000
  H   H2375     1.0  0.06943  0.65155  0.57313  1.0000
  S   S299      1.0  0.06509  0.73996  0.53091  1.0000
  H   H2376     1.0  0.25415  0.62416  0.81052  1.0000
  C   C1352     1.0  0.07296  0.63680  0.56709  1.0000
  C   C1353     1.0  0.00957  0.71893  0.64942  1.0000
  C   C1354     1.0  0.02874  0.70148  0.53402  1.0000
  H   H2377     1.0  0.38744  0.64600  0.82359  1.0000
  C   C1355     1.0  0.46890  0.60855  0.72441  1.0000
  H   H2378     1.0  0.32183  0.73690  0.86017  1.0000
  C   C1356     1.0  0.02105  0.70459  0.66624  1.0000
  H   H2379     1.0  0.06877  0.63039  0.48666  1.0000
  C   C1357     1.0  0.31594  0.59222  0.64740  1.0000
  H   H2380     1.0  0.00460  0.72156  0.59016  1.0000
  C   C1358     1.0  0.07301  0.58852  0.51511  1.0000
  H   H2381     1.0  0.11843  0.77591  0.86730  1.0000
  C   C1359     1.0  0.08066  0.62106  0.53479  1.0000
  H   H2382     1.0  0.01307  0.71068  0.63620  1.0000
  H   H2383     1.0  0.29565  0.58793  0.59047  1.0000
  H   H2384     1.0  0.00052  0.69364  0.53036  1.0000
  C   C1360     1.0  0.48568  0.76261  0.90215  1.0000
  C   C1361     1.0  0.12132  0.77631  0.90598  1.0000
  H   H2385     1.0  0.04267  0.72737  0.62274  1.0000
  H   H2386     1.0  0.13445  0.73421  0.60354  1.0000
  C   C1362     1.0  0.20581  0.68123  0.55575  1.0000
  H   H2387     1.0  0.47476  0.76465  0.91682  1.0000
  N   N76       1.0  0.47538  0.75524  0.88786  1.0000
  H   H2388     1.0  0.03761  0.69969  0.65973  1.0000
  H   H2389     1.0  0.02012  0.71242  0.67937  1.0000
  H   H2390     1.0  0.07813  0.74655  0.63038  1.0000
  C   C1363     1.0  0.34035  0.75150  0.87358  1.0000
  H   H2391     1.0  0.48182  0.72412  0.77136  1.0000
  C   C1364     1.0  0.03804  0.73781  0.63438  1.0000
  H   H2392     1.0  0.21667  0.69127  0.54602  1.0000
  H   H2393     1.0  0.18740  0.62716  0.82533  1.0000
  C   C1365     1.0  0.09072  0.60132  0.50673  1.0000
  C   C1366     1.0  0.19092  0.60999  0.82732  1.0000
  C   C1367     1.0  0.06858  0.63554  0.50134  1.0000
  H   H2394     1.0  0.27668  0.60853  0.81884  1.0000
  H   H2395     1.0  0.21729  0.77371  0.92060  1.0000
  S   S300      1.0  0.06105  0.76889  0.56565  1.0000
  H   H2396     1.0  0.26854  0.63506  0.83688  1.0000
  S   S301      1.0  0.17909  0.62857  0.53285  1.0000
  C   C1368     1.0  0.33178  0.59627  0.62727  1.0000
  C   C1369     1.0  0.45988  0.72335  0.88601  1.0000
  H   H2397     1.0  0.11522  0.70384  0.53529  1.0000
  H   H2398     1.0  0.07029  0.66624  0.50798  1.0000
  H   H2399     1.0  0.01385  0.74826  0.60944  1.0000
  H   H2400     1.0  0.39490  0.61796  0.85578  1.0000
  H   H2401     1.0  0.29841  0.58987  0.68848  1.0000
  H   H2402     1.0  0.15273  0.63855  0.57292  1.0000
  C   C1370     1.0  0.39042  0.61254  0.82675  1.0000
  H   H2403     1.0  0.37983  0.63646  0.71114  1.0000
  C   C1371     1.0  0.00987  0.75266  0.65943  1.0000
  C   C1372     1.0  0.00415  0.75169  0.62432  1.0000
  C   C1373     1.0  0.26125  0.63702  0.86888  1.0000
  H   H2404     1.0  0.14513  0.63944  0.48475  1.0000
  C   C1374     1.0  0.34267  0.61406  0.62728  1.0000
  H   H2405     1.0  0.37627  0.74143  0.92381  1.0000
  H   H2406     1.0  0.46720  0.74907  0.85048  1.0000
  C   C1375     1.0  0.37654  0.75604  0.89137  1.0000
  Fe  Fe151     1.0  0.08937  0.78109  0.54732  1.0000
  H   H2407     1.0  0.08429  0.76618  0.92928  1.0000
  H   H2408     1.0  0.40134  0.62150  0.69635  1.0000
  Fe  Fe152     1.0  0.98858  0.61942  0.59945  1.0000
  H   H2409     1.0  0.12805  0.63177  0.60518  1.0000
  C   C1376     1.0  0.45443  0.70289  0.89880  1.0000
  H   H2410     1.0  0.15211  0.66714  0.53557  1.0000
  H   H2411     1.0  0.07389  0.74319  0.60586  1.0000
  C   C1377     1.0  0.31468  0.74420  0.95203  1.0000
  H   H2412     1.0  0.39078  0.64698  0.48734  1.0000
  H   H2413     1.0  0.28821  0.60438  0.62159  1.0000
  H   H2414     1.0  0.35332  0.61716  0.61240  1.0000
  C   C1378     1.0  0.33402  0.61139  0.77424  1.0000
  H   H2415     1.0  0.44348  0.73871  0.76264  1.0000
  H   H2416     1.0  0.11637  0.67547  0.57809  1.0000
  H   H2417     1.0  0.35198  0.60999  0.63980  1.0000
  C   C1379     1.0  0.38570  0.59233  0.58847  1.0000
  H   H2418     1.0  0.39446  0.61623  0.74063  1.0000
  H   H2419     1.0  0.04681  0.73020  0.64701  1.0000
  H   H2420     1.0  0.45458  0.66710  0.85078  1.0000
  N   N77       1.0  0.35666  0.77164  0.89283  1.0000
  N   N78       1.0  0.24789  0.60040  0.83725  1.0000
  C   C1380     1.0  0.38090  0.63467  0.81817  1.0000
  H   H2421     1.0  0.08854  0.65052  0.53800  1.0000
  H   H2422     1.0  0.05801  0.59751  0.51127  1.0000
  N   N79       1.0  0.44362  0.71276  0.78818  1.0000
  C   C1381     1.0  0.44775  0.73420  0.77815  1.0000
  C   C1382     1.0  0.42053  0.71325  0.79256  1.0000
  C   C1383     1.0  0.45102  0.70762  0.80862  1.0000
  C   C1384     1.0  0.45468  0.69631  0.77549  1.0000
  C   C1385     1.0  0.45860  0.70294  0.75169  1.0000
  C   C1386     1.0  0.44638  0.68706  0.82278  1.0000
  C   C1387     1.0  0.40973  0.71750  0.77363  1.0000
  C   C1388     1.0  0.38621  0.71988  0.78011  1.0000
  S   S302      1.0  0.99134  0.68592  0.61701  1.0000
  C   C1389     1.0  0.45877  0.68134  0.84035  1.0000
  C   C1390     1.0  0.38490  0.62232  0.70405  1.0000
  H   H2423     1.0  0.41670  0.69821  0.80148  1.0000
  H   H2424     1.0  0.41276  0.72503  0.80235  1.0000
  H   H2425     1.0  0.44448  0.72038  0.81757  1.0000
  H   H2426     1.0  0.46811  0.70652  0.80610  1.0000
  C   C1391     1.0  0.38859  0.66377  0.48766  1.0000
  H   H2427     1.0  0.44625  0.68300  0.77942  1.0000
  S   S303      1.0  0.47855  0.62691  0.73398  1.0000
  H   H2428     1.0  0.44437  0.71117  0.74577  1.0000
  C   C1392     1.0  0.04650  0.75817  0.62469  1.0000
  H   H2429     1.0  0.45040  0.67405  0.81410  1.0000
  H   H2430     1.0  0.42973  0.68862  0.82988  1.0000
  H   H2431     1.0  0.41308  0.73187  0.76297  1.0000
  H   H2432     1.0  0.41477  0.70419  0.76533  1.0000
  H   H2433     1.0  0.47014  0.71342  0.74678  1.0000
  H   H2434     1.0  0.14719  0.76468  0.94809  1.0000
  H   H2435     1.0  0.37893  0.72169  0.76640  1.0000
  H   H2436     1.0  0.38397  0.60177  0.82050  1.0000
  H   H2437     1.0  0.11454  0.76157  0.93857  1.0000
  H   H2438     1.0  0.03492  0.70740  0.54519  1.0000
  H   H2439     1.0  0.24435  0.60457  0.86890  1.0000
  Fe  Fe153     1.0  0.99258  0.65167  0.62249  1.0000
  Fe  Fe154     1.0  0.31548  0.58723  0.48739  1.0000
  H   H2440     1.0  0.07553  0.76843  0.60972  1.0000
  H   H2441     1.0  0.44396  0.70546  0.91351  1.0000
  H   H2442     1.0  0.24122  0.77530  0.94339  1.0000
  C   C1393     1.0  0.07063  0.58940  0.60759  1.0000
  H   H2443     1.0  0.01083  0.76923  0.65312  1.0000
  H   H2444     1.0  0.14581  0.71599  0.55297  1.0000
  H   H2445     1.0  0.39861  0.66602  0.49780  1.0000
  H   H2446     1.0  0.15042  0.59106  0.60540  1.0000
  S   S304      1.0  0.34636  0.58817  0.49451  1.0000
  C   C1394     1.0  0.06760  0.65936  0.49555  1.0000
  H   H2447     1.0  0.03921  0.76663  0.61131  1.0000
  H   H2448     1.0  0.35022  0.76652  0.92613  1.0000
  C   C1395     1.0  0.06395  0.77319  0.90713  1.0000
  H   H2449     1.0  0.13443  0.70812  0.90935  1.0000
  H   H2450     1.0  0.41182  0.59659  0.72917  1.0000
  H   H2451     1.0  0.13201  0.69323  0.50166  1.0000
  H   H2452     1.0  0.19822  0.77245  0.94412  1.0000
  H   H2453     1.0  0.35536  0.66776  0.48833  1.0000
  C   C1396     1.0  0.01181  0.68486  0.67445  1.0000
  H   H2454     1.0  0.18413  0.60329  0.84321  1.0000
  H   H2455     1.0  0.04354  0.76849  0.63619  1.0000
  H   H2456     1.0  0.37811  0.59702  0.92253  1.0000
  H   H2457     1.0  0.31119  0.76943  0.96856  1.0000
  H   H2458     1.0  0.15599  0.77695  0.92210  1.0000
  H   H2459     1.0  0.37998  0.73384  0.78732  1.0000
  H   H2460     1.0  0.03062  0.77898  0.91747  1.0000
  C   C1397     1.0  0.47464  0.75703  0.76100  1.0000
  H   H2461     1.0  0.18352  0.60509  0.81637  1.0000
  C   C1398     1.0  0.14207  0.77443  0.93398  1.0000
  H   H2462     1.0  0.47296  0.73931  0.79143  1.0000
  H   H2463     1.0  0.45247  0.58912  0.77864  1.0000
  H   H2464     1.0  0.04543  0.77060  0.93800  1.0000
  H   H2465     1.0  0.30768  0.58613  0.89504  1.0000
  C   C1399     1.0  0.42593  0.58653  0.76643  1.0000
  C   C1400     1.0  0.43535  0.59107  0.78332  1.0000
  C   C1401     1.0  0.09198  0.58943  0.60353  1.0000
  H   H2466     1.0  0.44435  0.76883  0.90082  1.0000
  H   H2467     1.0  0.09222  0.77316  0.87107  1.0000
  H   H2468     1.0  0.26952  0.77599  0.95839  1.0000
  C   C1402     1.0  0.08000  0.72769  0.47616  1.0000
  H   H2469     1.0  0.13542  0.77616  0.89378  1.0000
  H   H2470     1.0  0.39162  0.77529  0.81586  1.0000
  H   H2471     1.0  0.99550  0.68862  0.68227  1.0000
  C   C1403     1.0  0.19397  0.61137  0.47848  1.0000
  H   H2472     1.0  0.12415  0.61475  0.48020  1.0000
  N   N80       1.0  0.39100  0.58517  0.75647  1.0000
  H   H2473     1.0  0.35925  0.58341  0.75547  1.0000
  H   H2474     1.0  0.04386  0.66499  0.47648  1.0000
  H   H2475     1.0  0.43037  0.66679  0.48000  1.0000
  H   H2476     1.0  0.22253  0.78012  0.96529  1.0000
  H   H2477     1.0  0.46541  0.67515  0.48085  1.0000
  H   H2478     1.0  0.12630  0.66091  0.47487  1.0000
  H   H2479     1.0  0.07132  0.58382  0.53205  1.0000
  H   H2480     1.0  0.36538  0.78264  0.86019  1.0000
  H   H2481     1.0  0.06197  0.78269  0.89187  1.0000
  H   H2482     1.0  0.23589  0.95705  0.97828  1.0000
  Fe  Fe155     1.0  0.18227  0.90004  0.06644  1.0000
  S   S305      1.0  0.19462  0.92108  0.03837  1.0000
  S   S306      1.0  0.20505  0.87457  0.08097  1.0000
  Fe  Fe156     1.0  0.13838  0.92381  0.06760  1.0000
  S   S307      1.0  0.14765  0.94764  0.03989  1.0000
  S   S308      1.0  0.10570  0.92230  0.08512  1.0000
  Fe  Fe157     1.0  0.16610  0.91986  0.02665  1.0000
  S   S309      1.0  0.16846  0.91305  0.99471  1.0000
  Fe  Fe158     1.0  0.17549  0.94683  0.05439  1.0000
  H   H2483     1.0  0.23307  0.92008  0.29378  1.0000
  S   S310      1.0  0.15555  0.89641  0.05347  1.0000
  S   S311      1.0  0.16445  0.92549  0.08321  1.0000
  H   H2484     1.0  0.27922  0.89118  0.29939  1.0000
  H   H2485     1.0  0.30808  0.84168  0.41137  1.0000
  Fe  Fe159     1.0  0.00590  0.82221  0.10091  1.0000
  S   S312      1.0  0.01468  0.83236  0.06694  1.0000
  Fe  Fe160     1.0  0.02095  0.86067  0.07556  1.0000
  S   S313      1.0  0.05101  0.87007  0.05738  1.0000
  H   H2486     1.0  0.23796  0.86043  0.33120  1.0000
  S   S314      1.0  0.01402  0.84955  0.10969  1.0000
  H   H2487     1.0  0.06417  0.78622  0.10859  1.0000
  H   H2488     1.0  0.36556  0.97401  0.27356  1.0000
  C   C1404     1.0  0.21877  0.88344  0.31208  1.0000
  H   H2489     1.0  0.08765  0.79995  0.06403  1.0000
  S   S315      1.0  0.32353  0.81230  0.35230  1.0000
  N   N81       1.0  0.34288  0.90005  0.06944  1.0000
  H   H2490     1.0  0.40174  0.91360  0.06925  1.0000
  C   C1405     1.0  0.40253  0.90027  0.06161  1.0000
  C   C1406     1.0  0.18189  0.92307  0.13083  1.0000
  H   H2491     1.0  0.48793  0.80222  0.18257  1.0000
  Fe  Fe161     1.0  0.33541  0.91882  0.29656  1.0000
  S   S316      1.0  0.30095  0.92053  0.30441  1.0000
  S   S317      1.0  0.35955  0.89338  0.30935  1.0000
  Fe  Fe162     1.0  0.33216  0.95648  0.26303  1.0000
  S   S318      1.0  0.29762  0.96102  0.26765  1.0000
  H   H2492     1.0  0.03688  0.79391  0.05776  1.0000
  Fe  Fe163     1.0  0.29917  0.95484  0.30114  1.0000
  H   H2493     1.0  0.31659  0.89032  0.13204  1.0000
  Fe  Fe164     1.0  0.30241  0.92667  0.27022  1.0000
  S   S319      1.0  0.28286  0.91321  0.25515  1.0000
  S   S320      1.0  0.33370  0.95259  0.29647  1.0000
  S   S321      1.0  0.33685  0.92267  0.26258  1.0000
  H   H2494     1.0  0.18015  0.96905  0.09711  1.0000
  H   H2495     1.0  0.31910  0.83358  0.38708  1.0000
  H   H2496     1.0  0.09792  0.85220  0.01146  1.0000
  H   H2497     1.0  0.42753  0.78326  0.25924  1.0000
  H   H2498     1.0  0.41642  0.81872  0.39930  1.0000
  C   C1407     1.0  0.33157  0.94441  0.20178  1.0000
  S   S322      1.0  0.30337  0.84211  0.01926  1.0000
  Fe  Fe165     1.0  0.38952  0.89603  0.14606  1.0000
  S   S323      1.0  0.36673  0.88391  0.13409  1.0000
  S   S324      1.0  0.39174  0.93002  0.13938  1.0000
  Fe  Fe166     1.0  0.40306  0.85457  0.17265  1.0000
  S   S325      1.0  0.38118  0.83905  0.16240  1.0000
  S   S326      1.0  0.41986  0.83666  0.19877  1.0000
  Fe  Fe167     1.0  0.39143  0.85600  0.13061  1.0000
  S   S327      1.0  0.39800  0.84281  0.10095  1.0000
  Fe  Fe168     1.0  0.35823  0.86822  0.16654  1.0000
  S   S328      1.0  0.32397  0.87032  0.17793  1.0000
  S   S329      1.0  0.41543  0.86927  0.14035  1.0000
  S   S330      1.0  0.37910  0.88236  0.17901  1.0000
  C   C1408     1.0  0.34757  0.82385  0.07572  1.0000
  C   C1409     1.0  0.34390  0.82736  0.09607  1.0000
  C   C1410     1.0  0.35915  0.83325  0.10393  1.0000
  C   C1411     1.0  0.37839  0.83545  0.09158  1.0000
  C   C1412     1.0  0.38219  0.83169  0.07129  1.0000
  C   C1413     1.0  0.36681  0.82604  0.06334  1.0000
  H   H2499     1.0  0.32918  0.82538  0.10589  1.0000
  H   H2500     1.0  0.35618  0.83575  0.11967  1.0000
  H   H2501     1.0  0.39707  0.83327  0.06166  1.0000
  H   H2502     1.0  0.36990  0.82318  0.04775  1.0000
  C   C1414     1.0  0.43817  0.84561  0.20853  1.0000
  C   C1415     1.0  0.44388  0.83486  0.22724  1.0000
  H   H2503     1.0  0.43664  0.82190  0.23561  1.0000
  H   H2504     1.0  0.21120  0.89990  0.31126  1.0000
  C   C1416     1.0  0.29508  0.90088  0.23413  1.0000
  C   C1417     1.0  0.31656  0.89415  0.23011  1.0000
  C   C1418     1.0  0.32574  0.88491  0.21274  1.0000
  C   C1419     1.0  0.31337  0.88194  0.19971  1.0000
  C   C1420     1.0  0.29189  0.88819  0.20412  1.0000
  C   C1421     1.0  0.28279  0.89767  0.22122  1.0000
  H   H2505     1.0  0.32609  0.89605  0.24031  1.0000
  H   H2506     1.0  0.34229  0.87985  0.20964  1.0000
  H   H2507     1.0  0.28224  0.88581  0.19420  1.0000
  H   H2508     1.0  0.26617  0.90265  0.22436  1.0000
  C   C1422     1.0  0.33430  0.83434  0.34037  1.0000
  C   C1423     1.0  0.32131  0.85362  0.33979  1.0000
  C   C1424     1.0  0.32905  0.87172  0.33031  1.0000
  C   C1425     1.0  0.34990  0.87064  0.32126  1.0000
  C   C1426     1.0  0.36313  0.85134  0.32214  1.0000
  C   C1427     1.0  0.35532  0.83313  0.33168  1.0000
  H   H2509     1.0  0.30525  0.85446  0.34695  1.0000
  H   H2510     1.0  0.31902  0.88655  0.33049  1.0000
  H   H2511     1.0  0.37934  0.85047  0.31531  1.0000
  H   H2512     1.0  0.36549  0.81824  0.33229  1.0000
  H   H2513     1.0  0.26688  0.87644  0.98165  1.0000
  H   H2514     1.0  0.00541  0.91600  0.12356  1.0000
  C   C1428     1.0  0.40018  0.93099  0.27776  1.0000
  C   C1429     1.0  0.44456  0.81533  0.33470  1.0000
  C   C1430     1.0  0.42452  0.81416  0.33270  1.0000
  C   C1431     1.0  0.41687  0.79556  0.34016  1.0000
  C   C1432     1.0  0.45727  0.79774  0.34328  1.0000
  H   H2515     1.0  0.46387  0.83922  0.16480  1.0000
  H   H2516     1.0  0.41495  0.82765  0.32544  1.0000
  H   H2517     1.0  0.40127  0.79478  0.33899  1.0000
  H   H2518     1.0  0.41838  0.80951  0.37604  1.0000
  C   C1433     1.0  0.07349  0.79334  0.06562  1.0000
  H   H2519     1.0  0.33913  0.80524  0.31068  1.0000
  S   S331      1.0  0.45348  0.83889  0.32749  1.0000
  N   N82       1.0  0.42267  0.96466  0.22582  1.0000
  H   H2520     1.0  0.06569  0.81304  0.01622  1.0000
  C   C1434     1.0  0.00899  0.85138  0.97945  1.0000
  H   H2521     1.0  0.24397  0.93890  0.02739  1.0000
  C   C1435     1.0  0.34943  0.94974  0.10150  1.0000
  C   C1436     1.0  0.36495  0.93742  0.11194  1.0000
  C   C1437     1.0  0.37354  0.94572  0.12477  1.0000
  C   C1438     1.0  0.36709  0.96668  0.12640  1.0000
  H   H2522     1.0  0.36781  0.86872  0.43785  1.0000
  H   H2523     1.0  0.34259  0.94331  0.09181  1.0000
  H   H2524     1.0  0.37060  0.92166  0.10969  1.0000
  H   H2525     1.0  0.34051  0.96746  0.34211  1.0000
  H   H2526     1.0  0.31678  0.87062  0.09490  1.0000
  C   C1439     1.0  0.21871  0.85913  0.06281  1.0000
  C   C1440     1.0  0.23902  0.84894  0.06415  1.0000
  C   C1441     1.0  0.25025  0.83720  0.04919  1.0000
  C   C1442     1.0  0.24096  0.83515  0.03323  1.0000
  C   C1443     1.0  0.22041  0.84477  0.03234  1.0000
  C   C1444     1.0  0.20944  0.85709  0.04685  1.0000
  H   H2527     1.0  0.24621  0.85034  0.07653  1.0000
  H   H2528     1.0  0.26600  0.82953  0.05016  1.0000
  H   H2529     1.0  0.38163  0.88574  0.08581  1.0000
  H   H2530     1.0  0.19376  0.86486  0.04576  1.0000
  H   H2531     1.0  0.36444  0.85898  0.02737  1.0000
  C   C1445     1.0  0.27370  0.86040  0.30083  1.0000
  C   C1446     1.0  0.09030  0.90804  0.07729  1.0000
  C   C1447     1.0  0.09696  0.89982  0.05917  1.0000
  C   C1448     1.0  0.08452  0.88860  0.05317  1.0000
  C   C1449     1.0  0.06534  0.88530  0.06527  1.0000
  C   C1450     1.0  0.05863  0.89339  0.08349  1.0000
  C   C1451     1.0  0.07106  0.90480  0.08942  1.0000
  H   H2532     1.0  0.11166  0.90220  0.04973  1.0000
  H   H2533     1.0  0.08986  0.88220  0.03918  1.0000
  H   H2534     1.0  0.04393  0.89085  0.09300  1.0000
  H   H2535     1.0  0.06578  0.91110  0.10348  1.0000
  C   C1452     1.0  0.11096  0.90139  0.99709  1.0000
  C   C1453     1.0  0.12798  0.90696  0.00228  1.0000
  C   C1454     1.0  0.14733  0.90443  0.98952  1.0000
  C   C1455     1.0  0.30708  0.93208  0.14208  1.0000
  H   H2536     1.0  0.09585  0.90412  0.00662  1.0000
  H   H2537     1.0  0.12599  0.91397  0.01570  1.0000
  H   H2538     1.0  0.29493  0.95463  0.22744  1.0000
  H   H2539     1.0  0.44376  0.87058  0.18329  1.0000
  H   H2540     1.0  0.38196  0.90237  0.25411  1.0000
  H   H2541     1.0  0.21770  0.90261  0.98416  1.0000
  C   C1456     1.0  0.13160  0.83920  0.05267  1.0000
  H   H2542     1.0  0.46311  0.83205  0.24957  1.0000
  C   C1457     1.0  0.14588  0.84935  0.01476  1.0000
  C   C1458     1.0  0.44795  0.86219  0.19779  1.0000
  H   H2543     1.0  0.11941  0.85327  0.05079  1.0000
  H   H2544     1.0  0.21012  0.90711  0.10096  1.0000
  H   H2545     1.0  0.14995  0.83683  0.11034  1.0000
  H   H2546     1.0  0.45474  0.95801  0.22968  1.0000
  H   H2547     1.0  0.09077  0.84650  0.07279  1.0000
  S   S332      1.0  0.25488  0.82089  0.01415  1.0000
  H   H2548     1.0  0.14242  0.83555  0.01046  1.0000
  H   H2549     1.0  0.13235  0.86208  0.01369  1.0000
  H   H2550     1.0  0.47282  0.79859  0.34460  1.0000
  H   H2551     1.0  0.36273  0.94496  0.18285  1.0000
  H   H2552     1.0  0.47511  0.90613  0.21519  1.0000
  H   H2553     1.0  0.40355  0.88512  0.24245  1.0000
  C   C1459     1.0  0.32535  0.91804  0.06559  1.0000
  H   H2554     1.0  0.40415  0.96773  0.16091  1.0000
  C   C1460     1.0  0.38624  0.81739  0.39148  1.0000
  H   H2555     1.0  0.36666  0.93774  0.22017  1.0000
  S   S333      1.0  0.01919  0.79009  0.11535  1.0000
  N   N83       1.0  0.38016  0.84061  0.38605  1.0000
  C   C1461     1.0  0.28607  0.85839  0.27932  1.0000
  H   H2556     1.0  0.07016  0.85549  0.01713  1.0000
  H   H2557     1.0  0.43056  0.96004  0.18319  1.0000
  C   C1462     1.0  0.40192  0.79560  0.01404  1.0000
  H   H2558     1.0  0.37331  0.87517  0.35095  1.0000
  H   H2559     1.0  0.40836  0.94365  0.21512  1.0000
  H   H2560     1.0  0.08461  0.84044  0.99781  1.0000
  C   C1463     1.0  0.08610  0.82492  0.02951  1.0000
  H   H2561     1.0  0.37859  0.81423  0.21965  1.0000
  H   H2562     1.0  0.39108  0.91826  0.28179  1.0000
  S   S334      1.0  0.34830  0.81296  0.00567  1.0000
  H   H2563     1.0  0.08607  0.83014  0.04404  1.0000
  C   C1464     1.0  0.08454  0.84438  0.01296  1.0000
  H   H2564     1.0  0.34116  0.90247  0.10117  1.0000
  H   H2565     1.0  0.36693  0.91452  0.04779  1.0000
  H   H2566     1.0  0.33453  0.82114  0.26565  1.0000
  H   H2567     1.0  0.17415  0.93645  0.12074  1.0000
  C   C1465     1.0  0.31810  0.88410  0.10127  1.0000
  H   H2568     1.0  0.12807  0.86610  0.07617  1.0000
  H   H2569     1.0  0.48237  0.92775  0.22180  1.0000
  H   H2570     1.0  0.38200  0.80975  0.38021  1.0000
  H   H2571     1.0  0.98927  0.87272  0.15050  1.0000
  H   H2572     1.0  0.35564  0.83777  0.37131  1.0000
  H   H2573     1.0  0.31181  0.91234  0.06311  1.0000
  H   H2574     1.0  0.30323  0.95862  0.05755  1.0000
  H   H2575     1.0  0.23288  0.95758  0.28952  1.0000
  C   C1466     1.0  0.34883  0.82995  0.21265  1.0000
  H   H2576     1.0  0.36322  0.87355  0.26968  1.0000
  H   H2577     1.0  0.24303  0.86651  0.99214  1.0000
  C   C1467     1.0  0.38782  0.84863  0.25893  1.0000
  H   H2578     1.0  0.38448  0.87763  0.06136  1.0000
  H   H2579     1.0  0.40210  0.84814  0.24689  1.0000
  H   H2580     1.0  0.39707  0.88269  0.27022  1.0000
  C   C1468     1.0  0.39300  0.84754  0.36539  1.0000
  C   C1469     1.0  0.38385  0.85191  0.40166  1.0000
  C   C1470     1.0  0.41469  0.96762  0.18919  1.0000
  C   C1471     1.0  0.38847  0.87099  0.35615  1.0000
  H   H2581     1.0  0.15155  0.79985  0.05231  1.0000
  C   C1472     1.0  0.40477  0.87665  0.33731  1.0000
  H   H2582     1.0  0.39097  0.83889  0.35383  1.0000
  H   H2583     1.0  0.40980  0.84386  0.36625  1.0000
  H   H2584     1.0  0.39996  0.85522  0.39783  1.0000
  H   H2585     1.0  0.37365  0.86741  0.40079  1.0000
  H   H2586     1.0  0.38838  0.88075  0.36750  1.0000
  H   H2587     1.0  0.17513  0.92449  0.14707  1.0000
  C   C1473     1.0  0.35194  0.97781  0.33483  1.0000
  H   H2588     1.0  0.32142  0.82828  0.30189  1.0000
  H   H2589     1.0  0.34855  0.84613  0.27685  1.0000
  H   H2590     1.0  0.42026  0.87420  0.34170  1.0000
  H   H2591     1.0  0.40564  0.86714  0.32547  1.0000
  H   H2592     1.0  0.40057  0.89320  0.33039  1.0000
  H   H2593     1.0  0.31443  0.92666  0.18063  1.0000
  H   H2594     1.0  0.47070  0.79216  0.25516  1.0000
  C   C1474     1.0  0.34230  0.97035  0.10388  1.0000
  H   H2595     1.0  0.15602  0.85791  0.03922  1.0000
  H   H2596     1.0  0.34074  0.94476  0.05156  1.0000
  H   H2597     1.0  0.39579  0.86188  0.43481  1.0000
  H   H2598     1.0  0.22715  0.88077  0.29660  1.0000
  C   C1475     1.0  0.34295  0.88323  0.05776  1.0000
  S   S335      1.0  0.30850  0.79117  0.02875  1.0000
  H   H2599     1.0  0.29172  0.84178  0.27829  1.0000
  H   H2600     1.0  0.35441  0.84305  0.20139  1.0000
  H   H2601     1.0  0.30498  0.89673  0.09802  1.0000
  H   H2602     1.0  0.06041  0.80412  0.07316  1.0000
  H   H2603     1.0  0.34463  0.82418  0.41026  1.0000
  H   H2604     1.0  0.39256  0.96794  0.21774  1.0000
  H   H2605     1.0  0.21823  0.94848  0.31427  1.0000
  H   H2606     1.0  0.24285  0.91205  0.03798  1.0000
  H   H2607     1.0  0.38960  0.80892  0.01756  1.0000
  C   C1476     1.0  0.04077  0.78628  0.02761  1.0000
  H   H2608     1.0  0.36542  0.82733  0.29066  1.0000
  H   H2609     1.0  0.24181  0.90932  0.98320  1.0000
  C   C1477     1.0  0.31974  0.84440  0.39716  1.0000
  H   H2610     1.0  0.31562  0.86058  0.38915  1.0000
  H   H2611     1.0  0.23160  0.91431  0.33411  1.0000
  H   H2612     1.0  0.35397  0.92074  0.18692  1.0000
  H   H2613     1.0  0.06345  0.84766  0.10367  1.0000
  C   C1478     1.0  0.15263  0.79620  0.06888  1.0000
  H   H2614     1.0  0.08040  0.96685  0.01101  1.0000
  H   H2615     1.0  0.12300  0.84877  0.11360  1.0000
  H   H2616     1.0  0.34808  0.81773  0.20420  1.0000
  H   H2617     1.0  0.37966  0.84725  0.45502  1.0000
  H   H2618     1.0  0.32775  0.87797  0.06181  1.0000
  H   H2619     1.0  0.47195  0.87958  0.19658  1.0000
  C   C1479     1.0  0.22253  0.94944  0.98621  1.0000
  H   H2620     1.0  0.18625  0.78692  0.06226  1.0000
  H   H2621     1.0  0.48126  0.84894  0.14230  1.0000
  C   C1480     1.0  0.33000  0.81299  0.29841  1.0000
  C   C1481     1.0  0.31563  0.87742  0.12462  1.0000
  N   N84       1.0  0.06957  0.79187  0.04482  1.0000
  S   S336      1.0  0.48462  0.81936  0.28073  1.0000
  N   N85       1.0  0.23864  0.91791  0.09976  1.0000
  C   C1482     1.0  0.24469  0.93754  0.10215  1.0000
  C   C1483     1.0  0.21532  0.92034  0.10463  1.0000
  C   C1484     1.0  0.24864  0.90000  0.11417  1.0000
  C   C1485     1.0  0.24588  0.91366  0.07807  1.0000
  C   C1486     1.0  0.23995  0.93176  0.06064  1.0000
  C   C1487     1.0  0.26812  0.93862  0.09608  1.0000
  C   C1488     1.0  0.24143  0.87904  0.11630  1.0000
  C   C1489     1.0  0.20518  0.92292  0.12707  1.0000
  C   C1490     1.0  0.24879  0.92579  0.03950  1.0000
  C   C1491     1.0  0.27209  0.95976  0.09766  1.0000
  H   H2622     1.0  0.24019  0.93982  0.11844  1.0000
  H   H2623     1.0  0.23588  0.95133  0.09341  1.0000
  H   H2624     1.0  0.03478  0.80269  0.02146  1.0000
  H   H2625     1.0  0.24640  0.90381  0.12983  1.0000
  H   H2626     1.0  0.26572  0.89709  0.10899  1.0000
  H   H2627     1.0  0.26298  0.90852  0.07494  1.0000
  H   H2628     1.0  0.23932  0.90048  0.07606  1.0000
  H   H2629     1.0  0.24594  0.94579  0.06106  1.0000
  H   H2630     1.0  0.22290  0.93577  0.06192  1.0000
  H   H2631     1.0  0.27700  0.92676  0.10660  1.0000
  H   H2632     1.0  0.27435  0.93609  0.08007  1.0000
  H   H2633     1.0  0.24401  0.87416  0.10116  1.0000
  H   H2634     1.0  0.21182  0.91015  0.13845  1.0000
  H   H2635     1.0  0.20730  0.93781  0.13024  1.0000
  H   H2636     1.0  0.47961  0.82243  0.19722  1.0000
  H   H2637     1.0  0.40780  0.79817  0.99720  1.0000
  H   H2638     1.0  0.11582  0.94746  0.97987  1.0000
  H   H2639     1.0  0.29989  0.91929  0.15243  1.0000
  Fe  Fe169     1.0  0.32594  0.83813  0.99014  1.0000
  H   H2640     1.0  0.31440  0.96408  0.03076  1.0000
  H   H2641     1.0  0.27021  0.85931  0.12359  1.0000
  C   C1492     1.0  0.38270  0.89112  0.06900  1.0000
  H   H2642     1.0  0.31863  0.80318  0.29838  1.0000
  H   H2643     1.0  0.33767  0.93051  0.03311  1.0000
  C   C1493     1.0  0.34443  0.81536  0.27762  1.0000
  H   H2644     1.0  0.20819  0.93415  0.09453  1.0000
  H   H2645     1.0  0.06896  0.96175  0.97963  1.0000
  C   C1494     1.0  0.41500  0.95742  0.24848  1.0000
  H   H2646     1.0  0.38377  0.96958  0.18297  1.0000
  C   C1495     1.0  0.31047  0.95149  0.04374  1.0000
  H   H2647     1.0  0.39391  0.82768  0.42701  1.0000
  C   C1496     1.0  0.44497  0.95481  0.21976  1.0000
  C   C1497     1.0  0.00909  0.85188  0.00231  1.0000
  H   H2648     1.0  0.10113  0.81481  0.02517  1.0000
  C   C1498     1.0  0.48553  0.78499  0.22487  1.0000
  H   H2649     1.0  0.04272  0.84688  0.99913  1.0000
  C   C1499     1.0  0.35103  0.97886  0.11645  1.0000
  H   H2650     1.0  0.00371  0.93022  0.09794  1.0000
  H   H2651     1.0  0.30308  0.97916  0.21770  1.0000
  H   H2652     1.0  0.41246  0.92525  0.24709  1.0000
  H   H2653     1.0  0.39138  0.94372  0.28597  1.0000
  C   C1500     1.0  0.41335  0.78674  0.40314  1.0000
  H   H2654     1.0  0.44618  0.92337  0.23765  1.0000
  C   C1501     1.0  0.15088  0.84426  0.03650  1.0000
  C   C1502     1.0  0.26519  0.87871  0.33949  1.0000
  H   H2655     1.0  0.40091  0.94508  0.18015  1.0000
  C   C1503     1.0  0.25532  0.88321  0.36145  1.0000
  C   C1504     1.0  0.27071  0.87476  0.37626  1.0000
  H   H2656     1.0  0.28024  0.88441  0.33503  1.0000
  H   H2657     1.0  0.26903  0.86155  0.34119  1.0000
  H   H2658     1.0  0.28433  0.85287  0.31185  1.0000
  H   H2659     1.0  0.29969  0.86628  0.27603  1.0000
  H   H2660     1.0  0.24159  0.87562  0.36772  1.0000
  H   H2661     1.0  0.25046  0.90004  0.36160  1.0000
  H   H2662     1.0  0.05347  0.82365  0.03868  1.0000
  H   H2663     1.0  0.25130  0.86582  0.14585  1.0000
  H   H2664     1.0  0.27555  0.85772  0.37737  1.0000
  H   H2665     1.0  0.28464  0.88225  0.37100  1.0000
  H   H2666     1.0  0.26334  0.87807  0.39184  1.0000
  C   C1505     1.0  0.19332  0.97690  0.09261  1.0000
  C   C1506     1.0  0.33017  0.93607  0.04764  1.0000
  H   H2667     1.0  0.19787  0.93800  0.97871  1.0000
  H   H2668     1.0  0.26522  0.97204  0.08598  1.0000
  H   H2669     1.0  0.36266  0.92012  0.07279  1.0000
  S   S337      1.0  0.30983  0.81643  0.98094  1.0000
  C   C1507     1.0  0.46975  0.85634  0.22410  1.0000
  H   H2670     1.0  0.29829  0.93843  0.12930  1.0000
  C   C1508     1.0  0.30666  0.94921  0.15392  1.0000
  H   H2671     1.0  0.33364  0.89989  0.02872  1.0000
  H   H2672     1.0  0.00815  0.83651  0.01215  1.0000
  H   H2673     1.0  0.21444  0.96940  0.00914  1.0000
  C   C1509     1.0  0.23335  0.87759  0.32812  1.0000
  C   C1510     1.0  0.36342  0.90749  0.06425  1.0000
  H   H2674     1.0  0.20254  0.97971  0.98674  1.0000
  H   H2675     1.0  0.25845  0.92563  0.29170  1.0000
  H   H2676     1.0  0.08249  0.93584  0.98027  1.0000
  H   H2677     1.0  0.34058  0.85088  0.41378  1.0000
  H   H2678     1.0  0.09116  0.93957  0.01365  1.0000
  C   C1511     1.0  0.38109  0.85565  0.43886  1.0000
  C   C1512     1.0  0.26547  0.88350  0.30267  1.0000
  C   C1513     1.0  0.38104  0.84087  0.42454  1.0000
  H   H2679     1.0  0.22354  0.88153  0.34272  1.0000
  Fe  Fe170     1.0  0.33048  0.79121  0.99847  1.0000
  H   H2680     1.0  0.28764  0.95137  0.19568  1.0000
  H   H2681     1.0  0.41522  0.92503  0.28317  1.0000
  H   H2682     1.0  0.38345  0.79929  0.25675  1.0000
  H   H2683     1.0  0.17875  0.90848  0.12786  1.0000
  H   H2684     1.0  0.31305  0.96197  0.14277  1.0000
  C   C1514     1.0  0.34133  0.84058  0.40270  1.0000
  H   H2685     1.0  0.16407  0.83112  0.03686  1.0000
  H   H2686     1.0  0.11778  0.82003  0.10401  1.0000
  C   C1515     1.0  0.20714  0.96533  0.99761  1.0000
  H   H2687     1.0  0.28902  0.95967  0.09486  1.0000
  H   H2688     1.0  0.26541  0.96358  0.11322  1.0000
  H   H2689     1.0  0.24406  0.95365  0.31228  1.0000
  H   H2690     1.0  0.16776  0.82137  0.07021  1.0000
  C   C1516     1.0  0.36700  0.83883  0.23809  1.0000
  C   C1517     1.0  0.11541  0.82626  0.08788  1.0000
  H   H2691     1.0  0.35120  0.87707  0.09565  1.0000
  H   H2692     1.0  0.24030  0.82074  0.97871  1.0000
  H   H2693     1.0  0.33662  0.86149  0.03020  1.0000
  H   H2694     1.0  0.41597  0.88828  0.06562  1.0000
  H   H2695     1.0  0.35873  0.91295  0.22276  1.0000
  H   H2696     1.0  0.22742  0.93600  0.99792  1.0000
  C   C1518     1.0  0.45918  0.84047  0.23515  1.0000
  H   H2697     1.0  0.13937  0.78866  0.07743  1.0000
  H   H2698     1.0  0.40354  0.96987  0.25504  1.0000
  C   C1519     1.0  0.40353  0.80468  0.27522  1.0000
  C   C1520     1.0  0.36352  0.82136  0.22805  1.0000
  C   C1521     1.0  0.11323  0.89279  0.97939  1.0000
  C   C1522     1.0  0.15288  0.81586  0.07736  1.0000
  H   H2699     1.0  0.33298  0.83548  0.22067  1.0000
  C   C1523     1.0  0.02898  0.85818  0.00452  1.0000
  C   C1524     1.0  0.33935  0.89105  0.09215  1.0000
  H   H2700     1.0  0.12552  0.82698  0.04814  1.0000
  H   H2701     1.0  0.16003  0.87173  0.10067  1.0000
  Fe  Fe171     1.0  0.48481  0.83351  0.30767  1.0000
  C   C1525     1.0  0.39115  0.81216  0.25720  1.0000
  H   H2702     1.0  0.38826  0.94293  0.24972  1.0000
  Fe  Fe172     1.0  0.28921  0.81801  0.01166  1.0000
  H   H2703     1.0  0.35695  0.80886  0.23930  1.0000
  H   H2704     1.0  0.39309  0.84547  0.27402  1.0000
  H   H2705     1.0  0.37746  0.84756  0.22577  1.0000
  C   C1526     1.0  0.40964  0.80916  0.39193  1.0000
  H   H2706     1.0  0.03045  0.87383  0.99544  1.0000
  C   C1527     1.0  0.32931  0.97390  0.17213  1.0000
  C   C1528     1.0  0.35774  0.84574  0.38337  1.0000
  H   H2707     1.0  0.33221  0.95454  0.21253  1.0000
  H   H2708     1.0  0.36545  0.96882  0.32595  1.0000
  C   C1529     1.0  0.29716  0.96353  0.19416  1.0000
  H   H2709     1.0  0.25717  0.89043  0.28962  1.0000
  H   H2710     1.0  0.32789  0.86409  0.12878  1.0000
  N   N86       1.0  0.37595  0.83230  0.25771  1.0000
  H   H2711     1.0  0.25803  0.91686  0.32793  1.0000
  C   C1530     1.0  0.99546  0.92085  0.11157  1.0000
  C   C1531     1.0  0.35411  0.93396  0.19423  1.0000
  H   H2712     1.0  0.37406  0.97329  0.13590  1.0000
  C   C1532     1.0  0.06764  0.81347  0.03208  1.0000
  H   H2713     1.0  0.35309  0.86256  0.37783  1.0000
  C   C1533     1.0  0.35891  0.83088  0.27629  1.0000
  H   H2714     1.0  0.24240  0.78707  0.99894  1.0000
  H   H2715     1.0  0.45147  0.96191  0.20390  1.0000
  C   C1534     1.0  0.07730  0.83516  0.10363  1.0000
  C   C1535     1.0  0.34997  0.86973  0.02421  1.0000
  C   C1536     1.0  0.14417  0.86972  0.10880  1.0000
  H   H2716     1.0  0.35208  0.84987  0.24061  1.0000
  H   H2717     1.0  0.24765  0.84719  0.13189  1.0000
  H   H2718     1.0  0.21854  0.80902  0.98032  1.0000
  C   C1537     1.0  0.09539  0.84285  0.08813  1.0000
  H   H2719     1.0  0.14365  0.86837  0.12556  1.0000
  C   C1538     1.0  0.37604  0.87137  0.25647  1.0000
  C   C1539     1.0  0.24316  0.92528  0.30188  1.0000
  H   H2720     1.0  0.41440  0.81527  0.27455  1.0000
  C   C1540     1.0  0.13863  0.85029  0.10455  1.0000
  C   C1541     1.0  0.13906  0.85186  0.08122  1.0000
  N   N87       1.0  0.13470  0.83327  0.07478  1.0000
  H   H2721     1.0  0.20815  0.85378  0.31877  1.0000
  H   H2722     1.0  0.39311  0.80370  0.29039  1.0000
  H   H2723     1.0  0.99111  0.81805  0.00123  1.0000
  C   C1542     1.0  0.25389  0.87104  0.97777  1.0000
  H   H2724     1.0  0.33575  0.93600  0.16313  1.0000
  H   H2725     1.0  0.37738  0.81123  0.40654  1.0000
  H   H2726     1.0  0.35423  0.86922  0.06252  1.0000
  H   H2727     1.0  0.08102  0.83093  0.11940  1.0000
  H   H2728     1.0  0.29022  0.95494  0.16012  1.0000
  H   H2729     1.0  0.35320  0.79971  0.27579  1.0000
  H   H2730     1.0  0.31965  0.92561  0.07942  1.0000
  H   H2731     1.0  0.21308  0.84301  0.02023  1.0000
  C   C1543     1.0  0.46389  0.86731  0.20541  1.0000
  H   H2732     1.0  0.11196  0.81314  0.08237  1.0000
  N   N88       1.0  0.31953  0.95605  0.18508  1.0000
  S   S338      1.0  0.34821  0.97758  0.23725  1.0000
  H   H2733     1.0  0.35117  0.87440  0.00727  1.0000
  H   H2734     1.0  0.07334  0.82166  0.09930  1.0000
  H   H2735     1.0  0.15391  0.81066  0.09393  1.0000
  C   C1544     1.0  0.24604  0.91093  0.32276  1.0000
  H   H2736     1.0  0.32327  0.92582  0.13548  1.0000
  C   C1545     1.0  0.23398  0.94758  0.30477  1.0000
  H   H2737     1.0  0.02870  0.85856  0.02094  1.0000
  H   H2738     1.0  0.40267  0.81350  0.24261  1.0000
  H   H2739     1.0  0.36132  0.89574  0.02807  1.0000
  C   C1546     1.0  0.34713  0.88889  0.03401  1.0000
  H   H2740     1.0  0.21221  0.85285  0.98539  1.0000
  H   H2741     1.0  0.34379  0.96796  0.16224  1.0000
  H   H2742     1.0  0.30036  0.87263  0.13089  1.0000
  C   C1547     1.0  0.44937  0.93100  0.22132  1.0000
  H   H2743     1.0  0.29919  0.94376  0.03970  1.0000
  S   S339      1.0  0.27681  0.97332  0.32354  1.0000
  H   H2744     1.0  0.15471  0.85495  0.07333  1.0000
  H   H2745     1.0  0.09745  0.85736  0.09213  1.0000
  H   H2746     1.0  0.15930  0.85451  0.00358  1.0000
  H   H2747     1.0  0.36651  0.83456  0.42960  1.0000
  C   C1548     1.0  0.40887  0.96040  0.21279  1.0000
  C   C1549     1.0  0.39062  0.88624  0.25576  1.0000
  H   H2748     1.0  0.36950  0.87612  0.24209  1.0000
  H   H2749     1.0  0.47166  0.79309  0.21809  1.0000
  N   N89       1.0  0.25220  0.88779  0.32292  1.0000
  H   H2750     1.0  0.19302  0.95901  0.00581  1.0000
  H   H2751     1.0  0.26598  0.92227  0.03707  1.0000
  H   H2752     1.0  0.13295  0.88368  0.10370  1.0000
  H   H2753     1.0  0.38220  0.91835  0.20579  1.0000
  H   H2754     1.0  0.26076  0.85173  0.30361  1.0000
  C   C1550     1.0  0.36609  0.92530  0.21192  1.0000
  C   C1551     1.0  0.40372  0.93848  0.25447  1.0000
  H   H2755     1.0  0.32334  0.93206  0.21149  1.0000
  H   H2756     1.0  0.40507  0.90541  0.04465  1.0000
  S   S340      1.0  0.32816  0.81541  0.06708  1.0000
  C   C1552     1.0  0.31974  0.94100  0.17124  1.0000
  Fe  Fe173     1.0  0.32452  0.81526  0.03435  1.0000
  C   C1553     1.0  0.25344  0.86187  0.13029  1.0000
  H   H2757     1.0  0.22473  0.88006  0.12302  1.0000
  H   H2758     1.0  0.25936  0.97023  0.22072  1.0000
  H   H2759     1.0  0.44000  0.92589  0.21231  1.0000
  C   C1554     1.0  0.29273  0.96911  0.21598  1.0000
  H   H2760     1.0  0.42790  0.95430  0.25734  1.0000
  S   S341      1.0  0.19311  0.97323  0.05227  1.0000
  H   H2761     1.0  0.27623  0.86533  0.26742  1.0000
  H   H2762     1.0  0.19220  0.87290  0.33348  1.0000
  C   C1555     1.0  0.20153  0.87050  0.31821  1.0000
  H   H2763     1.0  0.19108  0.87522  0.30666  1.0000
  C   C1556     1.0  0.39992  0.96213  0.17770  1.0000
  H   H2764     1.0  0.40655  0.78573  0.41973  1.0000
  H   H2765     1.0  0.29016  0.97715  0.18362  1.0000
  H   H2766     1.0  0.00917  0.81240  0.97915  1.0000
  C   C1557     1.0  0.47936  0.83566  0.15513  1.0000
  H   H2767     1.0  0.47623  0.92960  0.19651  1.0000
  C   C1558     1.0  0.09442  0.95534  0.00674  1.0000
  N   N90       1.0  0.99108  0.84349  0.97538  1.0000
  C   C1559     1.0  0.99319  0.82061  0.98414  1.0000
  H   H2768     1.0  0.48000  0.82170  0.14852  1.0000
  H   H2769     1.0  0.10295  0.97395  0.97755  1.0000
  C   C1560     1.0  0.20267  0.98049  0.07188  1.0000
  H   H2770     1.0  0.98931  0.81824  0.25418  1.0000
  H   H2771     1.0  0.09202  0.78393  0.10098  1.0000
  C   C1561     1.0  0.04907  0.78476  0.04769  1.0000
  H   H2772     1.0  0.99202  0.81896  0.15006  1.0000
  C   C1562     1.0  0.47217  0.92328  0.21315  1.0000
  H   H2773     1.0  0.19210  0.84029  0.98196  1.0000
  C   C1563     1.0  0.10067  0.95773  0.98332  1.0000
  H   H2774     1.0  0.99588  0.86325  0.00847  1.0000
  H   H2775     1.0  0.34578  0.98092  0.19405  1.0000
  H   H2776     1.0  0.99301  0.90666  0.10714  1.0000
  C   C1564     1.0  0.27039  0.98016  0.22138  1.0000
  H   H2777     1.0  0.10723  0.95791  0.01341  1.0000
  H   H2778     1.0  0.41487  0.79500  0.02213  1.0000
  C   C1565     1.0  0.41658  0.78316  0.27412  1.0000
  S   S342      1.0  0.98860  0.87779  0.07361  1.0000
  H   H2779     1.0  0.19259  0.98205  0.12328  1.0000
  H   H2780     1.0  0.37159  0.78492  0.04643  1.0000
  H   H2781     1.0  0.98890  0.79006  0.09088  1.0000
  H   H2782     1.0  0.08227  0.79175  0.91579  1.0000
  Fe  Fe174     1.0  0.44998  0.83048  0.80496  1.0000
  C   C1566     1.0  0.99387  0.80704  0.58495  1.0000
  S   S343      1.0  0.46675  0.84736  0.81951  1.0000
  Fe  Fe175     1.0  0.40838  0.83431  0.79176  1.0000
  C   C1567     1.0  0.04398  0.85296  0.53379  1.0000
  S   S344      1.0  0.37979  0.85853  0.78867  1.0000
  H   H2783     1.0  0.36043  0.92296  0.84794  1.0000
  H   H2784     1.0  0.41778  0.89375  0.81659  1.0000
  Fe  Fe176     1.0  0.44775  0.81270  0.76819  1.0000
  N   N91       1.0  0.46798  0.89267  0.72794  1.0000
  S   S345      1.0  0.41934  0.82314  0.82185  1.0000
  S   S346      1.0  0.43821  0.84460  0.77572  1.0000
  Fe  Fe177     1.0  0.23768  0.88179  0.89203  1.0000
  S   S347      1.0  0.24109  0.91508  0.88458  1.0000
  S   S348      1.0  0.21200  0.87536  0.91828  1.0000
  Fe  Fe178     1.0  0.27525  0.86928  0.86017  1.0000
  S   S349      1.0  0.28095  0.90198  0.84994  1.0000
  S   S350      1.0  0.29688  0.84122  0.84954  1.0000
  Fe  Fe179     1.0  0.27482  0.90303  0.88365  1.0000
  S   S351      1.0  0.29384  0.91856  0.89727  1.0000
  Fe  Fe180     1.0  0.24644  0.91057  0.85185  1.0000
  S   S352      1.0  0.23044  0.93432  0.82851  1.0000
  S   S353      1.0  0.27108  0.86996  0.89391  1.0000
  S   S354      1.0  0.24099  0.87772  0.85938  1.0000
  H   H2785     1.0  0.02229  0.83147  0.90796  1.0000
  H   H2786     1.0  0.05407  0.86483  0.52943  1.0000
  H   H2787     1.0  0.00873  0.85721  0.91055  1.0000
  H   H2788     1.0  0.99947  0.82861  0.77262  1.0000
  H   H2789     1.0  0.03916  0.88786  0.63642  1.0000
  S   S355      1.0  0.99610  0.87973  0.72355  1.0000
  C   C1568     1.0  0.04527  0.88798  0.67620  1.0000
  C   C1569     1.0  0.01088  0.88098  0.65724  1.0000
  S   S356      1.0  0.09960  0.79960  0.56693  1.0000
  C   C1570     1.0  0.32468  0.88017  0.95067  1.0000
  H   H2790     1.0  0.05788  0.92193  0.68526  1.0000
  Fe  Fe181     1.0  0.14065  0.94357  0.58890  1.0000
  S   S357      1.0  0.11358  0.93963  0.57620  1.0000
  C   C1571     1.0  0.23069  0.81659  0.96920  1.0000
  Fe  Fe182     1.0  0.13536  0.90679  0.62265  1.0000
  S   S358      1.0  0.10813  0.89953  0.61310  1.0000
  S   S359      1.0  0.14946  0.88818  0.64959  1.0000
  Fe  Fe183     1.0  0.12584  0.90538  0.58095  1.0000
  S   S360      1.0  0.12271  0.88936  0.55539  1.0000
  Fe  Fe184     1.0  0.09742  0.93386  0.60885  1.0000
  H   H2791     1.0  0.43486  0.79960  0.85798  1.0000
  S   S361      1.0  0.15457  0.90976  0.59074  1.0000
  S   S362      1.0  0.12306  0.94077  0.62141  1.0000
  Fe  Fe185     1.0  0.04699  0.90109  0.75791  1.0000
  S   S363      1.0  0.06696  0.87268  0.77172  1.0000
  S   S364      1.0  0.05750  0.93159  0.75452  1.0000
  Fe  Fe186     1.0  0.02002  0.87577  0.74454  1.0000
  S   S365      1.0  0.03807  0.84570  0.75832  1.0000
  Fe  Fe187     1.0  0.03706  0.86143  0.78505  1.0000
  S   S366      1.0  0.03285  0.84514  0.81838  1.0000
  Fe  Fe188     1.0  0.06608  0.86023  0.74381  1.0000
  S   S367      1.0  0.09458  0.84251  0.72691  1.0000
  S   S368      1.0  0.01661  0.89074  0.77255  1.0000
  S   S369      1.0  0.04832  0.88947  0.72886  1.0000
  H   H2792     1.0  0.37981  0.89716  0.82066  1.0000
  S   S370      1.0  0.06172  0.86472  0.94271  1.0000
  Fe  Fe189     1.0  0.11646  0.83964  0.92006  1.0000
  S   S371      1.0  0.10605  0.87416  0.91499  1.0000
  S   S372      1.0  0.14786  0.82518  0.90510  1.0000
  Fe  Fe190     1.0  0.09230  0.86861  0.94867  1.0000
  H   H2793     1.0  0.10914  0.88388  0.84388  1.0000
  Fe  Fe191     1.0  0.07666  0.86685  0.90947  1.0000
  S   S373      1.0  0.06089  0.88526  0.88311  1.0000
  S   S374      1.0  0.10490  0.83445  0.95420  1.0000
  S   S375      1.0  0.08822  0.83292  0.91199  1.0000
  C   C1572     1.0  0.37984  0.91912  0.90598  1.0000
  H   H2794     1.0  0.07652  0.95359  0.89035  1.0000
  H   H2795     1.0  0.12879  0.94262  0.83491  1.0000
  H   H2796     1.0  0.13460  0.88313  0.95321  1.0000
  C   C1573     1.0  0.04173  0.85593  0.83598  1.0000
  C   C1574     1.0  0.04481  0.87648  0.83135  1.0000
  C   C1575     1.0  0.05071  0.88517  0.84594  1.0000
  C   C1576     1.0  0.05426  0.87328  0.86503  1.0000
  C   C1577     1.0  0.05167  0.85254  0.86953  1.0000
  C   C1578     1.0  0.04514  0.84400  0.85516  1.0000
  H   H2797     1.0  0.04216  0.88582  0.81670  1.0000
  H   H2798     1.0  0.05243  0.90124  0.84245  1.0000
  H   H2799     1.0  0.05418  0.84328  0.88425  1.0000
  H   H2800     1.0  0.04272  0.82812  0.85890  1.0000
  C   C1579     1.0  0.13308  0.87555  0.67002  1.0000
  C   C1580     1.0  0.11257  0.88476  0.67659  1.0000
  C   C1581     1.0  0.10068  0.87501  0.69437  1.0000
  C   C1582     1.0  0.10891  0.85567  0.70493  1.0000
  C   C1583     1.0  0.12917  0.84635  0.69791  1.0000
  C   C1584     1.0  0.14132  0.85643  0.68080  1.0000
  H   H2801     1.0  0.10622  0.89970  0.66848  1.0000
  H   H2802     1.0  0.08534  0.88256  0.70002  1.0000
  H   H2803     1.0  0.13568  0.83147  0.70601  1.0000
  H   H2804     1.0  0.15719  0.84934  0.67586  1.0000
  C   C1585     1.0  0.10552  0.82483  0.56315  1.0000
  C   C1586     1.0  0.10526  0.83864  0.54447  1.0000
  C   C1587     1.0  0.11041  0.85840  0.54236  1.0000
  C   C1588     1.0  0.11577  0.86458  0.55889  1.0000
  C   C1589     1.0  0.11574  0.85085  0.57763  1.0000
  C   C1590     1.0  0.11063  0.83112  0.57972  1.0000
  H   H2805     1.0  0.10150  0.83399  0.53155  1.0000
  H   H2806     1.0  0.11051  0.86887  0.52777  1.0000
  H   H2807     1.0  0.12014  0.85528  0.59032  1.0000
  H   H2808     1.0  0.11104  0.82048  0.59416  1.0000
  H   H2809     1.0  0.03001  0.92691  0.68669  1.0000
  H   H2810     1.0  0.42945  0.88937  0.75842  1.0000
  N   N92       1.0  0.11874  0.91302  0.84220  1.0000
  H   H2811     1.0  0.23606  0.97367  0.87682  1.0000
  H   H2812     1.0  0.16463  0.89388  0.96190  1.0000
  C   C1591     1.0  0.99834  0.88621  0.63986  1.0000
  C   C1592     1.0  0.48281  0.94806  0.70979  1.0000
  H   H2813     1.0  0.31601  0.93554  0.84389  1.0000
  C   C1593     1.0  0.99149  0.84762  0.95247  1.0000
  H   H2814     1.0  0.33763  0.79844  0.94675  1.0000
  H   H2815     1.0  0.35493  0.89879  0.89652  1.0000
  H   H2816     1.0  0.05925  0.83341  0.55786  1.0000
  H   H2817     1.0  0.30518  0.92465  0.66178  1.0000
  H   H2818     1.0  0.20490  0.92071  0.86701  1.0000
  H   H2819     1.0  0.47917  0.95203  0.72546  1.0000
  C   C1594     1.0  0.19470  0.86108  0.91416  1.0000
  C   C1595     1.0  0.20030  0.84827  0.89931  1.0000
  C   C1596     1.0  0.18612  0.83666  0.89688  1.0000
  C   C1597     1.0  0.16627  0.83827  0.90900  1.0000
  C   C1598     1.0  0.16089  0.85088  0.92397  1.0000
  C   C1599     1.0  0.17517  0.86205  0.92667  1.0000
  H   H2820     1.0  0.21551  0.84722  0.88980  1.0000
  H   H2821     1.0  0.19033  0.82690  0.88528  1.0000
  H   H2822     1.0  0.14571  0.85202  0.93352  1.0000
  H   H2823     1.0  0.17099  0.87168  0.93831  1.0000
  C   C1600     1.0  0.30479  0.90382  0.91842  1.0000
  C   C1601     1.0  0.32021  0.91098  0.92449  1.0000
  C   C1602     1.0  0.00589  0.79508  0.57042  1.0000
  H   H2824     1.0  0.32951  0.96498  0.62216  1.0000
  C   C1603     1.0  0.30876  0.87322  0.94512  1.0000
  C   C1604     1.0  0.29888  0.88502  0.92893  1.0000
  H   H2825     1.0  0.32466  0.92560  0.91661  1.0000
  H   H2826     1.0  0.30425  0.85868  0.95311  1.0000
  H   H2827     1.0  0.28665  0.87961  0.92473  1.0000
  C   C1605     1.0  0.35649  0.85314  0.80465  1.0000
  C   C1606     1.0  0.34021  0.86958  0.80825  1.0000
  C   C1607     1.0  0.32183  0.86599  0.82178  1.0000
  C   C1608     1.0  0.31944  0.84589  0.83160  1.0000
  C   C1609     1.0  0.33541  0.82928  0.82732  1.0000
  C   C1610     1.0  0.35397  0.83290  0.81392  1.0000
  H   H2828     1.0  0.34184  0.88518  0.80060  1.0000
  H   H2829     1.0  0.30939  0.87877  0.82423  1.0000
  H   H2830     1.0  0.33352  0.81362  0.83451  1.0000
  H   H2831     1.0  0.36626  0.82007  0.81069  1.0000
  H   H2832     1.0  0.03316  0.83039  0.55963  1.0000
  H   H2833     1.0  0.07207  0.83291  0.65371  1.0000
  H   H2834     1.0  0.09175  0.90752  0.86498  1.0000
  H   H2835     1.0  0.13026  0.88848  0.82394  1.0000
  C   C1611     1.0  0.13743  0.94839  0.72494  1.0000
  H   H2836     1.0  0.11082  0.80745  0.84062  1.0000
  H   H2837     1.0  0.07583  0.89861  0.57045  1.0000
  H   H2838     1.0  0.02492  0.84014  0.94086  1.0000
  H   H2839     1.0  0.08337  0.80640  0.84620  1.0000
  H   H2840     1.0  0.43989  0.82222  0.86500  1.0000
  C   C1612     1.0  0.05916  0.95855  0.81070  1.0000
  C   C1613     1.0  0.07079  0.96518  0.79154  1.0000
  C   C1614     1.0  0.07068  0.95627  0.77454  1.0000
  C   C1615     1.0  0.05928  0.94049  0.77667  1.0000
  C   C1616     1.0  0.04837  0.93323  0.79600  1.0000
  C   C1617     1.0  0.04822  0.94235  0.81295  1.0000
  H   H2841     1.0  0.22054  0.80903  0.92338  1.0000
  H   H2842     1.0  0.03941  0.92118  0.79773  1.0000
  H   H2843     1.0  0.03916  0.93718  0.82773  1.0000
  H   H2844     1.0  0.28929  0.80406  0.89074  1.0000
  C   C1618     1.0  0.19126  0.95654  0.82615  1.0000
  C   C1619     1.0  0.04520  0.92580  0.67611  1.0000
  C   C1620     1.0  0.38809  0.88396  0.83046  1.0000
  H   H2845     1.0  0.26721  0.82448  0.89341  1.0000
  C   C1621     1.0  0.47217  0.88554  0.74968  1.0000
  H   H2846     1.0  0.02386  0.84168  0.97379  1.0000
  H   H2847     1.0  0.99455  0.80201  0.60111  1.0000
  H   H2848     1.0  0.40993  0.87269  0.74123  1.0000
  H   H2849     1.0  0.06872  0.83023  0.52086  1.0000
  C   C1622     1.0  0.09787  0.93692  0.86798  1.0000
  H   H2850     1.0  0.04286  0.82489  0.52304  1.0000
  C   C1623     1.0  0.18916  0.93289  0.91828  1.0000
  H   H2851     1.0  0.03698  0.94877  0.92637  1.0000
  H   H2852     1.0  0.39851  0.87726  0.85974  1.0000
  H   H2853     1.0  0.32615  0.89739  0.85190  1.0000
  C   C1624     1.0  0.17053  0.96365  0.83462  1.0000
  C   C1625     1.0  0.43770  0.80591  0.87081  1.0000
  H   H2854     1.0  0.25763  0.95172  0.59745  1.0000
  H   H2855     1.0  0.02824  0.86045  0.53075  1.0000
  H   H2856     1.0  0.05877  0.80279  0.62557  1.0000
  H   H2857     1.0  0.38142  0.86990  0.83173  1.0000
  H   H2858     1.0  0.06282  0.90906  0.65265  1.0000
  C   C1626     1.0  0.16264  0.95585  0.85502  1.0000
  H   H2859     1.0  0.48233  0.82622  0.76381  1.0000
  H   H2860     1.0  0.41071  0.87601  0.80387  1.0000
  H   H2861     1.0  0.37019  0.85883  0.87483  1.0000
  C   C1627     1.0  0.38112  0.91413  0.88466  1.0000
  H   H2862     1.0  0.08203  0.80887  0.88255  1.0000
  H   H2863     1.0  0.38955  0.79529  0.87648  1.0000
  H   H2864     1.0  0.23194  0.84754  0.95105  1.0000
  C   C1628     1.0  0.44777  0.88638  0.72745  1.0000
  C   C1629     1.0  0.28622  0.97577  0.59879  1.0000
  C   C1630     1.0  0.45712  0.79319  0.87859  1.0000
  C   C1631     1.0  0.00108  0.87946  0.58587  1.0000
  H   H2865     1.0  0.27159  0.94071  0.57527  1.0000
  C   C1632     1.0  0.15182  0.88657  0.85120  1.0000
  H   H2866     1.0  0.19690  0.86440  0.96572  1.0000
  C   C1633     1.0  0.30299  0.95164  0.63753  1.0000
  H   H2867     1.0  0.02722  0.85558  0.69002  1.0000
  H   H2868     1.0  0.01159  0.81863  0.94462  1.0000
  H   H2869     1.0  0.26959  0.96349  0.94481  1.0000
  H   H2870     1.0  0.05213  0.84507  0.50321  1.0000
  H   H2871     1.0  0.10808  0.83832  0.65123  1.0000
  H   H2872     1.0  0.39513  0.89606  0.74949  1.0000
  H   H2873     1.0  0.08339  0.97022  0.63226  1.0000
  H   H2874     1.0  0.34704  0.89790  0.83067  1.0000
  H   H2875     1.0  0.17713  0.92447  0.92841  1.0000
  C   C1634     1.0  0.35906  0.78903  0.87465  1.0000
  H   H2876     1.0  0.06848  0.94696  0.70889  1.0000
  H   H2877     1.0  0.05823  0.85320  0.70534  1.0000
  H   H2878     1.0  0.14568  0.87198  0.85336  1.0000
  H   H2879     1.0  0.03530  0.82701  0.71926  1.0000
  H   H2880     1.0  0.45972  0.89327  0.76067  1.0000
  H   H2881     1.0  0.16893  0.93358  0.88201  1.0000
  H   H2882     1.0  0.28067  0.94779  0.92518  1.0000
  C   C1635     1.0  0.09725  0.80355  0.87332  1.0000
  C   C1636     1.0  0.11546  0.89634  0.83195  1.0000
  C   C1637     1.0  0.12577  0.93109  0.82681  1.0000
  C   C1638     1.0  0.14586  0.92602  0.81120  1.0000
  C   C1639     1.0  0.10089  0.90355  0.81576  1.0000
  C   C1640     1.0  0.14916  0.94458  0.79404  1.0000
  C   C1641     1.0  0.09910  0.88552  0.80618  1.0000
  H   H2883     1.0  0.08645  0.92830  0.84450  1.0000
  H   H2884     1.0  0.11313  0.93954  0.81823  1.0000
  H   H2885     1.0  0.14555  0.91295  0.80375  1.0000
  H   H2886     1.0  0.08499  0.91002  0.82276  1.0000
  H   H2887     1.0  0.10677  0.91548  0.80306  1.0000
  H   H2888     1.0  0.01772  0.95205  0.94909  1.0000
  H   H2889     1.0  0.16354  0.94038  0.78300  1.0000
  H   H2890     1.0  0.13593  0.94927  0.78557  1.0000
  H   H2891     1.0  0.15089  0.95787  0.80045  1.0000
  H   H2892     1.0  0.08840  0.89126  0.79493  1.0000
  H   H2893     1.0  0.11443  0.87882  0.79797  1.0000
  H   H2894     1.0  0.09270  0.87328  0.81818  1.0000
  H   H2895     1.0  0.07397  0.92683  0.89330  1.0000
  C   C1642     1.0  0.07682  0.94102  0.88195  1.0000
  H   H2896     1.0  0.22105  0.91047  0.93558  1.0000
  H   H2897     1.0  0.01584  0.95460  0.76626  1.0000
  H   H2898     1.0  0.99444  0.83621  0.91438  1.0000
  C   C1643     1.0  0.08390  0.95230  0.97364  1.0000
  H   H2899     1.0  0.34063  0.91768  0.86926  1.0000
  H   H2900     1.0  0.21188  0.83606  0.94673  1.0000
  C   C1644     1.0  0.05097  0.82282  0.71022  1.0000
  H   H2901     1.0  0.06197  0.81643  0.72113  1.0000
  C   C1645     1.0  0.05779  0.84189  0.69573  1.0000
  C   C1646     1.0  0.20392  0.94145  0.83804  1.0000
  C   C1647     1.0  0.13382  0.90426  0.85700  1.0000
  C   C1648     1.0  0.07703  0.84691  0.64356  1.0000
  C   C1649     1.0  0.26913  0.80027  0.92059  1.0000
  H   H2902     1.0  0.05685  0.88469  0.68643  1.0000
  N   N93       1.0  0.03618  0.85635  0.57250  1.0000
  H   H2903     1.0  0.10286  0.98019  0.91081  1.0000
  H   H2904     1.0  0.14070  0.91688  0.85986  1.0000
  H   H2905     1.0  0.06443  0.83343  0.59918  1.0000
  C   C1650     1.0  0.20436  0.84944  0.97396  1.0000
  H   H2906     1.0  0.38611  0.83028  0.85696  1.0000
  H   H2907     1.0  0.35008  0.97938  0.59561  1.0000
  H   H2908     1.0  0.10495  0.82817  0.62969  1.0000
  N   N94       1.0  0.08751  0.95547  0.95038  1.0000
  C   C1651     1.0  0.07148  0.94621  0.94447  1.0000
  C   C1652     1.0  0.10910  0.94427  0.94301  1.0000
  C   C1653     1.0  0.26022  0.78814  0.96711  1.0000
  H   H2909     1.0  0.21303  0.94874  0.92062  1.0000
  C   C1654     1.0  0.22006  0.83776  0.95857  1.0000
  H   H2910     1.0  0.34335  0.86790  0.90268  1.0000
  S   S376      1.0  0.46187  0.79914  0.79650  1.0000
  C   C1655     1.0  0.11264  0.93541  0.92283  1.0000
  C   C1656     1.0  0.13556  0.92762  0.91560  1.0000
  C   C1657     1.0  0.11946  0.95741  0.71286  1.0000
  H   H2911     1.0  0.05551  0.81458  0.58936  1.0000
  H   H2912     1.0  0.32555  0.97215  0.57657  1.0000
  H   H2913     1.0  0.00031  0.87256  0.63236  1.0000
  H   H2914     1.0  0.07353  0.94753  0.92758  1.0000
  H   H2915     1.0  0.12079  0.95431  0.94142  1.0000
  H   H2916     1.0  0.11357  0.93054  0.95468  1.0000
  H   H2917     1.0  0.13277  0.93616  0.73796  1.0000
  H   H2918     1.0  0.25396  0.89227  0.94899  1.0000
  H   H2919     1.0  0.32960  0.93285  0.65043  1.0000
  H   H2920     1.0  0.32765  0.88584  0.88593  1.0000
  H   H2921     1.0  0.12918  0.97082  0.74569  1.0000
  H   H2922     1.0  0.26037  0.85716  0.97045  1.0000
  C   C1658     1.0  0.21428  0.79882  0.93747  1.0000
  C   C1659     1.0  0.32644  0.92688  0.83221  1.0000
  S   S377      1.0  0.41681  0.80318  0.78188  1.0000
  H   H2923     1.0  0.08038  0.87872  0.59257  1.0000
  H   H2924     1.0  0.10451  0.92203  0.92549  1.0000
  H   H2925     1.0  0.10690  0.94707  0.91015  1.0000
  H   H2926     1.0  0.13751  0.92076  0.90158  1.0000
  H   H2927     1.0  0.14419  0.94071  0.91180  1.0000
  H   H2928     1.0  0.14214  0.91553  0.92761  1.0000
  C   C1660     1.0  0.03225  0.84278  0.59334  1.0000
  H   H2929     1.0  0.10588  0.96231  0.72449  1.0000
  C   C1661     1.0  0.31612  0.96117  0.61739  1.0000
  C   C1662     1.0  0.21195  0.92163  0.94563  1.0000
  H   H2930     1.0  0.03791  0.89795  0.58071  1.0000
  C   C1663     1.0  0.33797  0.90657  0.84274  1.0000
  H   H2931     1.0  0.09696  0.92971  0.72934  1.0000
  C   C1664     1.0  0.14970  0.89567  0.97189  1.0000
  H   H2932     1.0  0.20825  0.95769  0.95978  1.0000
  N   N95       1.0  0.11418  0.94344  0.70067  1.0000
  C   C1665     1.0  0.13237  0.93623  0.68481  1.0000
  C   C1666     1.0  0.10618  0.92501  0.71479  1.0000
  C   C1667     1.0  0.20430  0.97281  0.60166  1.0000
  H   H2933     1.0  0.39781  0.91014  0.87810  1.0000
  H   H2934     1.0  0.21205  0.96339  0.61385  1.0000
  C   C1668     1.0  0.14146  0.95349  0.66842  1.0000
  H   H2935     1.0  0.37416  0.92832  0.87493  1.0000
  C   C1669     1.0  0.12234  0.90532  0.72042  1.0000
  C   C1670     1.0  0.11263  0.89012  0.73819  1.0000
  H   H2936     1.0  0.00519  0.86779  0.66829  1.0000
  C   C1671     1.0  0.16088  0.94443  0.65448  1.0000
  C   C1672     1.0  0.04525  0.81463  0.62154  1.0000
  H   H2937     1.0  0.12787  0.92572  0.67641  1.0000
  H   H2938     1.0  0.14538  0.92666  0.69212  1.0000
  H   H2939     1.0  0.45903  0.92344  0.73551  1.0000
  H   H2940     1.0  0.09529  0.91947  0.70770  1.0000
  H   H2941     1.0  0.09508  0.94756  0.67741  1.0000
  H   H2942     1.0  0.10920  0.81051  0.87719  1.0000
  C   C1673     1.0  0.46596  0.91595  0.72181  1.0000
  C   C1674     1.0  0.03412  0.94555  0.94348  1.0000
  H   H2943     1.0  0.22810  0.95709  0.86323  1.0000
  C   C1675     1.0  0.04848  0.95539  0.95175  1.0000
  C   C1676     1.0  0.31469  0.93090  0.64710  1.0000
  H   H2944     1.0  0.24867  0.92708  0.93039  1.0000
  H   H2945     1.0  0.05600  0.87809  0.55525  1.0000
  H   H2946     1.0  0.23941  0.95137  0.93790  1.0000
  H   H2947     1.0  0.12813  0.89732  0.70697  1.0000
  H   H2948     1.0  0.13599  0.90871  0.72485  1.0000
  H   H2949     1.0  0.12393  0.87555  0.74097  1.0000
  H   H2950     1.0  0.10800  0.89688  0.75248  1.0000
  H   H2951     1.0  0.09874  0.88629  0.73443  1.0000
  H   H2952     1.0  0.15740  0.93292  0.64667  1.0000
  H   H2953     1.0  0.15172  0.94207  0.71495  1.0000
  C   C1677     1.0  0.99232  0.82047  0.54308  1.0000
  C   C1678     1.0  0.09585  0.81206  0.85071  1.0000
  H   H2954     1.0  0.16668  0.95702  0.64252  1.0000
  H   H2955     1.0  0.17329  0.93674  0.66353  1.0000
  H   H2956     1.0  0.06531  0.90372  0.59608  1.0000
  H   H2957     1.0  0.29982  0.96205  0.64897  1.0000
  H   H2958     1.0  0.00849  0.88789  0.59372  1.0000
  Fe  Fe192     1.0  0.07551  0.83096  0.94564  1.0000
  N   N96       1.0  0.36646  0.89208  0.86574  1.0000
  C   C1679     1.0  0.03438  0.87516  0.64897  1.0000
  H   H2959     1.0  0.26470  0.82309  0.94033  1.0000
  H   H2960     1.0  0.08116  0.86528  0.66494  1.0000
  C   C1680     1.0  0.19554  0.93286  0.85798  1.0000
  C   C1681     1.0  0.04335  0.84224  0.55667  1.0000
  S   S378      1.0  0.05410  0.80861  0.96185  1.0000
  H   H2961     1.0  0.34242  0.90462  0.94479  1.0000
  C   C1682     1.0  0.18747  0.96644  0.59671  1.0000
  C   C1683     1.0  0.33025  0.89912  0.94041  1.0000
  C   C1684     1.0  0.35809  0.87215  0.87009  1.0000
  H   H2962     1.0  0.19946  0.91369  0.95578  1.0000
  H   H2963     1.0  0.04085  0.83916  0.67258  1.0000
  H   H2964     1.0  0.02880  0.95539  0.72804  1.0000
  H   H2965     1.0  0.03623  0.86161  0.64131  1.0000
  H   H2966     1.0  0.16091  0.87918  0.88143  1.0000
  C   C1685     1.0  0.01037  0.83562  0.93957  1.0000
  H   H2967     1.0  0.99488  0.86695  0.59756  1.0000
  H   H2968     1.0  0.17561  0.89645  0.86248  1.0000
  C   C1686     1.0  0.16809  0.88270  0.86496  1.0000
  C   C1687     1.0  0.33485  0.80885  0.93207  1.0000
  H   H2969     1.0  0.10072  0.95176  0.85795  1.0000
  C   C1688     1.0  0.03381  0.97793  0.62423  1.0000
  H   H2970     1.0  0.35430  0.86892  0.85601  1.0000
  H   H2971     1.0  0.14595  0.96475  0.67573  1.0000
  H   H2972     1.0  0.32063  0.85761  0.87227  1.0000
  C   C1689     1.0  0.23561  0.97072  0.86138  1.0000
  H   H2973     1.0  0.18149  0.94647  0.90834  1.0000
  C   C1690     1.0  0.04266  0.85151  0.68038  1.0000
  H   H2974     1.0  0.38624  0.90519  0.91646  1.0000
  C   C1691     1.0  0.24261  0.88801  0.96300  1.0000
  H   H2975     1.0  0.02674  0.85212  0.60574  1.0000
  H   H2976     1.0  0.06418  0.94592  0.87274  1.0000
  C   C1692     1.0  0.06890  0.89169  0.58620  1.0000
  H   H2977     1.0  0.33030  0.80713  0.90215  1.0000
  H   H2978     1.0  0.00680  0.86161  0.56218  1.0000
  H   H2979     1.0  0.18244  0.95220  0.60499  1.0000
  H   H2980     1.0  0.26111  0.93282  0.96984  1.0000
  H   H2981     1.0  0.06780  0.95416  0.56811  1.0000
  C   C1693     1.0  0.21263  0.94303  0.97039  1.0000
  C   C1694     1.0  0.42834  0.89555  0.74205  1.0000
  C   C1695     1.0  0.40869  0.88980  0.73852  1.0000
  H   H2982     1.0  0.39384  0.90395  0.84830  1.0000
  H   H2983     1.0  0.07023  0.84980  0.62938  1.0000
  C   C1696     1.0  0.00494  0.80174  0.54946  1.0000
  S   S379      1.0  0.09085  0.88869  0.97215  1.0000
  H   H2984     1.0  0.03529  0.91479  0.65295  1.0000
  H   H2985     1.0  0.15943  0.92224  0.81913  1.0000
  H   H2986     1.0  0.42629  0.91269  0.73957  1.0000
  H   H2987     1.0  0.31478  0.85249  0.90002  1.0000
  H   H2988     1.0  0.31935  0.78872  0.92237  1.0000
  C   C1697     1.0  0.05243  0.83726  0.51940  1.0000
  H   H2989     1.0  0.40591  0.89634  0.72260  1.0000
  N   N97       1.0  0.24386  0.80179  0.95549  1.0000
  H   H2990     1.0  0.36352  0.92474  0.91271  1.0000
  H   H2991     1.0  0.05084  0.81067  0.70141  1.0000
  C   C1698     1.0  0.33319  0.79625  0.91640  1.0000
  S   S380      1.0  0.13793  0.96629  0.86713  1.0000
  H   H2992     1.0  0.03000  0.88955  0.68670  1.0000
  C   C1699     1.0  0.10057  0.84188  0.63743  1.0000
  H   H2993     1.0  0.07383  0.87960  0.64180  1.0000
  H   H2994     1.0  0.19278  0.79118  0.92163  1.0000
  C   C1700     1.0  0.37359  0.80380  0.87561  1.0000
  C   C1701     1.0  0.36997  0.89577  0.88595  1.0000
  S   S381      1.0  0.46549  0.81025  0.73626  1.0000
  H   H2995     1.0  0.33824  0.83900  0.88683  1.0000
  C   C1702     1.0  0.38732  0.88945  0.85176  1.0000
  C   C1703     1.0  0.37490  0.82050  0.85647  1.0000
  Fe  Fe193     1.0  0.43008  0.79271  0.81111  1.0000
  H   H2996     1.0  0.31685  0.92351  0.82222  1.0000
  H   H2997     1.0  0.01004  0.86719  0.97046  1.0000
  H   H2998     1.0  0.08601  0.96082  0.54476  1.0000
  H   H2999     1.0  0.34376  0.79853  0.87204  1.0000
  C   C1704     1.0  0.09713  0.95588  0.68928  1.0000
  H   H3000     1.0  0.33753  0.93663  0.82243  1.0000
  C   C1705     1.0  0.05088  0.82626  0.59965  1.0000
  H   H3001     1.0  0.10978  0.93170  0.87795  1.0000
  C   C1706     1.0  0.26897  0.95434  0.58295  1.0000
  H   H3002     1.0  0.44389  0.89109  0.71172  1.0000
  H   H3003     1.0  0.02350  0.97049  0.61915  1.0000
  H   H3004     1.0  0.35958  0.83052  0.85554  1.0000
  H   H3005     1.0  0.36794  0.81178  0.88903  1.0000
  C   C1707     1.0  0.33872  0.87107  0.88730  1.0000
  H   H3006     1.0  0.07378  0.83693  0.68775  1.0000
  H   H3007     1.0  0.29990  0.95983  0.57227  1.0000
  C   C1708     1.0  0.07537  0.96114  0.70265  1.0000
  C   C1709     1.0  0.09804  0.92080  0.85459  1.0000
  H   H3008     1.0  0.41976  0.86662  0.82798  1.0000
  H   H3009     1.0  0.38893  0.93148  0.90473  1.0000
  H   H3010     1.0  0.29604  0.94263  0.59673  1.0000
  H   H3011     1.0  0.01935  0.83444  0.59399  1.0000
  H   H3012     1.0  0.34774  0.81772  0.92615  1.0000
  H   H3013     1.0  0.07364  0.92924  0.95062  1.0000
  H   H3014     1.0  0.04325  0.87714  0.60188  1.0000
  H   H3015     1.0  0.28817  0.94877  0.63497  1.0000
  H   H3016     1.0  0.38019  0.81322  0.84255  1.0000
  H   H3017     1.0  0.13008  0.96188  0.65841  1.0000
  S   S382      1.0  0.33843  0.86551  0.96988  1.0000
  H   H3018     1.0  0.10142  0.97093  0.68075  1.0000
  H   H3019     1.0  0.05946  0.96092  0.54354  1.0000
  H   H3020     1.0  0.00322  0.89951  0.62829  1.0000
  H   H3021     1.0  0.99193  0.96974  0.76058  1.0000
  H   H3022     1.0  0.03577  0.98043  0.74967  1.0000
  H   H3023     1.0  0.48651  0.86429  0.71960  1.0000
  C   C1710     1.0  0.14262  0.96502  0.73436  1.0000
  H   H3024     1.0  0.46998  0.95595  0.70132  1.0000
  H   H3025     1.0  0.12284  0.97210  0.70272  1.0000
  C   C1711     1.0  0.06973  0.96435  0.55278  1.0000
  C   C1712     1.0  0.35172  0.91055  0.85678  1.0000
  H   H3026     1.0  0.13353  0.78961  0.93784  1.0000
  S   S383      1.0  0.01866  0.78666  0.53099  1.0000
  C   C1713     1.0  0.17503  0.94012  0.86646  1.0000
  H   H3027     1.0  0.27400  0.97290  0.61244  1.0000
  S   S384      1.0  0.07846  0.78657  0.51683  1.0000
  C   C1714     1.0  0.20135  0.94018  0.93119  1.0000
  S   S385      1.0  0.06299  0.94433  0.61647  1.0000
  H   H3028     1.0  0.28185  0.78954  0.92745  1.0000
  H   H3029     1.0  0.45479  0.92209  0.71097  1.0000
  H   H3030     1.0  0.19951  0.92240  0.90827  1.0000
  C   C1715     1.0  0.32744  0.85394  0.88650  1.0000
  C   C1716     1.0  0.01621  0.87033  0.56784  1.0000
  C   C1717     1.0  0.04742  0.90948  0.66272  1.0000
  H   H3031     1.0  0.10652  0.85511  0.62667  1.0000
  H   H3032     1.0  0.12558  0.89764  0.87237  1.0000
  H   H3033     1.0  0.15975  0.88990  0.83506  1.0000
  H   H3034     1.0  0.99787  0.97637  0.79089  1.0000
  C   C1718     1.0  0.05434  0.96818  0.62483  1.0000
  H   H3035     1.0  0.18995  0.95095  0.94018  1.0000
  C   C1719     1.0  0.27921  0.81389  0.90158  1.0000
  C   C1720     1.0  0.04913  0.88407  0.58590  1.0000
  H   H3036     1.0  0.04613  0.94113  0.66611  1.0000
  N   N98       1.0  0.04819  0.87020  0.66488  1.0000
  C   C1721     1.0  0.07045  0.86626  0.65413  1.0000
  H   H3037     1.0  0.29247  0.94408  0.94757  1.0000
  C   C1722     1.0  0.05306  0.86864  0.57085  1.0000
  H   H3038     1.0  0.31780  0.91948  0.63660  1.0000
  H   H3039     1.0  0.24401  0.82495  0.92740  1.0000
  H   H3040     1.0  0.98934  0.80991  0.79354  1.0000
  H   H3041     1.0  0.26004  0.79113  0.91523  1.0000
  H   H3042     1.0  0.03198  0.80675  0.62269  1.0000
  H   H3043     1.0  0.45922  0.79980  0.89159  1.0000
  N   N99       1.0  0.22556  0.92666  0.95844  1.0000
  H   H3044     1.0  0.04111  0.82541  0.63274  1.0000
  H   H3045     1.0  0.04519  0.98012  0.69982  1.0000
  H   H3046     1.0  0.07920  0.97769  0.78967  1.0000
  S   S386      1.0  0.15664  0.97114  0.57320  1.0000
  H   H3047     1.0  0.18026  0.86935  0.86117  1.0000
  H   H3048     1.0  0.28890  0.82318  0.90593  1.0000
  H   H3049     1.0  0.00363  0.96951  0.72335  1.0000
  H   H3050     1.0  0.07914  0.96181  0.75958  1.0000
  H   H3051     1.0  0.06809  0.85810  0.57233  1.0000
  C   C1723     1.0  0.06047  0.97634  0.68993  1.0000
  C   C1724     1.0  0.00875  0.84048  0.91675  1.0000
  H   H3052     1.0  0.37906  0.88160  0.89399  1.0000
  H   H3053     1.0  0.19763  0.96302  0.81058  1.0000
  C   C1725     1.0  0.24393  0.93466  0.94426  1.0000
  C   C1726     1.0  0.41046  0.87986  0.81911  1.0000
  H   H3054     1.0  0.32299  0.94882  0.60799  1.0000
  H   H3055     1.0  0.14684  0.97824  0.72225  1.0000
  H   H3056     1.0  0.01128  0.97005  0.83014  1.0000
  H   H3057     1.0  0.01963  0.88345  0.55517  1.0000
  C   C1727     1.0  0.25502  0.81357  0.93615  1.0000
  H   H3058     1.0  0.07563  0.97966  0.91285  1.0000
  H   H3059     1.0  0.02428  0.97507  0.79050  1.0000
  H   H3060     1.0  0.36666  0.78460  0.91502  1.0000
  C   C1728     1.0  0.48609  0.83053  0.83175  1.0000
  H   H3061     1.0  0.27324  0.91609  0.95209  1.0000
  H   H3062     1.0  0.23089  0.88140  0.95835  1.0000
  H   H3063     1.0  0.44928  0.86914  0.73103  1.0000
  H   H3064     1.0  0.99158  0.82567  0.52691  1.0000
  H   H3065     1.0  0.20122  0.80799  0.94664  1.0000
  C   C1729     1.0  0.06468  0.78306  0.97143  1.0000
  H   H3066     1.0  0.32022  0.82006  0.93500  1.0000
  H   H3067     1.0  0.99384  0.83367  0.79869  1.0000
  H   H3068     1.0  0.27133  0.79755  0.96897  1.0000
  H   H3069     1.0  0.47061  0.79518  0.86610  1.0000
  H   H3070     1.0  0.03660  0.92850  0.94888  1.0000
  H   H3071     1.0  0.15592  0.95836  0.74250  1.0000
  H   H3072     1.0  0.09216  0.82926  0.84827  1.0000
  H   H3073     1.0  0.04438  0.95225  0.96878  1.0000
  C   C1730     1.0  0.27747  0.94778  0.94198  1.0000
  H   H3074     1.0  0.47870  0.84584  0.85799  1.0000
  H   H3075     1.0  0.11672  0.79280  0.90797  1.0000
  H   H3076     1.0  0.47081  0.87352  0.69034  1.0000
  C   C1731     1.0  0.28948  0.95727  0.58734  1.0000
  C   C1732     1.0  0.48095  0.88432  0.69118  1.0000
  C   C1733     1.0  0.26402  0.93173  0.95338  1.0000
  H   H3077     1.0  0.99887  0.83444  0.73503  1.0000
  H   H3078     1.0  0.16093  0.97564  0.82561  1.0000
  S   S387      1.0  0.05638  0.97140  0.83156  1.0000
  H   H3079     1.0  0.47200  0.86861  0.75444  1.0000
  H   H3080     1.0  0.07601  0.96827  0.71578  1.0000
  H   H3081     1.0  0.47308  0.90028  0.68592  1.0000
  H   H3082     1.0  0.42401  0.80562  0.88338  1.0000
  N   N100      1.0  0.30528  0.97993  0.60460  1.0000
  C   C1734     1.0  0.13277  0.88953  0.96700  1.0000
  H   H3083     1.0  0.99163  0.86432  0.94613  1.0000
  C   C1735     1.0  0.06758  0.97780  0.63153  1.0000
  C   C1736     1.0  0.48474  0.88120  0.71363  1.0000
  H   H3084     1.0  0.00746  0.89459  0.66503  1.0000
  C   C1737     1.0  0.00873  0.96690  0.75470  1.0000
  H   H3085     1.0  0.04401  0.79677  0.92368  1.0000
  H   H3086     1.0  0.05824  0.96945  0.67720  1.0000
  C   C1738     1.0  0.17747  0.97837  0.58079  1.0000
  C   C1739     1.0  0.01208  0.95838  0.73476  1.0000
  H   H3087     1.0  0.09630  0.78784  0.96472  1.0000
  C   C1740     1.0  0.23101  0.78806  0.95080  1.0000
  C   C1741     1.0  0.48820  0.82039  0.73281  1.0000
  C   C1742     1.0  0.23169  0.90707  0.97321  1.0000
  H   H3088     1.0  0.19380  0.98044  0.85787  1.0000
  H   H3089     1.0  0.25176  0.96704  0.85311  1.0000
  C   C1743     1.0  0.48607  0.92463  0.71104  1.0000
  H   H3090     1.0  0.04523  0.97233  0.94618  1.0000
  H   H3091     1.0  0.00628  0.94351  0.73799  1.0000
  H   H3092     1.0  0.48156  0.88859  0.78711  1.0000
  C   C1744     1.0  0.08552  0.97844  0.94234  1.0000
  H   H3093     1.0  0.26227  0.96820  0.57258  1.0000
  C   C1745     1.0  0.98867  0.82673  0.78754  1.0000
  C   C1746     1.0  0.98882  0.84017  0.72376  1.0000
  C   C1747     1.0  0.20515  0.78297  0.93059  1.0000
  H   H3094     1.0  0.64144  0.03123  0.13432  1.0000
  H   H3095     1.0  0.74153  0.11371  0.99735  1.0000
  C   C1748     1.0  0.85042  0.99907  0.22046  1.0000
  H   H3096     1.0  0.80805  0.01044  0.01101  1.0000
  S   S388      1.0  0.50911  0.08908  0.10800  1.0000
  C   C1749     1.0  0.83091  0.11744  0.10556  1.0000
  Fe  Fe194     1.0  0.53027  0.11027  0.08819  1.0000
  S   S389      1.0  0.56001  0.10286  0.06586  1.0000
  H   H3097     1.0  0.96829  0.15613  0.31805  1.0000
  S   S390      1.0  0.52601  0.13053  0.11180  1.0000
  C   C1750     1.0  0.87345  0.99555  0.11798  1.0000
  Fe  Fe195     1.0  0.67366  0.06436  0.06727  1.0000
  S   S391      1.0  0.68439  0.04904  0.03931  1.0000
  S   S392      1.0  0.64607  0.05946  0.09230  1.0000
  Fe  Fe196     1.0  0.70971  0.08732  0.05774  1.0000
  S   S393      1.0  0.72380  0.07391  0.02937  1.0000
  S   S394      1.0  0.72157  0.11133  0.06838  1.0000
  Fe  Fe197     1.0  0.69150  0.08024  0.02293  1.0000
  H   H3098     1.0  0.96860  0.05374  0.30023  1.0000
  Fe  Fe198     1.0  0.71588  0.04394  0.04798  1.0000
  C   C1751     1.0  0.95183  0.11020  0.20164  1.0000
  S   S395      1.0  0.67786  0.09600  0.05001  1.0000
  S   S396      1.0  0.70470  0.05674  0.07724  1.0000
  H   H3099     1.0  0.83494  0.10291  0.26051  1.0000
  Fe  Fe199     1.0  0.90230  0.04203  0.16942  1.0000
  S   S397      1.0  0.87862  0.06747  0.15701  1.0000
  S   S398      1.0  0.89889  0.00923  0.17031  1.0000
  Fe  Fe200     1.0  0.92395  0.07160  0.18309  1.0000
  S   S399      1.0  0.90195  0.09957  0.17079  1.0000
  S   S400      1.0  0.94793  0.06917  0.20360  1.0000
  Fe  Fe201     1.0  0.87705  0.08063  0.18509  1.0000
  S   S401      1.0  0.84575  0.09439  0.20114  1.0000
  Fe  Fe202     1.0  0.90520  0.08405  0.14335  1.0000
  S   S402      1.0  0.90542  0.10205  0.11072  1.0000
  S   S403      1.0  0.89847  0.05364  0.19893  1.0000
  S   S404      1.0  0.92959  0.05748  0.15425  1.0000
  Fe  Fe203     1.0  0.81968  0.12724  0.99779  1.0000
  S   S405      1.0  0.82093  0.09333  0.01002  1.0000
  S   S406      1.0  0.79031  0.15058  0.00133  1.0000
  H   H3100     1.0  0.82178  0.98394  0.26491  1.0000
  H   H3101     1.0  0.86190  0.16062  0.45760  1.0000
  H   H3102     1.0  0.82103  0.09712  0.08939  1.0000
  Fe  Fe204     1.0  0.84982  0.09538  0.02082  1.0000
  S   S407      1.0  0.85457  0.07776  0.05256  1.0000
  H   H3103     1.0  0.72367  0.12453  0.97993  1.0000
  S   S408      1.0  0.84693  0.12978  0.01086  1.0000
  H   H3104     1.0  0.70552  0.04604  0.12628  1.0000
  H   H3105     1.0  0.69844  0.99471  0.05070  1.0000
  H   H3106     1.0  0.63312  0.15551  0.02528  1.0000
  H   H3107     1.0  0.61049  0.00316  0.13542  1.0000
  H   H3108     1.0  0.86468  0.03434  0.32891  1.0000
  S   S409      1.0  0.86281  0.15249  0.40628  1.0000
  S   S410      1.0  0.84573  0.12030  0.37413  1.0000
  H   H3109     1.0  0.65246  0.13706  0.03743  1.0000
  H   H3110     1.0  0.67315  0.17046  0.47041  1.0000
  C   C1752     1.0  0.97330  0.08392  0.22214  1.0000
  H   H3111     1.0  0.75369  0.98618  0.25672  1.0000
  H   H3112     1.0  0.66948  0.00185  0.07907  1.0000
  H   H3113     1.0  0.61328  0.17874  0.04999  1.0000
  Fe  Fe205     1.0  0.81598  0.00969  0.33438  1.0000
  S   S411      1.0  0.79694  0.99702  0.31838  1.0000
  H   H3114     1.0  0.91919  0.00811  0.20940  1.0000
  Fe  Fe206     1.0  0.78620  0.05050  0.33562  1.0000
  S   S412      1.0  0.76406  0.04074  0.32001  1.0000
  S   S413      1.0  0.78041  0.08315  0.34276  1.0000
  Fe  Fe207     1.0  0.76983  0.00961  0.34058  1.0000
  H   H3115     1.0  0.57134  0.16670  0.46897  1.0000
  Fe  Fe208     1.0  0.79300  0.02865  0.29914  1.0000
  S   S414      1.0  0.79588  0.03102  0.26493  1.0000
  S   S415      1.0  0.78933  0.02048  0.35813  1.0000
  S   S416      1.0  0.81448  0.04039  0.31318  1.0000
  C   C1753     1.0  0.82706  0.11052  0.36558  1.0000
  C   C1754     1.0  0.80876  0.12297  0.36025  1.0000
  C   C1755     1.0  0.79466  0.11439  0.35325  1.0000
  C   C1756     1.0  0.79870  0.09334  0.35143  1.0000
  C   C1757     1.0  0.81708  0.08096  0.35658  1.0000
  C   C1758     1.0  0.83110  0.08950  0.36369  1.0000
  H   H3116     1.0  0.80545  0.13916  0.36160  1.0000
  H   H3117     1.0  0.78047  0.12409  0.34932  1.0000
  H   H3118     1.0  0.82032  0.06473  0.35540  1.0000
  H   H3119     1.0  0.84515  0.07974  0.36790  1.0000
  H   H3120     1.0  0.82279  0.04399  0.14000  1.0000
  C   C1759     1.0  0.92319  0.99469  0.22155  1.0000
  H   H3121     1.0  0.57724  0.07976  0.02173  1.0000
  C   C1760     1.0  0.95841  0.01208  0.19043  1.0000
  H   H3122     1.0  0.81965  0.17793  0.99410  1.0000
  C   C1761     1.0  0.63628  0.13991  0.03483  1.0000
  C   C1762     1.0  0.88538  0.17982  0.44503  1.0000
  S   S417      1.0  0.98376  0.11169  0.32319  1.0000
  H   H3123     1.0  0.97852  0.06778  0.22806  1.0000
  H   H3124     1.0  0.94071  0.13587  0.28801  1.0000
  C   C1763     1.0  0.96428  0.12710  0.33800  1.0000
  C   C1764     1.0  0.95988  0.14864  0.33215  1.0000
  C   C1765     1.0  0.94505  0.16058  0.34503  1.0000
  C   C1766     1.0  0.93466  0.15101  0.36372  1.0000
  C   C1767     1.0  0.93847  0.12944  0.36912  1.0000
  C   C1768     1.0  0.95319  0.11751  0.35623  1.0000
  H   H3125     1.0  0.78099  0.10184  0.29010  1.0000
  H   H3126     1.0  0.93060  0.12198  0.38361  1.0000
  C   C1769     1.0  0.67041  0.99214  0.37774  1.0000
  C   C1770     1.0  0.81004  0.04966  0.24939  1.0000
  C   C1771     1.0  0.83172  0.04642  0.24689  1.0000
  C   C1772     1.0  0.84295  0.06007  0.23212  1.0000
  C   C1773     1.0  0.83245  0.07717  0.22016  1.0000
  C   C1774     1.0  0.81080  0.08078  0.22334  1.0000
  C   C1775     1.0  0.79967  0.06689  0.23760  1.0000
  H   H3127     1.0  0.83982  0.03296  0.25577  1.0000
  H   H3128     1.0  0.85966  0.05725  0.22989  1.0000
  H   H3129     1.0  0.80259  0.09402  0.21428  1.0000
  H   H3130     1.0  0.78296  0.06936  0.23935  1.0000
  C   C1776     1.0  0.95824  0.08925  0.20933  1.0000
  H   H3131     1.0  0.94033  0.11459  0.19173  1.0000
  C   C1777     1.0  0.92238  0.00247  0.24172  1.0000
  C   C1778     1.0  0.89244  0.09459  0.09393  1.0000
  C   C1779     1.0  0.88462  0.07609  0.09918  1.0000
  C   C1780     1.0  0.87340  0.07103  0.08614  1.0000
  C   C1781     1.0  0.87002  0.08428  0.06761  1.0000
  C   C1782     1.0  0.87827  0.10256  0.06203  1.0000
  C   C1783     1.0  0.88941  0.10769  0.07518  1.0000
  H   H3132     1.0  0.88713  0.06568  0.11333  1.0000
  H   H3133     1.0  0.86719  0.05679  0.09052  1.0000
  H   H3134     1.0  0.87584  0.11287  0.04776  1.0000
  H   H3135     1.0  0.89552  0.12197  0.07091  1.0000
  H   H3136     1.0  0.84592  0.00870  0.29993  1.0000
  H   H3137     1.0  0.74173  0.05271  0.98285  1.0000
  C   C1784     1.0  0.88466  0.01178  0.11428  1.0000
  C   C1785     1.0  0.89165  0.01686  0.13046  1.0000
  C   C1786     1.0  0.88774  0.00548  0.15034  1.0000
  H   H3138     1.0  0.66194  0.00828  0.37392  1.0000
  Fe  Fe209     1.0  0.84824  0.15236  0.37904  1.0000
  H   H3139     1.0  0.88836  0.02014  0.09878  1.0000
  H   H3140     1.0  0.90075  0.02902  0.12737  1.0000
  C   C1787     1.0  0.86710  0.98828  0.28152  1.0000
  H   H3141     1.0  0.58985  0.10816  0.99577  1.0000
  C   C1788     1.0  0.74073  0.12211  0.04972  1.0000
  C   C1789     1.0  0.74275  0.14264  0.04869  1.0000
  C   C1790     1.0  0.75778  0.15150  0.03358  1.0000
  C   C1791     1.0  0.77116  0.13965  0.01981  1.0000
  C   C1792     1.0  0.76927  0.11908  0.02099  1.0000
  C   C1793     1.0  0.75409  0.11032  0.03592  1.0000
  H   H3142     1.0  0.73249  0.15178  0.05940  1.0000
  H   H3143     1.0  0.75919  0.16741  0.03273  1.0000
  H   H3144     1.0  0.77903  0.11008  0.00997  1.0000
  H   H3145     1.0  0.75288  0.09441  0.03683  1.0000
  H   H3146     1.0  0.93818  0.07643  0.25497  1.0000
  H   H3147     1.0  0.81828  0.00507  0.23388  1.0000
  H   H3148     1.0  0.83157  0.17114  0.02752  1.0000
  H   H3149     1.0  0.62214  0.07971  0.98960  1.0000
  H   H3150     1.0  0.88523  0.15192  0.46849  1.0000
  Fe  Fe210     1.0  0.49984  0.14922  0.09629  1.0000
  C   C1794     1.0  0.65138  0.08741  0.99102  1.0000
  H   H3151     1.0  0.85102  0.01692  0.18949  1.0000
  H   H3152     1.0  0.65327  0.07678  0.00525  1.0000
  Fe  Fe211     1.0  0.86537  0.12222  0.98073  1.0000
  H   H3153     1.0  0.95572  0.14163  0.20016  1.0000
  C   C1795     1.0  0.75019  0.98885  0.09987  1.0000
  H   H3154     1.0  0.64393  0.12722  0.00674  1.0000
  C   C1796     1.0  0.58354  0.09035  0.07381  1.0000
  C   C1797     1.0  0.58487  0.08311  0.09457  1.0000
  C   C1798     1.0  0.60413  0.07350  0.10022  1.0000
  C   C1799     1.0  0.62202  0.07120  0.08513  1.0000
  C   C1800     1.0  0.62064  0.07835  0.06443  1.0000
  C   C1801     1.0  0.60145  0.08785  0.05879  1.0000
  H   H3155     1.0  0.57110  0.08493  0.10622  1.0000
  H   H3156     1.0  0.60516  0.06800  0.11629  1.0000
  H   H3157     1.0  0.63433  0.07632  0.05274  1.0000
  H   H3158     1.0  0.60051  0.09320  0.04271  1.0000
  H   H3159     1.0  0.80013  0.11603  0.09988  1.0000
  C   C1802     1.0  0.87430  0.09704  0.24603  1.0000
  H   H3160     1.0  0.55724  0.17991  0.00195  1.0000
  C   C1803     1.0  0.96060  0.12552  0.20646  1.0000
  H   H3161     1.0  0.88132  0.07528  0.31197  1.0000
  C   C1804     1.0  0.93716  0.11079  0.27286  1.0000
  H   H3162     1.0  0.78576  0.99844  0.23826  1.0000
  H   H3163     1.0  0.82892  0.13456  0.10379  1.0000
  C   C1805     1.0  0.97771  0.02214  0.18507  1.0000
  C   C1806     1.0  0.94461  0.13113  0.27272  1.0000
  H   H3164     1.0  0.49169  0.05230  0.14442  1.0000
  Fe  Fe212     1.0  0.50230  0.11141  0.13011  1.0000
  C   C1807     1.0  0.69849  0.98540  0.06641  1.0000
  H   H3165     1.0  0.86256  0.98725  0.21362  1.0000
  H   H3166     1.0  0.55926  0.12402  0.98153  1.0000
  S   S418      1.0  0.73935  0.01529  0.04253  1.0000
  H   H3167     1.0  0.70167  0.01363  0.11354  1.0000
  H   H3168     1.0  0.61818  0.12513  0.02080  1.0000
  C   C1808     1.0  0.55688  0.17122  0.04239  1.0000
  H   H3169     1.0  0.60511  0.02748  0.14446  1.0000
  C   C1809     1.0  0.68487  0.01670  0.12004  1.0000
  H   H3170     1.0  0.94554  0.16554  0.41175  1.0000
  H   H3171     1.0  0.84718  0.11221  0.09819  1.0000
  H   H3172     1.0  0.96168  0.12912  0.26780  1.0000
  H   H3173     1.0  0.55149  0.09473  0.02532  1.0000
  C   C1810     1.0  0.98194  0.09926  0.22710  1.0000
  H   H3174     1.0  0.94519  0.02393  0.19568  1.0000
  H   H3175     1.0  0.70904  0.00877  0.39420  1.0000
  H   H3176     1.0  0.94427  0.10644  0.25758  1.0000
  C   C1811     1.0  0.85691  0.10808  0.28882  1.0000
  S   S419      1.0  0.86687  0.98812  0.09704  1.0000
  H   H3177     1.0  0.88628  0.04157  0.33589  1.0000
  C   C1812     1.0  0.87127  0.04767  0.33049  1.0000
  C   C1813     1.0  0.58888  0.14942  0.98443  1.0000
  H   H3178     1.0  0.97989  0.16906  0.39163  1.0000
  H   H3179     1.0  0.85474  0.13239  0.16428  1.0000
  H   H3180     1.0  0.79566  0.07973  0.27934  1.0000
  H   H3181     1.0  0.97990  0.16682  0.41867  1.0000
  H   H3182     1.0  0.86558  0.02507  0.20485  1.0000
  H   H3183     1.0  0.77850  0.12429  0.18727  1.0000
  S   S420      1.0  0.84507  0.98834  0.34185  1.0000
  H   H3184     1.0  0.86313  0.09500  0.23699  1.0000
  H   H3185     1.0  0.81285  0.08821  0.30445  1.0000
  C   C1814     1.0  0.83479  0.09098  0.27474  1.0000
  H   H3186     1.0  0.64655  0.98989  0.11923  1.0000
  H   H3187     1.0  0.81358  0.14391  0.07273  1.0000
  H   H3188     1.0  0.86194  0.15434  0.14554  1.0000
  H   H3189     1.0  0.92018  0.11416  0.27287  1.0000
  H   H3190     1.0  0.85460  0.13962  0.11780  1.0000
  C   C1815     1.0  0.68525  0.99211  0.39240  1.0000
  H   H3191     1.0  0.60828  0.16263  0.47200  1.0000
  H   H3192     1.0  0.85605  0.10129  0.32238  1.0000
  N   N101      1.0  0.56567  0.15100  0.99026  1.0000
  H   H3193     1.0  0.86511  0.13660  0.30892  1.0000
  C   C1816     1.0  0.56009  0.12954  0.99574  1.0000
  H   H3194     1.0  0.91777  0.15254  0.26280  1.0000
  H   H3195     1.0  0.65104  0.01449  0.10485  1.0000
  C   C1817     1.0  0.84747  0.11217  0.31096  1.0000
  C   C1818     1.0  0.85651  0.99416  0.30011  1.0000
  C   C1819     1.0  0.57522  0.11188  0.00665  1.0000
  C   C1820     1.0  0.56606  0.09206  0.01403  1.0000
  C   C1821     1.0  0.63449  0.12416  0.02232  1.0000
  S   S421      1.0  0.74856  0.98704  0.35864  1.0000
  C   C1822     1.0  0.97570  0.12020  0.21921  1.0000
  H   H3196     1.0  0.59672  0.14095  0.99737  1.0000
  H   H3197     1.0  0.53977  0.17241  0.04654  1.0000
  H   H3198     1.0  0.83380  0.07634  0.27004  1.0000
  C   C1823     1.0  0.65213  0.02750  0.99120  1.0000
  C   C1824     1.0  0.63790  0.01548  0.13605  1.0000
  H   H3199     1.0  0.85069  0.18060  0.00661  1.0000
  H   H3200     1.0  0.78898  0.98325  0.26302  1.0000
  H   H3201     1.0  0.66370  0.09526  0.10960  1.0000
  C   C1825     1.0  0.63385  0.08904  0.98214  1.0000
  H   H3202     1.0  0.78126  0.00392  0.11537  1.0000
  H   H3203     1.0  0.77357  0.13906  0.16264  1.0000
  H   H3204     1.0  0.57923  0.11610  0.02002  1.0000
  H   H3205     1.0  0.88782  0.16699  0.98878  1.0000
  H   H3206     1.0  0.86436  0.99828  0.26722  1.0000
  C   C1826     1.0  0.68549  0.99829  0.08231  1.0000
  H   H3207     1.0  0.88495  0.14797  0.44286  1.0000
  H   H3208     1.0  0.88928  0.01481  0.24222  1.0000
  H   H3209     1.0  0.80164  0.13339  0.13075  1.0000
  H   H3210     1.0  0.83103  0.11036  0.31543  1.0000
  C   C1827     1.0  0.74182  0.00230  0.08353  1.0000
  H   H3211     1.0  0.87362  0.10906  0.28670  1.0000
  H   H3212     1.0  0.62510  0.16140  0.98993  1.0000
  H   H3213     1.0  0.54435  0.12993  0.00538  1.0000
  H   H3214     1.0  0.95647  0.10085  0.36076  1.0000
  C   C1828     1.0  0.69722  0.01005  0.38451  1.0000
  H   H3215     1.0  0.68103  0.98861  0.36337  1.0000
  C   C1829     1.0  0.86858  0.98496  0.13807  1.0000
  C   C1830     1.0  0.82847  0.99337  0.22501  1.0000
  Fe  Fe213     1.0  0.84104  0.08908  0.97968  1.0000
  H   H3216     1.0  0.93271  0.06850  0.98431  1.0000
  H   H3217     1.0  0.97540  0.03618  0.17305  1.0000
  H   H3218     1.0  0.64424  0.02243  0.98077  1.0000
  C   C1831     1.0  0.87241  0.08187  0.26694  1.0000
  H   H3219     1.0  0.64439  0.04333  0.99375  1.0000
  H   H3220     1.0  0.79523  0.99817  0.40470  1.0000
  H   H3221     1.0  0.82242  0.99643  0.21035  1.0000
  C   C1832     1.0  0.97402  0.06754  0.30222  1.0000
  H   H3222     1.0  0.98047  0.02705  0.19880  1.0000
  H   H3223     1.0  0.91556  0.09286  0.97928  1.0000
  C   C1833     1.0  0.55653  0.16317  0.00747  1.0000
  H   H3224     1.0  0.72102  0.04516  0.00310  1.0000
  H   H3225     1.0  0.74525  0.02756  0.99868  1.0000
  H   H3226     1.0  0.84166  0.07424  0.31443  1.0000
  N   N102      1.0  0.85439  0.08814  0.28340  1.0000
  H   H3227     1.0  0.90550  0.03414  0.23835  1.0000
  H   H3228     1.0  0.87104  0.11343  0.24810  1.0000
  H   H3229     1.0  0.74349  0.99054  0.11559  1.0000
  H   H3230     1.0  0.92903  0.17060  0.30401  1.0000
  C   C1834     1.0  0.95024  0.18088  0.40908  1.0000
  C   C1835     1.0  0.97393  0.17696  0.40514  1.0000
  H   H3231     1.0  0.94261  0.99518  0.09880  1.0000
  H   H3232     1.0  0.70538  0.00968  0.36841  1.0000
  H   H3233     1.0  0.65446  0.17192  0.45412  1.0000
  H   H3234     1.0  0.95604  0.00829  0.17601  1.0000
  H   H3235     1.0  0.66795  0.02622  0.14966  1.0000
  H   H3236     1.0  0.75965  0.99318  0.99091  1.0000
  H   H3237     1.0  0.93809  0.14498  0.24197  1.0000
  S   S422      1.0  0.49702  0.09909  0.16421  1.0000
  H   H3238     1.0  0.58515  0.14060  0.46833  1.0000
  H   H3239     1.0  0.97272  0.08530  0.27136  1.0000
  C   C1836     1.0  0.65278  0.00388  0.11966  1.0000
  C   C1837     1.0  0.62566  0.17239  0.05953  1.0000
  N   N103      1.0  0.94247  0.09314  0.28992  1.0000
  C   C1838     1.0  0.93278  0.07527  0.28857  1.0000
  C   C1839     1.0  0.93420  0.09925  0.31082  1.0000
  C   C1840     1.0  0.96573  0.08723  0.28745  1.0000
  H   H3240     1.0  0.61359  0.02697  0.11741  1.0000
  C   C1841     1.0  0.94147  0.06525  0.26903  1.0000
  C   C1842     1.0  0.91115  0.10998  0.31460  1.0000
  C   C1843     1.0  0.90461  0.11523  0.33626  1.0000
  H   H3241     1.0  0.80846  0.12374  0.06176  1.0000
  C   C1844     1.0  0.93170  0.04650  0.26975  1.0000
  H   H3242     1.0  0.91588  0.08038  0.28887  1.0000
  H   H3243     1.0  0.93405  0.06291  0.30238  1.0000
  H   H3244     1.0  0.93586  0.08542  0.32320  1.0000
  H   H3245     1.0  0.94365  0.10957  0.31395  1.0000
  H   H3246     1.0  0.72871  0.01436  0.08651  1.0000
  H   H3247     1.0  0.71604  0.01911  0.98568  1.0000
  C   C1845     1.0  0.65738  0.17772  0.46727  1.0000
  S   S423      1.0  0.87029  0.08779  0.99148  1.0000
  H   H3248     1.0  0.95844  0.05980  0.26731  1.0000
  H   H3249     1.0  0.90837  0.12473  0.30366  1.0000
  H   H3250     1.0  0.90088  0.09978  0.31298  1.0000
  H   H3251     1.0  0.90705  0.10110  0.34812  1.0000
  H   H3252     1.0  0.91357  0.12660  0.33818  1.0000
  H   H3253     1.0  0.88788  0.12219  0.33888  1.0000
  H   H3254     1.0  0.63240  0.99687  0.36731  1.0000
  H   H3255     1.0  0.90756  0.09707  0.24043  1.0000
  H   H3256     1.0  0.71044  0.98352  0.13951  1.0000
  H   H3257     1.0  0.93462  0.03453  0.28346  1.0000
  H   H3258     1.0  0.91479  0.05112  0.27000  1.0000
  H   H3259     1.0  0.93866  0.03966  0.25572  1.0000
  H   H3260     1.0  0.87186  0.06641  0.26365  1.0000
  C   C1846     1.0  0.68356  0.02507  0.14010  1.0000
  H   H3261     1.0  0.87685  0.12894  0.14373  1.0000
  H   H3262     1.0  0.84835  0.04416  0.14454  1.0000
  N   N104      1.0  0.62327  0.15075  0.07077  1.0000
  C   C1847     1.0  0.62055  0.13867  0.05535  1.0000
  C   C1848     1.0  0.60416  0.15241  0.08732  1.0000
  S   S424      1.0  0.98635  0.14022  0.22460  1.0000
  C   C1849     1.0  0.64251  0.14120  0.07997  1.0000
  C   C1850     1.0  0.64296  0.11926  0.09316  1.0000
  C   C1851     1.0  0.56595  0.15615  0.02735  1.0000
  H   H3263     1.0  0.83474  0.12489  0.06277  1.0000
  C   C1852     1.0  0.59263  0.13360  0.09381  1.0000
  C   C1853     1.0  0.57840  0.13410  0.11466  1.0000
  C   C1854     1.0  0.66348  0.11135  0.10101  1.0000
  H   H3264     1.0  0.96022  0.01220  0.11705  1.0000
  H   H3265     1.0  0.60490  0.14428  0.05108  1.0000
  H   H3266     1.0  0.62092  0.12208  0.06211  1.0000
  H   H3267     1.0  0.60795  0.15607  0.10127  1.0000
  H   H3268     1.0  0.96889  0.06963  0.31849  1.0000
  H   H3269     1.0  0.73780  0.99600  0.31752  1.0000
  H   H3270     1.0  0.65658  0.14079  0.06778  1.0000
  H   H3271     1.0  0.59218  0.16563  0.08208  1.0000
  H   H3272     1.0  0.64108  0.10794  0.08425  1.0000
  H   H3273     1.0  0.63064  0.11956  0.10699  1.0000
  C   C1855     1.0  0.67509  0.02710  0.98215  1.0000
  C   C1856     1.0  0.81413  0.09782  0.28891  1.0000
  H   H3274     1.0  0.58291  0.13396  0.08227  1.0000
  H   H3275     1.0  0.60325  0.11854  0.09481  1.0000
  H   H3276     1.0  0.56652  0.14844  0.11410  1.0000
  H   H3277     1.0  0.57040  0.12053  0.11876  1.0000
  H   H3278     1.0  0.58749  0.13326  0.12684  1.0000
  H   H3279     1.0  0.66538  0.12122  0.11149  1.0000
  H   H3280     1.0  0.94145  0.16284  0.25679  1.0000
  H   H3281     1.0  0.67678  0.11126  0.08805  1.0000
  H   H3282     1.0  0.64038  0.10822  0.02976  1.0000
  H   H3283     1.0  0.48866  0.18070  0.02340  1.0000
  N   N105      1.0  0.80066  0.04133  0.05910  1.0000
  C   C1857     1.0  0.79318  0.02928  0.04654  1.0000
  C   C1858     1.0  0.79509  0.03251  0.08164  1.0000
  C   C1859     1.0  0.78870  0.06323  0.05585  1.0000
  C   C1860     1.0  0.82365  0.04170  0.05303  1.0000
  C   C1861     1.0  0.83776  0.02255  0.04478  1.0000
  C   C1862     1.0  0.79443  0.03879  0.02327  1.0000
  C   C1863     1.0  0.79305  0.07841  0.06828  1.0000
  C   C1864     1.0  0.80577  0.01019  0.08902  1.0000
  C   C1865     1.0  0.79828  0.00332  0.11200  1.0000
  C   C1866     1.0  0.86065  0.02328  0.04321  1.0000
  C   C1867     1.0  0.79415  0.02278  0.01036  1.0000
  C   C1868     1.0  0.77532  0.08302  0.08607  1.0000
  H   H3284     1.0  0.77664  0.02809  0.05271  1.0000
  H   H3285     1.0  0.80143  0.01300  0.04806  1.0000
  H   H3286     1.0  0.79926  0.04195  0.09125  1.0000
  H   H3287     1.0  0.77799  0.03311  0.08601  1.0000
  H   H3288     1.0  0.77170  0.06317  0.05871  1.0000
  H   H3289     1.0  0.79216  0.07066  0.03947  1.0000
  H   H3290     1.0  0.82661  0.05527  0.04083  1.0000
  H   H3291     1.0  0.82984  0.04399  0.06627  1.0000
  H   H3292     1.0  0.83533  0.02219  0.02914  1.0000
  H   H3293     1.0  0.83468  0.00773  0.05463  1.0000
  H   H3294     1.0  0.78084  0.05133  0.02116  1.0000
  H   H3295     1.0  0.80859  0.04570  0.01697  1.0000
  H   H3296     1.0  0.79469  0.09341  0.05779  1.0000
  H   H3297     1.0  0.80782  0.07300  0.07418  1.0000
  H   H3298     1.0  0.80238  0.99916  0.08067  1.0000
  H   H3299     1.0  0.82274  0.00934  0.08700  1.0000
  H   H3300     1.0  0.88723  0.08015  0.27244  1.0000
  C   C1869     1.0  0.66660  0.09928  0.98115  1.0000
  H   H3301     1.0  0.53973  0.16261  0.01244  1.0000
  H   H3302     1.0  0.89944  0.01890  0.26335  1.0000
  H   H3303     1.0  0.87039  0.00945  0.03735  1.0000
  H   H3304     1.0  0.58296  0.15531  0.02414  1.0000
  H   H3305     1.0  0.79420  0.03042  0.99406  1.0000
  C   C1870     1.0  0.95209  0.99937  0.12577  1.0000
  H   H3306     1.0  0.77998  0.01577  0.01593  1.0000
  H   H3307     1.0  0.76076  0.09000  0.08012  1.0000
  H   H3308     1.0  0.77274  0.06885  0.09744  1.0000
  H   H3309     1.0  0.77889  0.09426  0.09407  1.0000
  H   H3310     1.0  0.91679  0.16675  0.45043  1.0000
  C   C1871     1.0  0.73386  0.03962  0.99112  1.0000
  C   C1872     1.0  0.90292  0.01853  0.24659  1.0000
  H   H3311     1.0  0.93793  0.17870  0.99778  1.0000
  C   C1873     1.0  0.75030  0.99984  0.06328  1.0000
  H   H3312     1.0  0.96085  0.99049  0.13803  1.0000
  H   H3313     1.0  0.92193  0.98923  0.25476  1.0000
  C   C1874     1.0  0.87595  0.98979  0.15413  1.0000
  H   H3314     1.0  0.85039  0.05681  0.29685  1.0000
  H   H3315     1.0  0.64487  0.15093  0.09032  1.0000
  S   S425      1.0  0.68955  0.09656  0.99056  1.0000
  C   C1875     1.0  0.68952  0.04655  0.13522  1.0000
  H   H3316     1.0  0.86057  0.05590  0.34230  1.0000
  C   C1876     1.0  0.81850  0.12737  0.07113  1.0000
  C   C1877     1.0  0.72537  0.03069  0.97636  1.0000
  H   H3317     1.0  0.81908  0.99244  0.38708  1.0000
  C   C1878     1.0  0.93480  0.14891  0.25763  1.0000
  H   H3318     1.0  0.96426  0.99786  0.22061  1.0000
  H   H3319     1.0  0.86410  0.02327  0.05859  1.0000
  H   H3320     1.0  0.69444  0.01467  0.14968  1.0000
  H   H3321     1.0  0.56287  0.08659  0.00082  1.0000
  S   S426      1.0  0.50531  0.13023  0.07161  1.0000
  H   H3322     1.0  0.65049  0.01687  0.00627  1.0000
  H   H3323     1.0  0.53187  0.17102  0.10305  1.0000
  C   C1879     1.0  0.87908  0.15874  0.45405  1.0000
  H   H3324     1.0  0.81267  0.11426  0.29033  1.0000
  C   C1880     1.0  0.89600  0.09290  0.23321  1.0000
  H   H3325     1.0  0.77123  0.11192  0.16939  1.0000
  C   C1881     1.0  0.96094  0.99252  0.20742  1.0000
  C   C1882     1.0  0.95069  0.98536  0.11118  1.0000
  H   H3326     1.0  0.79579  0.10553  0.26432  1.0000
  H   H3327     1.0  0.94210  0.17727  0.34087  1.0000
  C   C1883     1.0  0.87461  0.06236  0.30989  1.0000
  H   H3328     1.0  0.68886  0.05205  0.14976  1.0000
  C   C1884     1.0  0.61542  0.01838  0.13311  1.0000
  H   H3329     1.0  0.67858  0.05778  0.12622  1.0000
  H   H3330     1.0  0.49297  0.03083  0.16560  1.0000
  H   H3331     1.0  0.91290  0.16965  0.42468  1.0000
  C   C1885     1.0  0.85411  0.07039  0.30140  1.0000
  H   H3332     1.0  0.63023  0.99779  0.32936  1.0000
  H   H3333     1.0  0.85029  0.12156  0.27792  1.0000
  H   H3334     1.0  0.52379  0.17138  0.98588  1.0000
  H   H3335     1.0  0.68209  0.03206  0.99336  1.0000
  H   H3336     1.0  0.79649  0.07448  0.97659  1.0000
  H   H3337     1.0  0.66980  0.99068  0.15527  1.0000
  H   H3338     1.0  0.67807  0.02956  0.10873  1.0000
  S   S427      1.0  0.87249  0.16760  0.35594  1.0000
  C   C1886     1.0  0.84879  0.13413  0.31286  1.0000
  H   H3339     1.0  0.90054  0.07635  0.23161  1.0000
  N   N106      1.0  0.67532  0.99781  0.12186  1.0000
  H   H3340     1.0  0.93638  0.00624  0.13305  1.0000
  H   H3341     1.0  0.83938  0.14577  0.30262  1.0000
  H   H3342     1.0  0.85457  0.00088  0.23492  1.0000
  H   H3343     1.0  0.80243  0.01326  0.12114  1.0000
  C   C1887     1.0  0.68647  0.98628  0.10455  1.0000
  H   H3344     1.0  0.86481  0.03742  0.03253  1.0000
  S   S428      1.0  0.91958  0.16604  0.38169  1.0000
  N   N107      1.0  0.82742  0.10773  0.12812  1.0000
  C   C1888     1.0  0.84460  0.11161  0.13724  1.0000
  C   C1889     1.0  0.82932  0.08467  0.12942  1.0000
  C   C1890     1.0  0.80612  0.11703  0.13829  1.0000
  C   C1891     1.0  0.80303  0.11755  0.16170  1.0000
  C   C1892     1.0  0.84710  0.13461  0.13394  1.0000
  C   C1893     1.0  0.82537  0.07144  0.15117  1.0000
  C   C1894     1.0  0.83145  0.04830  0.15026  1.0000
  C   C1895     1.0  0.78014  0.12360  0.17071  1.0000
  C   C1896     1.0  0.86098  0.13769  0.14781  1.0000
  H   H3345     1.0  0.85978  0.10312  0.13036  1.0000
  H   H3346     1.0  0.84292  0.10527  0.15395  1.0000
  H   H3347     1.0  0.81806  0.08129  0.12126  1.0000
  H   H3348     1.0  0.84493  0.07828  0.12147  1.0000
  H   H3349     1.0  0.79430  0.10879  0.13593  1.0000
  H   H3350     1.0  0.81131  0.12910  0.16436  1.0000
  H   H3351     1.0  0.80895  0.10253  0.17077  1.0000
  H   H3352     1.0  0.83194  0.14497  0.13689  1.0000
  H   H3353     1.0  0.83424  0.07471  0.16178  1.0000
  H   H3354     1.0  0.80861  0.07443  0.15781  1.0000
  H   H3355     1.0  0.82779  0.03915  0.16592  1.0000
  C   C1897     1.0  0.81657  0.11330  0.09223  1.0000
  H   H3356     1.0  0.68659  0.02514  0.38508  1.0000
  H   H3357     1.0  0.93596  0.00966  0.24097  1.0000
  H   H3358     1.0  0.63876  0.00706  0.15192  1.0000
  C   C1898     1.0  0.85112  0.01940  0.20519  1.0000
  H   H3359     1.0  0.84267  0.13663  0.32890  1.0000
  H   H3360     1.0  0.97247  0.10006  0.28992  1.0000
  H   H3361     1.0  0.69144  0.01300  0.07973  1.0000
  C   C1899     1.0  0.79557  0.09614  0.28001  1.0000
  H   H3362     1.0  0.83767  0.03147  0.20948  1.0000
  Fe  Fe214     1.0  0.88536  0.16956  0.38313  1.0000
  H   H3363     1.0  0.89626  0.10246  0.21759  1.0000
  H   H3364     1.0  0.88609  0.05346  0.29909  1.0000
  H   H3365     1.0  0.56206  0.14094  0.03535  1.0000
  H   H3366     1.0  0.68213  0.01087  0.98069  1.0000
  C   C1900     1.0  0.59693  0.17015  0.97669  1.0000
  H   H3367     1.0  0.93461  0.98663  0.18376  1.0000
  H   H3368     1.0  0.64073  0.17207  0.04867  1.0000
  C   C1901     1.0  0.73849  0.11380  0.98186  1.0000
  C   C1902     1.0  0.90927  0.17767  0.43813  1.0000
  H   H3369     1.0  0.73681  0.09790  0.98106  1.0000
  H   H3370     1.0  0.63432  0.99941  0.40218  1.0000
  H   H3371     1.0  0.80586  0.98714  0.11686  1.0000
  H   H3372     1.0  0.85174  0.98303  0.01387  1.0000
  H   H3373     1.0  0.56348  0.16551  0.05672  1.0000
  H   H3374     1.0  0.67696  0.99374  0.40815  1.0000
  C   C1903     1.0  0.76770  0.98458  0.05933  1.0000
  H   H3375     1.0  0.90989  0.98655  0.22451  1.0000
  H   H3376     1.0  0.66396  0.98989  0.33987  1.0000
  C   C1904     1.0  0.80805  0.98559  0.40020  1.0000
  H   H3377     1.0  0.58999  0.18146  0.98713  1.0000
  H   H3378     1.0  0.77442  0.98291  0.04367  1.0000
  C   C1905     1.0  0.67710  0.98297  0.14188  1.0000
  H   H3379     1.0  0.52898  0.14758  0.97598  1.0000
  H   H3380     1.0  0.94714  0.18184  0.44146  1.0000
  H   H3381     1.0  0.97408  0.18221  0.35265  1.0000
  H   H3382     1.0  0.60774  0.98755  0.43678  1.0000
  S   S429      1.0  0.82633  0.18272  0.38262  1.0000
  H   H3383     1.0  0.65424  0.03345  0.71918  1.0000
  Fe  Fe215     1.0  0.74810  0.03451  0.86475  1.0000
  S   S430      1.0  0.76476  0.05232  0.83613  1.0000
  H   H3384     1.0  0.64904  0.01588  0.77409  1.0000
  Fe  Fe216     1.0  0.76227  0.05827  0.89263  1.0000
  S   S431      1.0  0.77856  0.07833  0.86600  1.0000
  S   S432      1.0  0.75994  0.06361  0.92519  1.0000
  Fe  Fe217     1.0  0.75134  0.08023  0.85095  1.0000
  S   S433      1.0  0.73832  0.10992  0.83182  1.0000
  Fe  Fe218     1.0  0.79084  0.04882  0.85372  1.0000
  S   S434      1.0  0.82482  0.04357  0.83852  1.0000
  S   S435      1.0  0.73364  0.06309  0.87865  1.0000
  S   S436      1.0  0.77558  0.02821  0.88131  1.0000
  Fe  Fe219     1.0  0.95115  0.09506  0.80160  1.0000
  S   S437      1.0  0.95068  0.07983  0.83464  1.0000
  S   S438      1.0  0.96357  0.07481  0.77744  1.0000
  H   H3385     1.0  0.93171  0.06112  0.95014  1.0000
  S   S439      1.0  0.92893  0.12507  0.84698  1.0000
  Fe  Fe220     1.0  0.96126  0.10834  0.83805  1.0000
  C   C1906     1.0  0.95287  0.12939  0.92766  1.0000
  Fe  Fe221     1.0  0.91829  0.09788  0.84019  1.0000
  S   S440      1.0  0.89076  0.08620  0.86211  1.0000
  S   S441      1.0  0.96403  0.12214  0.80462  1.0000
  S   S442      1.0  0.91797  0.11120  0.80688  1.0000
  Fe  Fe222     1.0  0.54243  0.11303  0.76111  1.0000
  S   S443      1.0  0.51629  0.09584  0.76304  1.0000
  S   S444      1.0  0.54335  0.13504  0.78248  1.0000
  Fe  Fe223     1.0  0.56340  0.10153  0.71938  1.0000
  S   S445      1.0  0.53934  0.08372  0.71792  1.0000
  S   S446      1.0  0.58955  0.10352  0.69259  1.0000
  Fe  Fe224     1.0  0.51621  0.10968  0.72955  1.0000
  Fe  Fe225     1.0  0.54163  0.07115  0.75106  1.0000
  S   S447      1.0  0.54364  0.03656  0.75895  1.0000
  S   S448      1.0  0.54029  0.12875  0.72837  1.0000
  S   S449      1.0  0.56769  0.08708  0.75165  1.0000
  Fe  Fe226     1.0  0.60851  0.12855  0.92379  1.0000
  S   S450      1.0  0.61026  0.10370  0.95193  1.0000
  H   H3386     1.0  0.56152  0.04316  0.58557  1.0000
  H   H3387     1.0  0.67928  0.03292  0.54982  1.0000
  H   H3388     1.0  0.86402  0.12583  0.85498  1.0000
  C   C1907     1.0  0.62964  0.15968  0.53841  1.0000
  S   S451      1.0  0.62369  0.12377  0.89193  1.0000
  H   H3389     1.0  0.57398  0.00572  0.67407  1.0000
  H   H3390     1.0  0.81721  0.16424  0.94621  1.0000
  C   C1908     1.0  0.91043  0.09021  0.94037  1.0000
  Fe  Fe227     1.0  0.54979  0.15798  0.55037  1.0000
  S   S452      1.0  0.55880  0.12358  0.55257  1.0000
  C   C1909     1.0  0.97802  0.14155  0.86851  1.0000
  Fe  Fe228     1.0  0.63665  0.04219  0.60079  1.0000
  S   S453      1.0  0.65718  0.02530  0.62340  1.0000
  S   S454      1.0  0.63809  0.07592  0.58913  1.0000
  Fe  Fe229     1.0  0.61689  0.00465  0.60380  1.0000
  H   H3391     1.0  0.83085  0.11168  0.92772  1.0000
  H   H3392     1.0  0.97131  0.99890  0.75649  1.0000
  Fe  Fe230     1.0  0.62880  0.01318  0.64115  1.0000
  S   S455      1.0  0.61777  0.01222  0.67493  1.0000
  Fe  Fe231     1.0  0.66219  0.99872  0.60663  1.0000
  H   H3393     1.0  0.66553  0.02585  0.66587  1.0000
  S   S456      1.0  0.60773  0.03200  0.61988  1.0000
  S   S457      1.0  0.64391  0.01667  0.58227  1.0000
  H   H3394     1.0  0.56431  0.99455  0.76761  1.0000
  S   S458      1.0  0.63573  0.98481  0.62675  1.0000
  H   H3395     1.0  0.88821  0.08996  0.80181  1.0000
  H   H3396     1.0  0.95451  0.03601  0.75492  1.0000
  C   C1910     1.0  0.64193  0.14928  0.49354  1.0000
  C   C1911     1.0  0.58065  0.11082  0.56322  1.0000
  C   C1912     1.0  0.58641  0.08941  0.56409  1.0000
  C   C1913     1.0  0.60375  0.07857  0.57257  1.0000
  C   C1914     1.0  0.61569  0.08924  0.57973  1.0000
  C   C1915     1.0  0.60999  0.11071  0.57886  1.0000
  C   C1916     1.0  0.59230  0.12151  0.57079  1.0000
  H   H3397     1.0  0.57746  0.08115  0.55815  1.0000
  H   H3398     1.0  0.60815  0.06200  0.57318  1.0000
  H   H3399     1.0  0.61921  0.11890  0.58454  1.0000
  H   H3400     1.0  0.58777  0.13799  0.57037  1.0000
  H   H3401     1.0  0.74625  0.00072  0.82917  1.0000
  H   H3402     1.0  0.60106  0.16798  0.65001  1.0000
  H   H3403     1.0  0.80801  0.14371  0.91279  1.0000
  H   H3404     1.0  0.59054  0.17124  0.49396  1.0000
  C   C1917     1.0  0.66951  0.01248  0.67807  1.0000
  C   C1918     1.0  0.59864  0.07822  0.68787  1.0000
  C   C1919     1.0  0.59268  0.06157  0.70269  1.0000
  C   C1920     1.0  0.59879  0.04137  0.69869  1.0000
  C   C1921     1.0  0.61081  0.03764  0.67982  1.0000
  C   C1922     1.0  0.61681  0.05426  0.66492  1.0000
  C   C1923     1.0  0.61082  0.07456  0.66898  1.0000
  H   H3405     1.0  0.58332  0.06418  0.71733  1.0000
  H   H3406     1.0  0.59398  0.02870  0.71022  1.0000
  H   H3407     1.0  0.62598  0.05157  0.65021  1.0000
  H   H3408     1.0  0.61529  0.08739  0.65735  1.0000
  C   C1924     1.0  0.55604  0.13023  0.80411  1.0000
  C   C1925     1.0  0.55622  0.14689  0.81365  1.0000
  C   C1926     1.0  0.56563  0.14378  0.83114  1.0000
  C   C1927     1.0  0.57485  0.12387  0.83943  1.0000
  C   C1928     1.0  0.57480  0.10723  0.82980  1.0000
  C   C1929     1.0  0.56550  0.11036  0.81225  1.0000
  H   H3409     1.0  0.62557  0.07402  0.91429  1.0000
  H   H3410     1.0  0.58177  0.09175  0.83613  1.0000
  H   H3411     1.0  0.56531  0.09738  0.80525  1.0000
  H   H3412     1.0  0.61958  0.11696  0.53510  1.0000
  H   H3413     1.0  0.68446  0.99473  0.55446  1.0000
  H   H3414     1.0  0.49986  0.07651  0.56880  1.0000
  N   N108      1.0  0.76676  0.13070  0.92554  1.0000
  C   C1930     1.0  0.49552  0.09234  0.57243  1.0000
  H   H3415     1.0  0.62576  0.18121  0.48264  1.0000
  C   C1931     1.0  0.64393  0.07499  0.87308  1.0000
  S   S459      1.0  0.60248  0.99139  0.82285  1.0000
  H   H3416     1.0  0.65263  0.03624  0.86449  1.0000
  N   N109      1.0  0.62422  0.14233  0.50973  1.0000
  H   H3417     1.0  0.96219  0.14052  0.86835  1.0000
  C   C1932     1.0  0.55200  0.05461  0.59506  1.0000
  C   C1933     1.0  0.71539  0.12506  0.84239  1.0000
  C   C1934     1.0  0.70030  0.11644  0.85757  1.0000
  C   C1935     1.0  0.68224  0.12935  0.86570  1.0000
  C   C1936     1.0  0.67966  0.15084  0.85892  1.0000
  H   H3418     1.0  0.77105  0.13424  0.89220  1.0000
  C   C1937     1.0  0.71237  0.14642  0.83529  1.0000
  H   H3419     1.0  0.70258  0.09993  0.86295  1.0000
  H   H3420     1.0  0.67060  0.12280  0.87745  1.0000
  H   H3421     1.0  0.50225  0.17148  0.77385  1.0000
  H   H3422     1.0  0.72393  0.15312  0.82351  1.0000
  C   C1938     1.0  0.84321  0.05485  0.84575  1.0000
  C   C1939     1.0  0.83825  0.06487  0.86277  1.0000
  C   C1940     1.0  0.85318  0.07386  0.86789  1.0000
  C   C1941     1.0  0.87300  0.07352  0.85571  1.0000
  C   C1942     1.0  0.87812  0.06318  0.83893  1.0000
  C   C1943     1.0  0.86333  0.05375  0.83410  1.0000
  H   H3423     1.0  0.82299  0.06551  0.87213  1.0000
  H   H3424     1.0  0.84921  0.08139  0.88118  1.0000
  H   H3425     1.0  0.89355  0.06219  0.82986  1.0000
  H   H3426     1.0  0.86744  0.04561  0.82122  1.0000
  C   C1944     1.0  0.78256  0.06322  0.93488  1.0000
  C   C1945     1.0  0.78064  0.06856  0.95430  1.0000
  N   N110      1.0  0.49912  0.09281  0.59361  1.0000
  C   C1946     1.0  0.81797  0.06549  0.95012  1.0000
  C   C1947     1.0  0.81997  0.05934  0.93106  1.0000
  C   C1948     1.0  0.80233  0.05852  0.92331  1.0000
  H   H3427     1.0  0.53403  0.16782  0.94004  1.0000
  C   C1949     1.0  0.55646  0.16240  0.97154  1.0000
  H   H3428     1.0  0.83519  0.05563  0.92200  1.0000
  H   H3429     1.0  0.80406  0.05426  0.90840  1.0000
  C   C1950     1.0  0.58500  0.00347  0.80603  1.0000
  H   H3430     1.0  0.60275  0.17545  0.61319  1.0000
  C   C1951     1.0  0.56762  0.00293  0.77819  1.0000
  C   C1952     1.0  0.55910  0.02397  0.77748  1.0000
  C   C1953     1.0  0.56307  0.03463  0.79147  1.0000
  C   C1954     1.0  0.57555  0.02422  0.80608  1.0000
  H   H3431     1.0  0.67205  0.05943  0.69392  1.0000
  H   H3432     1.0  0.55626  0.05079  0.79125  1.0000
  H   H3433     1.0  0.57841  0.03242  0.81705  1.0000
  C   C1955     1.0  0.62046  0.16697  0.97463  1.0000
  H   H3434     1.0  0.64957  0.01361  0.81968  1.0000
  H   H3435     1.0  0.85310  0.08589  0.80178  1.0000
  H   H3436     1.0  0.79037  0.10341  0.92768  1.0000
  H   H3437     1.0  0.89470  0.02393  0.92487  1.0000
  H   H3438     1.0  0.50784  0.14638  0.60998  1.0000
  C   C1956     1.0  0.55549  0.12260  0.63194  1.0000
  H   H3439     1.0  0.66661  0.05335  0.89039  1.0000
  H   H3440     1.0  0.62849  0.04675  0.71852  1.0000
  H   H3441     1.0  0.67579  0.12234  0.95520  1.0000
  C   C1957     1.0  0.64662  0.11467  0.95395  1.0000
  C   C1958     1.0  0.73982  0.99639  0.92845  1.0000
  H   H3442     1.0  0.64517  0.12484  0.93943  1.0000
  H   H3443     1.0  0.77065  0.10991  0.96867  1.0000
  H   H3444     1.0  0.55065  0.98813  0.66130  1.0000
  H   H3445     1.0  0.58948  0.12600  0.64946  1.0000
  H   H3446     1.0  0.55443  0.13679  0.66581  1.0000
  H   H3447     1.0  0.56625  0.11216  0.64158  1.0000
  H   H3448     1.0  0.53995  0.12519  0.64172  1.0000
  S   S460      1.0  0.84048  0.06657  0.95918  1.0000
  H   H3449     1.0  0.73246  0.98799  0.48826  1.0000
  H   H3450     1.0  0.54550  0.09828  0.62208  1.0000
  H   H3451     1.0  0.73610  0.12830  0.94323  1.0000
  H   H3452     1.0  0.62918  0.05033  0.85642  1.0000
  H   H3453     1.0  0.51476  0.08624  0.53197  1.0000
  H   H3454     1.0  0.80329  0.12939  0.89489  1.0000
  H   H3455     1.0  0.82645  0.09845  0.90883  1.0000
  C   C1959     1.0  0.63160  0.10252  0.96348  1.0000
  C   C1960     1.0  0.49302  0.14178  0.61868  1.0000
  H   H3456     1.0  0.94587  0.17774  0.85113  1.0000
  H   H3457     1.0  0.55887  0.17878  0.96777  1.0000
  C   C1961     1.0  0.65187  0.08486  0.52423  1.0000
  N   N111      1.0  0.90448  0.08405  0.92245  1.0000
  C   C1962     1.0  0.89497  0.06474  0.92970  1.0000
  H   H3458     1.0  0.59169  0.14953  0.67168  1.0000
  C   C1963     1.0  0.88802  0.10131  0.91452  1.0000
  C   C1964     1.0  0.92275  0.08168  0.90515  1.0000
  C   C1965     1.0  0.94036  0.06298  0.90887  1.0000
  C   C1966     1.0  0.88703  0.05703  0.91323  1.0000
  C   C1967     1.0  0.89414  0.12313  0.90751  1.0000
  H   H3459     1.0  0.52315  0.10543  0.55578  1.0000
  H   H3460     1.0  0.54252  0.01722  0.72294  1.0000
  C   C1968     1.0  0.95500  0.05965  0.88874  1.0000
  C   C1969     1.0  0.88096  0.03572  0.92140  1.0000
  C   C1970     1.0  0.87624  0.13921  0.90008  1.0000
  H   H3461     1.0  0.88169  0.06733  0.94245  1.0000
  H   H3462     1.0  0.90583  0.05158  0.93663  1.0000
  C   C1971     1.0  0.52127  0.08433  0.59652  1.0000
  H   H3463     1.0  0.61025  0.06136  0.75542  1.0000
  H   H3464     1.0  0.87368  0.10259  0.92646  1.0000
  H   H3465     1.0  0.88332  0.09785  0.90102  1.0000
  H   H3466     1.0  0.91741  0.08116  0.89082  1.0000
  H   H3467     1.0  0.93030  0.09556  0.90122  1.0000
  H   H3468     1.0  0.93452  0.04832  0.91541  1.0000
  H   H3469     1.0  0.94970  0.06601  0.91924  1.0000
  H   H3470     1.0  0.87304  0.06777  0.90876  1.0000
  H   H3471     1.0  0.89909  0.05562  0.89932  1.0000
  H   H3472     1.0  0.90735  0.12319  0.89448  1.0000
  H   H3473     1.0  0.89843  0.12837  0.92025  1.0000
  H   H3474     1.0  0.53924  0.07268  0.56887  1.0000
  H   H3475     1.0  0.49915  0.12325  0.55463  1.0000
  C   C1972     1.0  0.73582  0.13297  0.88204  1.0000
  H   H3476     1.0  0.50868  0.17522  0.95471  1.0000
  H   H3477     1.0  0.83947  0.12031  0.90067  1.0000
  H   H3478     1.0  0.96148  0.07387  0.88117  1.0000
  H   H3479     1.0  0.96794  0.04670  0.89189  1.0000
  H   H3480     1.0  0.94665  0.05548  0.87811  1.0000
  H   H3481     1.0  0.86862  0.17164  0.75676  1.0000
  H   H3482     1.0  0.86899  0.03606  0.93556  1.0000
  H   H3483     1.0  0.87174  0.17477  0.78183  1.0000
  H   H3484     1.0  0.86258  0.14027  0.91264  1.0000
  H   H3485     1.0  0.88098  0.15465  0.89513  1.0000
  H   H3486     1.0  0.52384  0.05490  0.58491  1.0000
  N   N112      1.0  0.84929  0.11929  0.79877  1.0000
  C   C1973     1.0  0.82634  0.12321  0.79832  1.0000
  C   C1974     1.0  0.85945  0.13646  0.78461  1.0000
  C   C1975     1.0  0.85862  0.09929  0.79080  1.0000
  C   C1976     1.0  0.85346  0.11677  0.82032  1.0000
  C   C1977     1.0  0.84480  0.13567  0.83128  1.0000
  H   H3487     1.0  0.51307  0.11342  0.52115  1.0000
  H   H3488     1.0  0.49114  0.14420  0.63478  1.0000
  C   C1978     1.0  0.84737  0.13049  0.85381  1.0000
  C   C1979     1.0  0.86026  0.17484  0.77213  1.0000
  H   H3489     1.0  0.81837  0.13794  0.80345  1.0000
  H   H3490     1.0  0.87430  0.13694  0.78927  1.0000
  H   H3491     1.0  0.86385  0.13328  0.76856  1.0000
  H   H3492     1.0  0.65171  0.10765  0.49650  1.0000
  H   H3493     1.0  0.87040  0.11340  0.82036  1.0000
  H   H3494     1.0  0.82807  0.14119  0.83105  1.0000
  H   H3495     1.0  0.85352  0.14842  0.82386  1.0000
  H   H3496     1.0  0.89010  0.10618  0.77684  1.0000
  H   H3497     1.0  0.66012  0.06772  0.72925  1.0000
  H   H3498     1.0  0.62780  0.09791  0.50669  1.0000
  H   H3499     1.0  0.50534  0.12421  0.58606  1.0000
  H   H3500     1.0  0.62934  0.14635  0.66709  1.0000
  H   H3501     1.0  0.86431  0.17162  0.85948  1.0000
  H   H3502     1.0  0.83889  0.11784  0.86225  1.0000
  H   H3503     1.0  0.60940  0.17302  0.51594  1.0000
  H   H3504     1.0  0.84100  0.14436  0.86116  1.0000
  C   C1980     1.0  0.64102  0.17304  0.48634  1.0000
  H   H3505     1.0  0.69644  0.03400  0.52536  1.0000
  N   N113      1.0  0.69996  0.04176  0.94987  1.0000
  C   C1981     1.0  0.70858  0.02063  0.94414  1.0000
  C   C1982     1.0  0.89017  0.07433  0.77692  1.0000
  C   C1983     1.0  0.69938  0.05725  0.93007  1.0000
  H   H3506     1.0  0.70266  0.05898  0.97260  1.0000
  H   H3507     1.0  0.51451  0.04594  0.71730  1.0000
  C   C1984     1.0  0.72940  0.01893  0.92871  1.0000
  C   C1985     1.0  0.68904  0.07979  0.93231  1.0000
  H   H3508     1.0  0.78322  0.16359  0.89640  1.0000
  H   H3509     1.0  0.73170  0.14795  0.90816  1.0000
  H   H3510     1.0  0.96125  0.09633  0.93024  1.0000
  C   C1986     1.0  0.98218  0.08294  0.75622  1.0000
  C   C1987     1.0  0.69293  0.09471  0.91197  1.0000
  H   H3511     1.0  0.69730  0.01579  0.93697  1.0000
  H   H3512     1.0  0.63366  0.18082  0.55686  1.0000
  H   H3513     1.0  0.62301  0.12321  0.66246  1.0000
  H   H3514     1.0  0.74166  0.11745  0.87765  1.0000
  H   H3515     1.0  0.69143  0.05218  0.91960  1.0000
  H   H3516     1.0  0.71544  0.05818  0.92174  1.0000
  H   H3517     1.0  0.72413  0.05747  0.95272  1.0000
  C   C1988     1.0  0.69747  0.99530  0.85371  1.0000
  H   H3518     1.0  0.83821  0.16296  0.79734  1.0000
  H   H3519     1.0  0.87197  0.13508  0.88667  1.0000
  H   H3520     1.0  0.72654  0.02586  0.91287  1.0000
  C   C1989     1.0  0.62294  0.17996  0.54675  1.0000
  H   H3521     1.0  0.69520  0.08508  0.94389  1.0000
  H   H3522     1.0  0.67202  0.08092  0.93694  1.0000
  H   H3523     1.0  0.83469  0.16000  0.77272  1.0000
  C   C1990     1.0  0.90172  0.18235  0.81797  1.0000
  C   C1991     1.0  0.60955  0.99257  0.74041  1.0000
  H   H3524     1.0  0.89662  0.09907  0.94910  1.0000
  H   H3525     1.0  0.53289  0.17027  0.73868  1.0000
  H   H3526     1.0  0.56190  0.06543  0.59630  1.0000
  H   H3527     1.0  0.98515  0.06677  0.93777  1.0000
  H   H3528     1.0  0.64643  0.05673  0.92526  1.0000
  C   C1992     1.0  0.70587  0.99165  0.52490  1.0000
  H   H3529     1.0  0.63507  0.04372  0.79090  1.0000
  H   H3530     1.0  0.53732  0.99845  0.62873  1.0000
  H   H3531     1.0  0.68464  0.11057  0.91387  1.0000
  H   H3532     1.0  0.70973  0.09517  0.90703  1.0000
  H   H3533     1.0  0.68714  0.08988  0.89984  1.0000
  H   H3534     1.0  0.78396  0.12621  0.81707  1.0000
  C   C1993     1.0  0.61502  0.15743  0.52432  1.0000
  H   H3535     1.0  0.64477  0.12329  0.52997  1.0000
  C   C1994     1.0  0.60723  0.13897  0.49996  1.0000
  C   C1995     1.0  0.62042  0.04748  0.78472  1.0000
  C   C1996     1.0  0.79821  0.07005  0.96175  1.0000
  H   H3536     1.0  0.51965  0.02720  0.67189  1.0000
  H   H3537     1.0  0.74035  0.02724  0.93238  1.0000
  H   H3538     1.0  0.76644  0.10962  0.90545  1.0000
  C   C1997     1.0  0.51162  0.03036  0.71686  1.0000
  H   H3539     1.0  0.56456  0.15536  0.95778  1.0000
  H   H3540     1.0  0.84043  0.16888  0.92812  1.0000
  H   H3541     1.0  0.75769  0.13649  0.96705  1.0000
  C   C1998     1.0  0.65414  0.02366  0.75809  1.0000
  C   C1999     1.0  0.62501  0.05371  0.76095  1.0000
  H   H3542     1.0  0.53088  0.09672  0.59116  1.0000
  H   H3543     1.0  0.59317  0.17681  0.96122  1.0000
  H   H3544     1.0  0.55535  0.01309  0.64832  1.0000
  C   C2000     1.0  0.80623  0.12829  0.91063  1.0000
  C   C2001     1.0  0.49902  0.02281  0.73778  1.0000
  C   C2002     1.0  0.76182  0.12649  0.90619  1.0000
  C   C2003     1.0  0.53109  0.01325  0.67674  1.0000
  S   S461      1.0  0.57727  0.14161  0.91527  1.0000
  H   H3545     1.0  0.64586  0.15903  0.53014  1.0000
  H   H3546     1.0  0.78880  0.11502  0.79395  1.0000
  C   C2004     1.0  0.64067  0.10332  0.51077  1.0000
  H   H3547     1.0  0.74385  0.98885  0.94373  1.0000
  H   H3548     1.0  0.69024  0.99436  0.65727  1.0000
  H   H3549     1.0  0.62950  0.14675  0.55179  1.0000
  H   H3550     1.0  0.59429  0.00263  0.73909  1.0000
  H   H3551     1.0  0.70823  0.00405  0.55193  1.0000
  C   C2005     1.0  0.49917  0.17543  0.74154  1.0000
  C   C2006     1.0  0.55381  0.11138  0.61514  1.0000
  H   H3552     1.0  0.65697  0.14341  0.49907  1.0000
  H   H3553     1.0  0.64122  0.07975  0.53857  1.0000
  C   C2007     1.0  0.54670  0.04067  0.68430  1.0000
  C   C2008     1.0  0.49390  0.11518  0.59654  1.0000
  C   C2009     1.0  0.98217  0.15663  0.87792  1.0000
  H   H3554     1.0  0.89053  0.15432  0.83366  1.0000
  C   C2010     1.0  0.64849  0.06634  0.72047  1.0000
  H   H3555     1.0  0.64356  0.14218  0.47968  1.0000
  C   C2011     1.0  0.55880  0.04716  0.66248  1.0000
  C   C2012     1.0  0.56046  0.07001  0.65859  1.0000
  C   C2013     1.0  0.95331  0.02468  0.76956  1.0000
  C   C2014     1.0  0.56298  0.14349  0.62263  1.0000
  H   H3556     1.0  0.78315  0.09924  0.81881  1.0000
  C   C2015     1.0  0.92769  0.08125  0.97198  1.0000
  H   H3557     1.0  0.53144  0.05124  0.68495  1.0000
  H   H3558     1.0  0.55460  0.04458  0.69555  1.0000
  H   H3559     1.0  0.50806  0.02109  0.75022  1.0000
  C   C2016     1.0  0.52546  0.17519  0.95338  1.0000
  C   C2017     1.0  0.68707  0.02188  0.77153  1.0000
  S   S462      1.0  0.89176  0.13761  0.96206  1.0000
  H   H3560     1.0  0.77321  0.15601  0.93686  1.0000
  H   H3561     1.0  0.65565  0.01145  0.69033  1.0000
  C   C2018     1.0  0.71271  0.04816  0.96262  1.0000
  C   C2019     1.0  0.64963  0.05898  0.89218  1.0000
  H   H3562     1.0  0.79259  0.12174  0.94218  1.0000
  C   C2020     1.0  0.97191  0.00695  0.76901  1.0000
  H   H3563     1.0  0.57477  0.03815  0.66037  1.0000
  H   H3564     1.0  0.55055  0.04531  0.65063  1.0000
  H   H3565     1.0  0.56693  0.07359  0.67091  1.0000
  H   H3566     1.0  0.57093  0.07378  0.64371  1.0000
  H   H3567     1.0  0.54495  0.07986  0.65807  1.0000
  H   H3568     1.0  0.95894  0.14346  0.91905  1.0000
  C   C2021     1.0  0.69249  0.98355  0.84095  1.0000
  C   C2022     1.0  0.52837  0.00471  0.64257  1.0000
  H   H3569     1.0  0.60388  0.06037  0.81174  1.0000
  H   H3570     1.0  0.60708  0.18087  0.55591  1.0000
  H   H3571     1.0  0.93878  0.01846  0.77180  1.0000
  H   H3572     1.0  0.88577  0.07731  0.76148  1.0000
  H   H3573     1.0  0.51673  0.14042  0.67797  1.0000
  C   C2023     1.0  0.73865  0.13255  0.90394  1.0000
  H   H3574     1.0  0.50054  0.16549  0.67386  1.0000
  H   H3575     1.0  0.93705  0.13051  0.92456  1.0000
  H   H3576     1.0  0.81538  0.10384  0.82796  1.0000
  S   S463      1.0  0.92087  0.17024  0.80018  1.0000
  H   H3577     1.0  0.61288  0.03375  0.78965  1.0000
  S   S464      1.0  0.56349  0.18046  0.56110  1.0000
  N   N114      1.0  0.54387  0.01834  0.69034  1.0000
  H   H3578     1.0  0.81971  0.09122  0.80602  1.0000
  H   H3579     1.0  0.74405  0.14455  0.87089  1.0000
  C   C2024     1.0  0.84650  0.15872  0.78243  1.0000
  H   H3580     1.0  0.95180  0.12872  0.94442  1.0000
  H   H3581     1.0  0.56752  0.14681  0.49131  1.0000
  C   C2025     1.0  0.67162  0.03530  0.75826  1.0000
  C   C2026     1.0  0.88500  0.17548  0.97383  1.0000
  H   H3582     1.0  0.90667  0.06424  0.96600  1.0000
  H   H3583     1.0  0.57607  0.14054  0.60976  1.0000
  C   C2027     1.0  0.71691  0.00158  0.84970  1.0000
  H   H3584     1.0  0.67218  0.02479  0.52893  1.0000
  H   H3585     1.0  0.64921  0.08931  0.87400  1.0000
  C   C2028     1.0  0.50674  0.10686  0.55449  1.0000
  H   H3586     1.0  0.85345  0.09964  0.77608  1.0000
  N   N115      1.0  0.65293  0.06881  0.85230  1.0000
  C   C2029     1.0  0.64332  0.08536  0.83640  1.0000
  C   C2030     1.0  0.64641  0.04859  0.85242  1.0000
  H   H3587     1.0  0.87445  0.03114  0.90959  1.0000
  C   C2031     1.0  0.67630  0.06638  0.84901  1.0000
  C   C2032     1.0  0.68790  0.07076  0.82646  1.0000
  C   C2033     1.0  0.64506  0.10792  0.83700  1.0000
  H   H3588     1.0  0.73880  0.02249  0.96671  1.0000
  C   C2034     1.0  0.65367  0.03930  0.83243  1.0000
  C   C2035     1.0  0.64333  0.02076  0.83363  1.0000
  C   C2036     1.0  0.71133  0.06458  0.82532  1.0000
  C   C2037     1.0  0.63981  0.12276  0.81755  1.0000
  H   H3589     1.0  0.61356  0.07924  0.79059  1.0000
  H   H3590     1.0  0.62643  0.08507  0.83833  1.0000
  H   H3591     1.0  0.64987  0.08240  0.82060  1.0000
  H   H3592     1.0  0.59491  0.13999  0.97200  1.0000
  S   S465      1.0  0.51728  0.17019  0.56396  1.0000
  H   H3593     1.0  0.60151  0.14082  0.62713  1.0000
  H   H3594     1.0  0.71055  0.00858  0.95793  1.0000
  H   H3595     1.0  0.68097  0.07692  0.85719  1.0000
  H   H3596     1.0  0.68312  0.05049  0.85615  1.0000
  H   H3597     1.0  0.68469  0.08754  0.82004  1.0000
  H   H3598     1.0  0.68330  0.06236  0.81626  1.0000
  H   H3599     1.0  0.63382  0.11346  0.85014  1.0000
  H   H3600     1.0  0.66078  0.10903  0.83891  1.0000
  C   C2038     1.0  0.79114  0.11218  0.81017  1.0000
  H   H3601     1.0  0.67937  0.01832  0.78784  1.0000
  H   H3602     1.0  0.64990  0.05067  0.81870  1.0000
  H   H3603     1.0  0.67066  0.03358  0.83033  1.0000
  H   H3604     1.0  0.62665  0.07887  0.87514  1.0000
  H   H3605     1.0  0.62630  0.02570  0.83453  1.0000
  H   H3606     1.0  0.71571  0.04760  0.83021  1.0000
  H   H3607     1.0  0.71935  0.06889  0.80927  1.0000
  H   H3608     1.0  0.71673  0.07273  0.83531  1.0000
  H   H3609     1.0  0.62384  0.12245  0.81563  1.0000
  H   H3610     1.0  0.64057  0.13879  0.81885  1.0000
  H   H3611     1.0  0.65103  0.11856  0.80379  1.0000
  H   H3612     1.0  0.64639  0.00880  0.84729  1.0000
  H   H3613     1.0  0.63472  0.07864  0.72336  1.0000
  H   H3614     1.0  0.64081  0.99455  0.74090  1.0000
  C   C2039     1.0  0.82699  0.11379  0.91214  1.0000
  S   S466      1.0  0.72300  0.01477  0.86745  1.0000
  H   H3615     1.0  0.54674  0.04611  0.61068  1.0000
  H   H3616     1.0  0.50126  0.04923  0.61290  1.0000
  H   H3617     1.0  0.88194  0.16759  0.92666  1.0000
  H   H3618     1.0  0.53031  0.18083  0.65312  1.0000
  Fe  Fe232     1.0  0.62994  0.15587  0.88731  1.0000
  H   H3619     1.0  0.60079  0.15278  0.53457  1.0000
  C   C2040     1.0  0.53283  0.16332  0.97322  1.0000
  C   C2041     1.0  0.69474  0.15927  0.84373  1.0000
  H   H3620     1.0  0.56549  0.15672  0.83836  1.0000
  C   C2042     1.0  0.76358  0.15351  0.92636  1.0000
  H   H3621     1.0  0.68627  0.99927  0.86700  1.0000
  H   H3622     1.0  0.67079  0.05755  0.96479  1.0000
  H   H3623     1.0  0.66159  0.01085  0.74948  1.0000
  H   H3624     1.0  0.60503  0.03161  0.74785  1.0000
  H   H3625     1.0  0.61679  0.01389  0.76737  1.0000
  C   C2043     1.0  0.65767  0.07074  0.69757  1.0000
  H   H3626     1.0  0.92165  0.10101  0.93473  1.0000
  C   C2044     1.0  0.58716  0.17990  0.60883  1.0000
  S   S467      1.0  0.61810  0.15928  0.92024  1.0000
  H   H3627     1.0  0.64635  0.06985  0.68810  1.0000
  H   H3628     1.0  0.88351  0.06094  0.78662  1.0000
  C   C2045     1.0  0.60642  0.06510  0.79473  1.0000
  C   C2046     1.0  0.88901  0.17076  0.83319  1.0000
  H   H3629     1.0  0.55046  0.15393  0.61498  1.0000
  C   C2047     1.0  0.78874  0.12026  0.92742  1.0000
  H   H3630     1.0  0.64166  0.04555  0.89460  1.0000
  H   H3631     1.0  0.50719  0.14857  0.76362  1.0000
  S   S468      1.0  0.54815  0.17714  0.51919  1.0000
  S   S469      1.0  0.65837  0.16799  0.86945  1.0000
  C   C2048     1.0  0.63210  0.12181  0.52242  1.0000
  H   H3632     1.0  0.63428  0.06616  0.75806  1.0000
  Fe  Fe233     1.0  0.93088  0.13685  0.81309  1.0000
  H   H3633     1.0  0.62934  0.01235  0.72087  1.0000
  H   H3634     1.0  0.96572  0.11072  0.90447  1.0000
  H   H3635     1.0  0.59111  0.06874  0.78977  1.0000
  C   C2049     1.0  0.49311  0.11902  0.61859  1.0000
  H   H3636     1.0  0.65746  0.07169  0.51575  1.0000
  H   H3637     1.0  0.82393  0.12516  0.78215  1.0000
  H   H3638     1.0  0.95234  0.03279  0.78253  1.0000
  H   H3639     1.0  0.90734  0.07027  0.77506  1.0000
  H   H3640     1.0  0.74729  0.15922  0.93337  1.0000
  C   C2050     1.0  0.96704  0.11019  0.92070  1.0000
  C   C2051     1.0  0.75631  0.12078  0.96538  1.0000
  C   C2052     1.0  0.88534  0.16474  0.95814  1.0000
  Fe  Fe234     1.0  0.58787  0.17244  0.90986  1.0000
  H   H3641     1.0  0.62816  0.15559  0.96440  1.0000
  C   C2053     1.0  0.60047  0.15134  0.65568  1.0000
  H   H3642     1.0  0.69984  0.03023  0.77093  1.0000
  C   C2054     1.0  0.62269  0.14002  0.65655  1.0000
  H   H3643     1.0  0.65044  0.08176  0.91063  1.0000
  H   H3644     1.0  0.68029  0.03897  0.74238  1.0000
  H   H3645     1.0  0.50650  0.10958  0.62538  1.0000
  C   C2055     1.0  0.64177  0.04481  0.72656  1.0000
  H   H3646     1.0  0.66832  0.03850  0.95123  1.0000
  H   H3647     1.0  0.71907  0.13731  0.88117  1.0000
  H   H3648     1.0  0.75296  0.10420  0.94234  1.0000
  C   C2056     1.0  0.64261  0.06849  0.91173  1.0000
  C   C2057     1.0  0.68538  0.02499  0.53635  1.0000
  H   H3649     1.0  0.71688  0.00135  0.51483  1.0000
  C   C2058     1.0  0.91921  0.07260  0.95691  1.0000
  C   C2059     1.0  0.66401  0.11314  0.96284  1.0000
  H   H3650     1.0  0.54894  0.16231  0.80753  1.0000
  H   H3651     1.0  0.57428  0.01008  0.69866  1.0000
  C   C2060     1.0  0.76790  0.16850  0.90559  1.0000
  C   C2061     1.0  0.62018  0.02229  0.75130  1.0000
  N   N116      1.0  0.63567  0.03640  0.74923  1.0000
  H   H3652     1.0  0.98256  0.05754  0.74145  1.0000
  C   C2062     1.0  0.53336  0.06633  0.58515  1.0000
  C   C2063     1.0  0.62655  0.00540  0.73739  1.0000
  C   C2064     1.0  0.81413  0.10622  0.81149  1.0000
  C   C2065     1.0  0.49627  0.16351  0.76406  1.0000
  S   S470      1.0  0.60021  0.17108  0.87621  1.0000
  H   H3653     1.0  0.68225  0.01538  0.68460  1.0000
  C   C2066     1.0  0.73121  0.99617  0.83249  1.0000
  H   H3654     1.0  0.52624  0.15997  0.64273  1.0000
  H   H3655     1.0  0.69386  0.00708  0.76588  1.0000
  S   S471      1.0  0.58629  0.11872  0.86192  1.0000
  C   C2067     1.0  0.53254  0.01543  0.71237  1.0000
  C   C2068     1.0  0.59040  0.14224  0.64178  1.0000
  H   H3656     1.0  0.96955  0.16738  0.88469  1.0000
  C   C2069     1.0  0.51655  0.15736  0.67533  1.0000
  C   C2070     1.0  0.55420  0.15307  0.65753  1.0000
  H   H3657     1.0  0.55892  0.16094  0.66823  1.0000
  H   H3658     1.0  0.54524  0.12200  0.60349  1.0000
  H   H3659     1.0  0.56949  0.10493  0.60753  1.0000
  C   C2071     1.0  0.88262  0.09355  0.78700  1.0000
  H   H3660     1.0  0.84766  0.10301  0.83021  1.0000
  C   C2072     1.0  0.50598  0.10199  0.53362  1.0000
  H   H3661     1.0  0.72976  0.12096  0.91423  1.0000
  H   H3662     1.0  0.52184  0.07929  0.61322  1.0000
  H   H3663     1.0  0.66553  0.04984  0.76447  1.0000
  C   C2073     1.0  0.53155  0.16374  0.65569  1.0000
  H   H3664     1.0  0.72945  0.98774  0.92420  1.0000
  N   N117      1.0  0.56940  0.15377  0.63752  1.0000
  H   H3665     1.0  0.66150  0.08657  0.69341  1.0000
  Fe  Fe235     1.0  0.59294  0.13879  0.88254  1.0000
  H   H3666     1.0  0.96968  0.99641  0.78401  1.0000
  C   C2074     1.0  0.75248  0.12058  0.94356  1.0000
  S   S472      1.0  0.59301  0.99351  0.59217  1.0000
  C   C2075     1.0  0.69616  0.00291  0.54350  1.0000
  C   C2076     1.0  0.56486  0.00461  0.68990  1.0000
  H   H3667     1.0  0.61323  0.12703  0.49002  1.0000
  S   S473      1.0  0.83785  0.12298  0.96663  1.0000
  H   H3668     1.0  0.50252  0.12573  0.79160  1.0000
  C   C2077     1.0  0.57006  0.17611  0.62798  1.0000
  H   H3669     1.0  0.63250  0.14211  0.64104  1.0000
  H   H3670     1.0  0.66544  0.08897  0.52839  1.0000
  H   H3671     1.0  0.52144  0.00156  0.68552  1.0000
  C   C2078     1.0  0.88179  0.17580  0.93882  1.0000
  C   C2079     1.0  0.54304  0.00445  0.65711  1.0000
  H   H3672     1.0  0.52056  0.02078  0.63749  1.0000
  C   C2080     1.0  0.67796  0.04193  0.96119  1.0000
  H   H3673     1.0  0.59480  0.13291  0.51216  1.0000
  C   C2081     1.0  0.67614  0.99254  0.66902  1.0000
  H   H3674     1.0  0.75430  0.99581  0.91683  1.0000
  H   H3675     1.0  0.94115  0.08872  0.96399  1.0000
  H   H3676     1.0  0.48968  0.10297  0.53191  1.0000
  H   H3677     1.0  0.75605  0.16936  0.89609  1.0000
  C   C2082     1.0  0.72636  0.98412  0.81994  1.0000
  H   H3678     1.0  0.66372  0.99120  0.66118  1.0000
  H   H3679     1.0  0.49463  0.00773  0.73798  1.0000
  H   H3680     1.0  0.76547  0.07216  0.96340  1.0000
  H   H3681     1.0  0.50201  0.03195  0.70495  1.0000
  H   H3682     1.0  0.49506  0.12851  0.82842  1.0000
  H   H3683     1.0  0.98398  0.11090  0.76583  1.0000
  C   C2083     1.0  0.59692  0.15793  0.48586  1.0000
  H   H3684     1.0  0.62585  0.18190  0.96790  1.0000
  H   H3685     1.0  0.98730  0.08136  0.90133  1.0000
  H   H3686     1.0  0.52080  0.16133  0.68885  1.0000
  H   H3687     1.0  0.58669  0.17080  0.59712  1.0000
  H   H3688     1.0  0.49713  0.08504  0.70279  1.0000
  H   H3689     1.0  0.92582  0.16607  0.90742  1.0000
  H   H3690     1.0  0.95141  0.17811  0.92090  1.0000
  H   H3691     1.0  0.94341  0.18114  0.96023  1.0000
  C   C2084     1.0  0.87418  0.18054  0.84774  1.0000
  C   C2085     1.0  0.82503  0.17635  0.93546  1.0000
  C   C2086     1.0  0.58090  0.99281  0.79213  1.0000
  H   H3692     1.0  0.49503  0.10277  0.82474  1.0000
  H   H3693     1.0  0.49904  0.16501  0.73084  1.0000
  H   H3694     1.0  0.69335  0.99254  0.51607  1.0000
  H   H3695     1.0  0.69281  0.17584  0.83843  1.0000
  C   C2087     1.0  0.57917  0.15261  0.47819  1.0000
  H   H3696     1.0  0.78425  0.98900  0.97400  1.0000
  H   H3697     1.0  0.64408  0.18007  0.49858  1.0000
  H   H3698     1.0  0.52923  0.99940  0.71741  1.0000
  H   H3699     1.0  0.51652  0.99493  0.65025  1.0000
  C   C2088     1.0  0.92679  0.18276  0.90415  1.0000
  Fe  Fe236     1.0  0.95449  0.31304  0.27086  1.0000
  S   S474      1.0  0.93683  0.34284  0.28059  1.0000
  S   S475      1.0  0.97341  0.31301  0.23896  1.0000
  Fe  Fe237     1.0  0.93725  0.28681  0.31078  1.0000
  S   S476      1.0  0.91854  0.31418  0.32404  1.0000
  S   S477      1.0  0.93733  0.25439  0.32808  1.0000
  Fe  Fe238     1.0  0.91036  0.32548  0.29259  1.0000
  H   H3700     1.0  0.49778  0.19741  0.03573  1.0000
  Fe  Fe239     1.0  0.94682  0.32867  0.31100  1.0000
  S   S478      1.0  0.95909  0.34533  0.33007  1.0000
  S   S479      1.0  0.92714  0.29685  0.28023  1.0000
  S   S480      1.0  0.96634  0.30021  0.30046  1.0000
  H   H3701     1.0  0.52198  0.24415  0.14558  1.0000
  Fe  Fe240     1.0  0.58961  0.29377  0.03231  1.0000
  S   S481      1.0  0.57570  0.30094  0.00334  1.0000
  S   S482      1.0  0.61103  0.31092  0.04211  1.0000
  Fe  Fe241     1.0  0.57380  0.25245  0.04638  1.0000
  S   S483      1.0  0.55844  0.25647  0.01911  1.0000
  S   S484      1.0  0.57387  0.22412  0.07125  1.0000
  Fe  Fe242     1.0  0.58707  0.26727  0.00040  1.0000
  Fe  Fe243     1.0  0.54817  0.28928  0.02437  1.0000
  S   S485      1.0  0.51473  0.30323  0.02377  1.0000
  S   S486      1.0  0.60345  0.26103  0.02750  1.0000
  S   S487      1.0  0.56115  0.28434  0.05338  1.0000
  C   C2089     1.0  0.92861  0.20391  0.29491  1.0000
  H   H3702     1.0  0.82237  0.31837  0.44232  1.0000
  H   H3703     1.0  0.87963  0.32406  0.46382  1.0000
  Fe  Fe244     1.0  0.60566  0.34883  0.39948  1.0000
  S   S488      1.0  0.61059  0.31408  0.40561  1.0000
  H   H3704     1.0  0.69536  0.37850  0.31958  1.0000
  Fe  Fe245     1.0  0.61254  0.35079  0.44276  1.0000
  S   S489      1.0  0.61800  0.31634  0.45169  1.0000
  H   H3705     1.0  0.88042  0.33666  0.35835  1.0000
  Fe  Fe246     1.0  0.63707  0.31639  0.42013  1.0000
  S   S490      1.0  0.66731  0.29399  0.41757  1.0000
  Fe  Fe247     1.0  0.59118  0.31743  0.43669  1.0000
  H   H3706     1.0  0.96301  0.28932  0.36861  1.0000
  S   S491      1.0  0.63359  0.35100  0.41211  1.0000
  S   S492      1.0  0.58417  0.35212  0.42957  1.0000
  C   C2090     1.0  0.81875  0.19114  0.00183  1.0000
  S   S493      1.0  0.53468  0.35875  0.25223  1.0000
  C   C2091     1.0  0.92620  0.22137  0.45509  1.0000
  S   S494      1.0  0.54744  0.34989  0.30906  1.0000
  H   H3707     1.0  0.72269  0.33880  0.41625  1.0000
  H   H3708     1.0  0.95559  0.24640  0.36610  1.0000
  C   C2092     1.0  0.78372  0.33117  0.31212  1.0000
  S   S495      1.0  0.85106  0.22653  0.33789  1.0000
  C   C2093     1.0  0.63735  0.36291  0.98166  1.0000
  H   H3709     1.0  0.94523  0.19041  0.39486  1.0000
  H   H3710     1.0  0.53585  0.23714  0.05454  1.0000
  H   H3711     1.0  0.93302  0.23040  0.40296  1.0000
  H   H3712     1.0  0.68343  0.33225  0.33898  1.0000
  H   H3713     1.0  0.75483  0.22286  0.01703  1.0000
  H   H3714     1.0  0.70775  0.34658  0.37679  1.0000
  C   C2094     1.0  0.96527  0.20207  0.23222  1.0000
  H   H3715     1.0  0.51305  0.28748  0.08307  1.0000
  H   H3716     1.0  0.95026  0.20945  0.22728  1.0000
  H   H3717     1.0  0.97421  0.25477  0.30005  1.0000
  C   C2095     1.0  0.59238  0.36481  0.98140  1.0000
  C   C2096     1.0  0.58743  0.36283  0.35094  1.0000
  C   C2097     1.0  0.58250  0.34316  0.35324  1.0000
  C   C2098     1.0  0.57087  0.33922  0.33986  1.0000
  C   C2099     1.0  0.56422  0.35479  0.32391  1.0000
  H   H3718     1.0  0.87755  0.18646  0.43158  1.0000
  C   C2100     1.0  0.53345  0.34567  0.38964  1.0000
  H   H3719     1.0  0.58732  0.33110  0.36556  1.0000
  H   H3720     1.0  0.56670  0.32410  0.34206  1.0000
  S   S496      1.0  0.56450  0.30140  0.45344  1.0000
  H   H3721     1.0  0.64922  0.28669  0.01656  1.0000
  H   H3722     1.0  0.78689  0.23311  0.99517  1.0000
  H   H3723     1.0  0.68468  0.36327  0.35315  1.0000
  H   H3724     1.0  0.60401  0.27477  0.45944  1.0000
  C   C2101     1.0  0.98208  0.20040  0.21314  1.0000
  H   H3725     1.0  0.82176  0.23268  0.31002  1.0000
  C   C2102     1.0  0.92440  0.27046  0.23211  1.0000
  H   H3726     1.0  0.54502  0.23610  0.46635  1.0000
  H   H3727     1.0  0.91177  0.25859  0.38208  1.0000
  C   C2103     1.0  0.97357  0.24688  0.27066  1.0000
  C   C2104     1.0  0.83413  0.21426  0.44778  1.0000
  H   H3728     1.0  0.95020  0.23268  0.29192  1.0000
  H   H3729     1.0  0.58017  0.35830  0.10163  1.0000
  H   H3730     1.0  0.97749  0.19286  0.32535  1.0000
  H   H3731     1.0  0.89023  0.24488  0.38996  1.0000
  C   C2105     1.0  0.50979  0.27151  0.08596  1.0000
  H   H3732     1.0  0.56650  0.30098  0.40834  1.0000
  C   C2106     1.0  0.60718  0.33575  0.04922  1.0000
  C   C2107     1.0  0.62338  0.34133  0.05589  1.0000
  C   C2108     1.0  0.70773  0.33036  0.38266  1.0000
  H   H3733     1.0  0.77894  0.28347  0.47390  1.0000
  S   S497      1.0  0.82639  0.19505  0.43811  1.0000
  C   C2109     1.0  0.58911  0.35038  0.04726  1.0000
  C   C2110     1.0  0.65917  0.35971  0.33964  1.0000
  C   C2111     1.0  0.51717  0.38092  0.35658  1.0000
  H   H3734     1.0  0.57642  0.34628  0.04239  1.0000
  H   H3735     1.0  0.62162  0.30227  0.99578  1.0000
  C   C2112     1.0  0.51557  0.32509  0.05340  1.0000
  C   C2113     1.0  0.92155  0.36988  0.36790  1.0000
  H   H3736     1.0  0.53148  0.32584  0.04621  1.0000
  H   H3737     1.0  0.50440  0.34863  0.17849  1.0000
  C   C2114     1.0  0.72564  0.31583  0.37806  1.0000
  C   C2115     1.0  0.72538  0.29476  0.38543  1.0000
  C   C2116     1.0  0.70743  0.28828  0.39761  1.0000
  C   C2117     1.0  0.68948  0.30276  0.40216  1.0000
  C   C2118     1.0  0.68966  0.32383  0.39465  1.0000
  H   H3738     1.0  0.94733  0.24521  0.22262  1.0000
  H   H3739     1.0  0.73912  0.28343  0.38186  1.0000
  H   H3740     1.0  0.70737  0.27196  0.40335  1.0000
  H   H3741     1.0  0.67595  0.33502  0.39825  1.0000
  Fe  Fe248     1.0  0.85220  0.19763  0.36187  1.0000
  C   C2119     1.0  0.50043  0.24152  0.11400  1.0000
  H   H3742     1.0  0.79504  0.33930  0.30057  1.0000
  H   H3743     1.0  0.56509  0.35022  0.98686  1.0000
  H   H3744     1.0  0.64198  0.36272  0.34268  1.0000
  H   H3745     1.0  0.85435  0.33355  0.37027  1.0000
  H   H3746     1.0  0.54356  0.33216  0.41964  1.0000
  H   H3747     1.0  0.51964  0.21882  0.15865  1.0000
  C   C2120     1.0  0.77059  0.21092  0.98909  1.0000
  H   H3748     1.0  0.52313  0.36591  0.35120  1.0000
  H   H3749     1.0  0.69704  0.31556  0.47353  1.0000
  H   H3750     1.0  0.98322  0.35439  0.28576  1.0000
  S   S498      1.0  0.49386  0.18390  0.08657  1.0000
  C   C2121     1.0  0.91346  0.24686  0.33000  1.0000
  C   C2122     1.0  0.89642  0.26121  0.32400  1.0000
  C   C2123     1.0  0.87729  0.25491  0.32621  1.0000
  C   C2124     1.0  0.87519  0.23431  0.33429  1.0000
  C   C2125     1.0  0.89234  0.22005  0.34009  1.0000
  C   C2126     1.0  0.91139  0.22629  0.33798  1.0000
  H   H3751     1.0  0.89783  0.27722  0.31801  1.0000
  H   H3752     1.0  0.86402  0.26604  0.32224  1.0000
  H   H3753     1.0  0.89102  0.20411  0.34627  1.0000
  H   H3754     1.0  0.92445  0.21515  0.34279  1.0000
  C   C2127     1.0  0.64222  0.32506  0.99075  1.0000
  C   C2128     1.0  0.62860  0.20943  0.05954  1.0000
  H   H3755     1.0  0.78961  0.27121  0.29822  1.0000
  H   H3756     1.0  0.87924  0.18986  0.45681  1.0000
  C   C2129     1.0  0.84773  0.24272  0.46518  1.0000
  H   H3757     1.0  0.64458  0.20794  0.05050  1.0000
  C   C2130     1.0  0.87098  0.32646  0.36978  1.0000
  H   H3758     1.0  0.91166  0.20237  0.40182  1.0000
  H   H3759     1.0  0.56066  0.18686  0.03563  1.0000
  C   C2131     1.0  0.93264  0.19369  0.98807  1.0000
  H   H3760     1.0  0.56004  0.30915  0.38299  1.0000
  H   H3761     1.0  0.71781  0.37089  0.16755  1.0000
  C   C2132     1.0  0.87256  0.33602  0.42352  1.0000
  C   C2133     1.0  0.63784  0.30385  0.98875  1.0000
  H   H3762     1.0  0.97473  0.21704  0.35923  1.0000
  C   C2134     1.0  0.56989  0.36330  0.99122  1.0000
  C   C2135     1.0  0.55186  0.21280  0.07484  1.0000
  C   C2136     1.0  0.53527  0.22249  0.06475  1.0000
  C   C2137     1.0  0.51753  0.21352  0.06831  1.0000
  H   H3763     1.0  0.87387  0.29139  0.26507  1.0000
  H   H3764     1.0  0.82350  0.31992  0.28892  1.0000
  C   C2138     1.0  0.80527  0.35827  0.46045  1.0000
  H   H3765     1.0  0.97970  0.26124  0.33509  1.0000
  C   C2139     1.0  0.77019  0.35272  0.46307  1.0000
  C   C2140     1.0  0.53954  0.21979  0.12912  1.0000
  C   C2141     1.0  0.50673  0.33434  0.07074  1.0000
  C   C2142     1.0  0.55904  0.21877  0.13778  1.0000
  N   N118      1.0  0.91784  0.19760  0.43286  1.0000
  H   H3766     1.0  0.54147  0.22944  0.11355  1.0000
  H   H3767     1.0  0.64281  0.35527  0.01366  1.0000
  H   H3768     1.0  0.54707  0.36179  0.16354  1.0000
  H   H3769     1.0  0.53105  0.35746  0.20123  1.0000
  C   C2143     1.0  0.94446  0.20174  0.27480  1.0000
  C   C2144     1.0  0.59166  0.26810  0.47005  1.0000
  N   N119      1.0  0.95347  0.22075  0.26374  1.0000
  C   C2145     1.0  0.78599  0.37422  0.43282  1.0000
  H   H3770     1.0  0.75129  0.30751  0.45846  1.0000
  H   H3771     1.0  0.65477  0.33420  0.46030  1.0000
  C   C2146     1.0  0.93631  0.23721  0.25594  1.0000
  C   C2147     1.0  0.94257  0.25297  0.23626  1.0000
  H   H3772     1.0  0.51841  0.30467  0.17854  1.0000
  S   S499      1.0  0.82075  0.38183  0.35750  1.0000
  C   C2148     1.0  0.54933  0.33236  0.40298  1.0000
  C   C2149     1.0  0.66624  0.33624  0.34229  1.0000
  H   H3773     1.0  0.60484  0.34195  0.00571  1.0000
  H   H3774     1.0  0.91405  0.23389  0.37481  1.0000
  H   H3775     1.0  0.50479  0.22126  0.06053  1.0000
  C   C2150     1.0  0.49959  0.35313  0.42521  1.0000
  C   C2151     1.0  0.75402  0.29973  0.44484  1.0000
  N   N120      1.0  0.49954  0.23080  0.13610  1.0000
  H   H3776     1.0  0.56406  0.33847  0.39878  1.0000
  H   H3777     1.0  0.82186  0.22299  0.99506  1.0000
  H   H3778     1.0  0.87407  0.34883  0.43087  1.0000
  H   H3779     1.0  0.92430  0.23003  0.25235  1.0000
  H   H3780     1.0  0.92792  0.24615  0.26831  1.0000
  C   C2152     1.0  0.53000  0.36572  0.16831  1.0000
  H   H3781     1.0  0.86545  0.31362  0.40153  1.0000
  H   H3782     1.0  0.75720  0.34558  0.47159  1.0000
  C   C2153     1.0  0.55427  0.30993  0.39953  1.0000
  H   H3783     1.0  0.91673  0.21814  0.29287  1.0000
  C   C2154     1.0  0.98515  0.25022  0.28639  1.0000
  H   H3784     1.0  0.86794  0.24817  0.43590  1.0000
  H   H3785     1.0  0.57284  0.21229  0.12720  1.0000
  C   C2155     1.0  0.66766  0.36880  0.35475  1.0000
  S   S500      1.0  0.57341  0.36772  0.20374  1.0000
  H   H3786     1.0  0.58233  0.33927  0.12467  1.0000
  C   C2156     1.0  0.91131  0.20816  0.45156  1.0000
  H   H3787     1.0  0.93137  0.23218  0.44100  1.0000
  C   C2157     1.0  0.79076  0.30170  0.43623  1.0000
  H   H3788     1.0  0.49145  0.32850  0.16145  1.0000
  H   H3789     1.0  0.81622  0.30065  0.27944  1.0000
  C   C2158     1.0  0.96248  0.22802  0.27901  1.0000
  C   C2159     1.0  0.87959  0.31101  0.45613  1.0000
  C   C2160     1.0  0.98533  0.25586  0.35004  1.0000
  C   C2161     1.0  0.83616  0.37052  0.33692  1.0000
  H   H3790     1.0  0.93649  0.19655  0.26449  1.0000
  C   C2162     1.0  0.50563  0.28683  0.16344  1.0000
  H   H3791     1.0  0.84412  0.35389  0.40011  1.0000
  H   H3792     1.0  0.97062  0.25183  0.38282  1.0000
  H   H3793     1.0  0.49068  0.22901  0.17987  1.0000
  H   H3794     1.0  0.94826  0.28411  0.35141  1.0000
  H   H3795     1.0  0.88131  0.20553  0.98218  1.0000
  H   H3796     1.0  0.57370  0.33328  0.10330  1.0000
  H   H3797     1.0  0.56077  0.23450  0.13907  1.0000
  C   C2163     1.0  0.76891  0.36543  0.44394  1.0000
  H   H3798     1.0  0.83343  0.34683  0.29814  1.0000
  H   H3799     1.0  0.88682  0.30266  0.42640  1.0000
  H   H3800     1.0  0.59602  0.37846  0.98575  1.0000
  H   H3801     1.0  0.94855  0.20586  0.42467  1.0000
  H   H3802     1.0  0.72131  0.33314  0.44363  1.0000
  H   H3803     1.0  0.54029  0.30259  0.40495  1.0000
  C   C2164     1.0  0.87674  0.32298  0.39142  1.0000
  N   N121      1.0  0.77557  0.28688  0.44213  1.0000
  S   S501      1.0  0.77631  0.35374  0.38705  1.0000
  H   H3804     1.0  0.54171  0.21140  0.46248  1.0000
  H   H3805     1.0  0.90981  0.24234  0.41841  1.0000
  Fe  Fe249     1.0  0.54077  0.37071  0.27887  1.0000
  H   H3806     1.0  0.93678  0.20448  0.30738  1.0000
  H   H3807     1.0  0.97359  0.21497  0.28610  1.0000
  H   H3808     1.0  0.51589  0.34217  0.07690  1.0000
  H   H3809     1.0  0.96486  0.33343  0.37205  1.0000
  C   C2165     1.0  0.91595  0.23426  0.47183  1.0000
  C   C2166     1.0  0.98727  0.22031  0.34591  1.0000
  H   H3810     1.0  0.51466  0.37453  0.13094  1.0000
  H   H3811     1.0  0.91935  0.27922  0.24505  1.0000
  H   H3812     1.0  0.80542  0.25648  0.39352  1.0000
  C   C2167     1.0  0.51561  0.36769  0.41581  1.0000
  H   H3813     1.0  0.79364  0.26294  0.46171  1.0000
  C   C2168     1.0  0.96603  0.25660  0.36744  1.0000
  H   H3814     1.0  0.89215  0.31262  0.39100  1.0000
  H   H3815     1.0  0.55848  0.20862  0.15313  1.0000
  H   H3816     1.0  0.75283  0.31056  0.41173  1.0000
  H   H3817     1.0  0.63679  0.18388  0.08296  1.0000
  H   H3818     1.0  0.77741  0.30034  0.32531  1.0000
  S   S502      1.0  0.86690  0.20065  0.38750  1.0000
  S   S503      1.0  0.87748  0.33622  0.28742  1.0000
  H   H3819     1.0  0.80356  0.19394  0.01205  1.0000
  C   C2169     1.0  0.89762  0.34850  0.39400  1.0000
  Fe  Fe250     1.0  0.75359  0.35431  0.36704  1.0000
  C   C2170     1.0  0.64726  0.38121  0.46062  1.0000
  C   C2171     1.0  0.81108  0.27370  0.31776  1.0000
  C   C2172     1.0  0.81891  0.30304  0.32903  1.0000
  H   H3820     1.0  0.50345  0.35019  0.45702  1.0000
  H   H3821     1.0  0.66451  0.36645  0.32339  1.0000
  C   C2173     1.0  0.84640  0.29238  0.28879  1.0000
  H   H3822     1.0  0.86367  0.30740  0.45943  1.0000
  C   C2174     1.0  0.80699  0.29826  0.35137  1.0000
  C   C2175     1.0  0.81368  0.30934  0.36571  1.0000
  C   C2176     1.0  0.85723  0.29864  0.26668  1.0000
  C   C2177     1.0  0.80583  0.24081  0.30823  1.0000
  H   H3823     1.0  0.80016  0.26959  0.33228  1.0000
  H   H3824     1.0  0.82657  0.26541  0.32102  1.0000
  N   N122      1.0  0.87672  0.34188  0.40031  1.0000
  H   H3825     1.0  0.49599  0.27178  0.07926  1.0000
  H   H3826     1.0  0.93522  0.35975  0.37368  1.0000
  H   H3827     1.0  0.89107  0.36874  0.36459  1.0000
  C   C2178     1.0  0.49506  0.20935  0.13788  1.0000
  H   H3828     1.0  0.84803  0.27528  0.29193  1.0000
  H   H3829     1.0  0.85485  0.29714  0.29893  1.0000
  H   H3830     1.0  0.62656  0.22128  0.06938  1.0000
  H   H3831     1.0  0.75009  0.33333  0.31831  1.0000
  H   H3832     1.0  0.79008  0.30314  0.35228  1.0000
  H   H3833     1.0  0.81014  0.28135  0.35736  1.0000
  H   H3834     1.0  0.83037  0.30400  0.36627  1.0000
  H   H3835     1.0  0.81077  0.32638  0.36035  1.0000
  H   H3836     1.0  0.80471  0.30590  0.38149  1.0000
  H   H3837     1.0  0.85625  0.31572  0.26272  1.0000
  H   H3838     1.0  0.56307  0.18695  0.09692  1.0000
  H   H3839     1.0  0.85014  0.29340  0.25571  1.0000
  H   H3840     1.0  0.64988  0.37607  0.44604  1.0000
  H   H3841     1.0  0.79517  0.23762  0.32311  1.0000
  H   H3842     1.0  0.80088  0.23446  0.29654  1.0000
  N   N123      1.0  0.62990  0.34395  0.97950  1.0000
  C   C2179     1.0  0.72579  0.32625  0.42943  1.0000
  C   C2180     1.0  0.77770  0.27440  0.42537  1.0000
  H   H3843     1.0  0.81656  0.26616  0.28656  1.0000
  H   H3844     1.0  0.78335  0.30517  0.29823  1.0000
  H   H3845     1.0  0.88718  0.35741  0.31622  1.0000
  C   C2181     1.0  0.79787  0.24552  0.40616  1.0000
  S   S504      1.0  0.59907  0.36955  0.36930  1.0000
  C   C2182     1.0  0.84020  0.35265  0.30835  1.0000
  H   H3846     1.0  0.78434  0.33427  0.32745  1.0000
  H   H3847     1.0  0.50676  0.33669  0.42486  1.0000
  H   H3848     1.0  0.83513  0.29496  0.32950  1.0000
  C   C2183     1.0  0.86177  0.35023  0.30591  1.0000
  S   S505      1.0  0.74850  0.32350  0.36310  1.0000
  H   H3849     1.0  0.81983  0.31977  0.32515  1.0000
  H   H3850     1.0  0.67393  0.37194  0.39345  1.0000
  C   C2184     1.0  0.52588  0.37115  0.18981  1.0000
  C   C2185     1.0  0.97980  0.32970  0.34122  1.0000
  C   C2186     1.0  0.97082  0.21422  0.24679  1.0000
  H   H3851     1.0  0.80856  0.23037  0.40756  1.0000
  C   C2187     1.0  0.76153  0.26028  0.47294  1.0000
  C   C2188     1.0  0.82737  0.30861  0.43018  1.0000
  C   C2189     1.0  0.62483  0.18872  0.07303  1.0000
  H   H3852     1.0  0.80828  0.25479  0.43004  1.0000
  C   C2190     1.0  0.97861  0.32662  0.36254  1.0000
  H   H3853     1.0  0.81078  0.36355  0.32640  1.0000
  C   C2191     1.0  0.50916  0.37746  0.38024  1.0000
  H   H3854     1.0  0.91112  0.26418  0.23000  1.0000
  H   H3855     1.0  0.78336  0.24329  0.40221  1.0000
  H   H3856     1.0  0.65913  0.32511  0.98599  1.0000
  H   H3857     1.0  0.97402  0.37699  0.25429  1.0000
  C   C2192     1.0  0.78600  0.22642  0.98171  1.0000
  H   H3858     1.0  0.73470  0.35856  0.14736  1.0000
  H   H3859     1.0  0.55220  0.37721  0.37297  1.0000
  H   H3860     1.0  0.97928  0.22749  0.33255  1.0000
  C   C2193     1.0  0.59358  0.37912  0.18756  1.0000
  H   H3861     1.0  0.78690  0.24157  0.43871  1.0000
  H   H3862     1.0  0.78179  0.28406  0.40999  1.0000
  H   H3863     1.0  0.53885  0.20383  0.12772  1.0000
  H   H3864     1.0  0.50915  0.37689  0.19458  1.0000
  C   C2194     1.0  0.53292  0.18508  0.09202  1.0000
  H   H3865     1.0  0.64823  0.27099  0.99840  1.0000
  C   C2195     1.0  0.78828  0.30748  0.31216  1.0000
  H   H3866     1.0  0.78746  0.31222  0.44773  1.0000
  C   C2196     1.0  0.62182  0.36139  0.06006  1.0000
  H   H3867     1.0  0.90301  0.31916  0.43032  1.0000
  H   H3868     1.0  0.89575  0.21812  0.45136  1.0000
  H   H3869     1.0  0.77735  0.19607  0.99784  1.0000
  H   H3870     1.0  0.91015  0.33514  0.39746  1.0000
  H   H3871     1.0  0.63742  0.33013  0.05753  1.0000
  H   H3872     1.0  0.54242  0.36073  0.10796  1.0000
  H   H3873     1.0  0.74307  0.23454  0.99451  1.0000
  H   H3874     1.0  0.66054  0.32873  0.35825  1.0000
  N   N124      1.0  0.51849  0.34288  0.14779  1.0000
  H   H3875     1.0  0.86448  0.37648  0.34272  1.0000
  C   C2197     1.0  0.53982  0.33651  0.13553  1.0000
  C   C2198     1.0  0.51637  0.19470  0.08185  1.0000
  C   C2199     1.0  0.51996  0.34702  0.16846  1.0000
  C   C2200     1.0  0.75098  0.21989  0.00284  1.0000
  C   C2201     1.0  0.91760  0.18521  0.30202  1.0000
  C   C2202     1.0  0.51768  0.30395  0.16246  1.0000
  H   H3876     1.0  0.85621  0.33371  0.42908  1.0000
  H   H3877     1.0  0.50698  0.20057  0.12726  1.0000
  H   H3878     1.0  0.49636  0.20020  0.15350  1.0000
  C   C2203     1.0  0.90740  0.24303  0.38725  1.0000
  H   H3879     1.0  0.54137  0.34588  0.37345  1.0000
  H   H3880     1.0  0.65988  0.32996  0.33150  1.0000
  H   H3881     1.0  0.55059  0.32745  0.14604  1.0000
  H   H3882     1.0  0.53912  0.32590  0.12512  1.0000
  C   C2204     1.0  0.50689  0.32507  0.15158  1.0000
  H   H3883     1.0  0.71623  0.31437  0.43033  1.0000
  Fe  Fe251     1.0  0.78675  0.38026  0.36388  1.0000
  H   H3884     1.0  0.52939  0.33351  0.17691  1.0000
  C   C2205     1.0  0.80542  0.26406  0.30123  1.0000
  C   C2206     1.0  0.59774  0.37737  0.16673  1.0000
  C   C2207     1.0  0.55063  0.35394  0.12117  1.0000
  H   H3885     1.0  0.94017  0.21100  0.46015  1.0000
  H   H3886     1.0  0.56789  0.36101  0.00825  1.0000
  H   H3887     1.0  0.53362  0.29923  0.15425  1.0000
  H   H3888     1.0  0.50371  0.32276  0.13673  1.0000
  C   C2208     1.0  0.81402  0.29199  0.43379  1.0000
  H   H3889     1.0  0.76254  0.27031  0.42505  1.0000
  H   H3890     1.0  0.92924  0.28138  0.21790  1.0000
  C   C2209     1.0  0.49085  0.35485  0.44774  1.0000
  H   H3891     1.0  0.63910  0.32543  0.00749  1.0000
  H   H3892     1.0  0.52042  0.26367  0.11467  1.0000
  C   C2210     1.0  0.50371  0.31519  0.04519  1.0000
  H   H3893     1.0  0.58837  0.36940  0.16098  1.0000
  C   C2211     1.0  0.90885  0.21096  0.41482  1.0000
  N   N125      1.0  0.52532  0.36749  0.39353  1.0000
  H   H3894     1.0  0.51074  0.23918  0.45772  1.0000
  H   H3895     1.0  0.84365  0.30090  0.43075  1.0000
  H   H3896     1.0  0.51131  0.23174  0.10356  1.0000
  C   C2212     1.0  0.54313  0.37916  0.38837  1.0000
  H   H3897     1.0  0.95704  0.18870  0.27888  1.0000
  H   H3898     1.0  0.89077  0.29821  0.36099  1.0000
  H   H3899     1.0  0.90325  0.24640  0.46645  1.0000
  H   H3900     1.0  0.90944  0.34518  0.36183  1.0000
  H   H3901     1.0  0.97803  0.19091  0.20347  1.0000
  Fe  Fe252     1.0  0.75212  0.37781  0.40066  1.0000
  H   H3902     1.0  0.86989  0.30872  0.34676  1.0000
  H   H3903     1.0  0.75734  0.32958  0.42478  1.0000
  C   C2213     1.0  0.85594  0.23981  0.44485  1.0000
  H   H3904     1.0  0.86468  0.29520  0.37296  1.0000
  C   C2214     1.0  0.87054  0.35875  0.31841  1.0000
  C   C2215     1.0  0.51980  0.22890  0.14326  1.0000
  H   H3905     1.0  0.97936  0.38073  0.35071  1.0000
  H   H3906     1.0  0.82644  0.31872  0.41495  1.0000
  H   H3907     1.0  0.89882  0.35966  0.40355  1.0000
  H   H3908     1.0  0.85525  0.22393  0.42043  1.0000
  H   H3909     1.0  0.81871  0.28426  0.42014  1.0000
  H   H3910     1.0  0.81780  0.28076  0.44763  1.0000
  H   H3911     1.0  0.52390  0.37970  0.15790  1.0000
  C   C2216     1.0  0.88684  0.31645  0.43295  1.0000
  H   H3912     1.0  0.66841  0.28631  0.99318  1.0000
  H   H3913     1.0  0.55078  0.36650  0.12934  1.0000
  H   H3914     1.0  0.93966  0.27878  0.37885  1.0000
  C   C2217     1.0  0.58767  0.37056  0.05109  1.0000
  H   H3915     1.0  0.52048  0.33721  0.39122  1.0000
  H   H3916     1.0  0.78896  0.31186  0.42117  1.0000
  H   H3917     1.0  0.63457  0.36550  0.06483  1.0000
  H   H3918     1.0  0.89174  0.21461  0.41892  1.0000
  C   C2218     1.0  0.79334  0.25358  0.42647  1.0000
  N   N126      1.0  0.81044  0.29680  0.31277  1.0000
  H   H3919     1.0  0.48989  0.34320  0.24023  1.0000
  C   C2219     1.0  0.57305  0.34560  0.11222  1.0000
  C   C2220     1.0  0.82333  0.30306  0.29198  1.0000
  H   H3920     1.0  0.66104  0.36126  0.37036  1.0000
  H   H3921     1.0  0.55430  0.37250  0.39910  1.0000
  C   C2221     1.0  0.91592  0.23212  0.40676  1.0000
  C   C2222     1.0  0.87428  0.30588  0.36221  1.0000
  C   C2223     1.0  0.95351  0.27856  0.36647  1.0000
  C   C2224     1.0  0.76217  0.34092  0.30720  1.0000
  S   S506      1.0  0.60969  0.36748  0.46921  1.0000
  H   H3922     1.0  0.61736  0.21491  0.04879  1.0000
  H   H3923     1.0  0.55953  0.37784  0.98588  1.0000
  C   C2225     1.0  0.85934  0.35917  0.39448  1.0000
  H   H3924     1.0  0.89004  0.29712  0.46269  1.0000
  C   C2226     1.0  0.74879  0.31678  0.42631  1.0000
  H   H3925     1.0  0.76126  0.33950  0.29136  1.0000
  C   C2227     1.0  0.84896  0.22589  0.43610  1.0000
  C   C2228     1.0  0.85769  0.36935  0.33354  1.0000
  C   C2229     1.0  0.72072  0.37040  0.15083  1.0000
  H   H3926     1.0  0.52342  0.26175  0.07815  1.0000
  C   C2230     1.0  0.57000  0.37417  0.32104  1.0000
  S   S507      1.0  0.74532  0.37202  0.43503  1.0000
  H   H3927     1.0  0.70729  0.36567  0.14702  1.0000
  C   C2231     1.0  0.98565  0.18530  0.33843  1.0000
  H   H3928     1.0  0.57383  0.38190  0.04898  1.0000
  C   C2232     1.0  0.50643  0.36119  0.13547  1.0000
  H   H3929     1.0  0.96207  0.26118  0.26745  1.0000
  H   H3930     1.0  0.75892  0.35762  0.30825  1.0000
  H   H3931     1.0  0.74017  0.20862  0.00746  1.0000
  H   H3932     1.0  0.50523  0.35716  0.12064  1.0000
  H   H3933     1.0  0.50464  0.28540  0.14764  1.0000
  C   C2233     1.0  0.57108  0.27811  0.47032  1.0000
  C   C2234     1.0  0.65186  0.28592  0.99991  1.0000
  C   C2235     1.0  0.82739  0.36231  0.32418  1.0000
  C   C2236     1.0  0.58148  0.37818  0.33452  1.0000
  C   C2237     1.0  0.82536  0.21778  0.46783  1.0000
  H   H3934     1.0  0.92619  0.37576  0.35123  1.0000
  H   H3935     1.0  0.50020  0.27674  0.46191  1.0000
  S   S508      1.0  0.72850  0.37664  0.38231  1.0000
  H   H3936     1.0  0.97735  0.22764  0.23711  1.0000
  H   H3937     1.0  0.86028  0.36332  0.37763  1.0000
  H   H3938     1.0  0.67833  0.32545  0.44369  1.0000
  H   H3939     1.0  0.98516  0.24490  0.25659  1.0000
  C   C2238     1.0  0.77849  0.27357  0.46272  1.0000
  C   C2239     1.0  0.83508  0.18483  0.01574  1.0000
  H   H3940     1.0  0.74213  0.28964  0.44797  1.0000
  C   C2240     1.0  0.50612  0.26347  0.10908  1.0000
  C   C2241     1.0  0.63354  0.36756  0.00384  1.0000
  H   H3941     1.0  0.81713  0.37786  0.43285  1.0000
  H   H3942     1.0  0.83514  0.19761  0.02378  1.0000
  C   C2242     1.0  0.94119  0.19197  0.42783  1.0000
  C   C2243     1.0  0.55060  0.19413  0.08856  1.0000
  C   C2244     1.0  0.60724  0.34469  0.98863  1.0000
  C   C2245     1.0  0.80409  0.37080  0.44120  1.0000
  S   S509      1.0  0.82807  0.35336  0.47071  1.0000
  C   C2246     1.0  0.53625  0.22319  0.47264  1.0000
  H   H3943     1.0  0.60946  0.19151  0.08306  1.0000
  C   C2247     1.0  0.90390  0.35783  0.37100  1.0000
  H   H3944     1.0  0.85350  0.37726  0.41945  1.0000
  H   H3945     1.0  0.75832  0.25177  0.46193  1.0000
  S   S510      1.0  0.76645  0.37853  0.34211  1.0000
  C   C2248     1.0  0.85788  0.37959  0.40244  1.0000
  C   C2249     1.0  0.51303  0.23109  0.47339  1.0000
  H   H3946     1.0  0.93470  0.20645  0.99513  1.0000
  H   H3947     1.0  0.97980  0.19177  0.40185  1.0000
  H   H3948     1.0  0.52776  0.36386  0.42566  1.0000
  H   H3949     1.0  0.51365  0.27185  0.17108  1.0000
  H   H3950     1.0  0.91598  0.19488  0.98789  1.0000
  H   H3951     1.0  0.98408  0.20412  0.25355  1.0000
  H   H3952     1.0  0.49328  0.27456  0.11628  1.0000
  C   C2250     1.0  0.78828  0.34926  0.47136  1.0000
  H   H3953     1.0  0.83862  0.20812  0.97761  1.0000
  C   C2251     1.0  0.82238  0.21088  0.98595  1.0000
  H   H3954     1.0  0.98353  0.21597  0.20386  1.0000
  H   H3955     1.0  0.98257  0.33908  0.26713  1.0000
  H   H3956     1.0  0.90931  0.19651  0.46601  1.0000
  H   H3957     1.0  0.95563  0.26008  0.23728  1.0000
  C   C2252     1.0  0.66976  0.32322  0.45977  1.0000
  H   H3958     1.0  0.90804  0.18455  0.29073  1.0000
  H   H3959     1.0  0.60157  0.33179  0.98491  1.0000
  H   H3960     1.0  0.65673  0.19474  0.46284  1.0000
  H   H3961     1.0  0.49693  0.36782  0.38311  1.0000
  C   C2253     1.0  0.60407  0.37627  0.05735  1.0000
  H   H3962     1.0  0.96410  0.18600  0.24022  1.0000
  H   H3963     1.0  0.68632  0.34294  0.46832  1.0000
  H   H3964     1.0  0.65435  0.36146  0.97613  1.0000
  H   H3965     1.0  0.61701  0.36867  0.01111  1.0000
  H   H3966     1.0  0.66672  0.30709  0.46393  1.0000
  H   H3967     1.0  0.90723  0.18644  0.31705  1.0000
  Fe  Fe253     1.0  0.84287  0.18393  0.40812  1.0000
  Fe  Fe254     1.0  0.55599  0.37964  0.23250  1.0000
  H   H3968     1.0  0.48977  0.29032  0.17246  1.0000
  H   H3969     1.0  0.76581  0.20745  0.97560  1.0000
  H   H3970     1.0  0.82608  0.25278  0.97523  1.0000
  C   C2254     1.0  0.68256  0.32719  0.47426  1.0000
  C   C2255     1.0  0.94064  0.19363  0.84306  1.0000
  H   H3971     1.0  0.97228  0.18988  0.93317  1.0000
  H   H3972     1.0  0.63294  0.28765  0.82869  1.0000
  H   H3973     1.0  0.58563  0.33666  0.54135  1.0000
  S   S511      1.0  0.56893  0.20024  0.92381  1.0000
  H   H3974     1.0  0.58884  0.33417  0.49630  1.0000
  H   H3975     1.0  0.48869  0.26364  0.64987  1.0000
  H   H3976     1.0  0.52250  0.18988  0.71893  1.0000
  H   H3977     1.0  0.90932  0.21266  0.80547  1.0000
  C   C2256     1.0  0.81122  0.37674  0.54790  1.0000
  S   S512      1.0  0.52072  0.20218  0.60342  1.0000
  S   S513      1.0  0.52720  0.21709  0.54222  1.0000
  H   H3978     1.0  0.88387  0.22971  0.83196  1.0000
  H   H3979     1.0  0.88652  0.33825  0.75271  1.0000
  H   H3980     1.0  0.76014  0.37487  0.49995  1.0000
  Fe  Fe255     1.0  0.52315  0.35962  0.57071  1.0000
  S   S514      1.0  0.51773  0.35026  0.60499  1.0000
  S   S515      1.0  0.85912  0.25793  0.47658  1.0000
  Fe  Fe256     1.0  0.51053  0.32119  0.59867  1.0000
  S   S516      1.0  0.52484  0.29139  0.61664  1.0000
  H   H3981     1.0  0.59907  0.29365  0.49789  1.0000
  C   C2257     1.0  0.97367  0.24481  0.80883  1.0000
  S   S517      1.0  0.51795  0.32963  0.56432  1.0000
  H   H3982     1.0  0.55134  0.23623  0.89540  1.0000
  H   H3983     1.0  0.81254  0.34665  0.61157  1.0000
  Fe  Fe257     1.0  0.85518  0.28407  0.88137  1.0000
  S   S518      1.0  0.88236  0.28050  0.89711  1.0000
  S   S519      1.0  0.83061  0.31275  0.87920  1.0000
  Fe  Fe258     1.0  0.86551  0.24000  0.87360  1.0000
  S   S520      1.0  0.89396  0.23296  0.88770  1.0000
  S   S521      1.0  0.85448  0.21360  0.86619  1.0000
  Fe  Fe259     1.0  0.87433  0.24939  0.91244  1.0000
  S   S522      1.0  0.87557  0.23545  0.94572  1.0000
  Fe  Fe260     1.0  0.89991  0.26427  0.87116  1.0000
  S   S523      1.0  0.93353  0.26440  0.85712  1.0000
  S   S524      1.0  0.84535  0.25454  0.89946  1.0000
  S   S525      1.0  0.87321  0.26991  0.85411  1.0000
  H   H3984     1.0  0.81134  0.27758  0.93553  1.0000
  H   H3985     1.0  0.96533  0.25106  0.82272  1.0000
  Fe  Fe261     1.0  0.89886  0.35488  0.67865  1.0000
  S   S526      1.0  0.87759  0.33791  0.66930  1.0000
  S   S527      1.0  0.92231  0.33670  0.69899  1.0000
  Fe  Fe262     1.0  0.88306  0.35782  0.63805  1.0000
  S   S528      1.0  0.88993  0.34819  0.60649  1.0000
  H   H3986     1.0  0.94888  0.31728  0.72853  1.0000
  S   S529      1.0  0.82043  0.35922  0.69298  1.0000
  H   H3987     1.0  0.80065  0.18878  0.96930  1.0000
  C   C2258     1.0  0.97142  0.20668  0.92716  1.0000
  H   H3988     1.0  0.51512  0.26173  0.52120  1.0000
  Fe  Fe263     1.0  0.83257  0.30021  0.53706  1.0000
  S   S530      1.0  0.82124  0.27279  0.53131  1.0000
  S   S531      1.0  0.83692  0.30084  0.56965  1.0000
  H   H3989     1.0  0.51977  0.19528  0.74450  1.0000
  H   H3990     1.0  0.77094  0.25283  0.50302  1.0000
  Fe  Fe264     1.0  0.79629  0.29676  0.51829  1.0000
  S   S532      1.0  0.76270  0.29378  0.52462  1.0000
  S   S533      1.0  0.85381  0.30352  0.50622  1.0000
  S   S534      1.0  0.80625  0.32358  0.52566  1.0000
  C   C2259     1.0  0.87459  0.33545  0.59648  1.0000
  C   C2260     1.0  0.86060  0.32348  0.60932  1.0000
  C   C2261     1.0  0.84937  0.31294  0.60079  1.0000
  C   C2262     1.0  0.85169  0.31444  0.57934  1.0000
  C   C2263     1.0  0.86547  0.32664  0.56647  1.0000
  C   C2264     1.0  0.87700  0.33689  0.57503  1.0000
  H   H3991     1.0  0.85866  0.32208  0.62584  1.0000
  H   H3992     1.0  0.83879  0.30352  0.61089  1.0000
  H   H3993     1.0  0.86748  0.32792  0.54996  1.0000
  H   H3994     1.0  0.88785  0.34600  0.56495  1.0000
  C   C2265     1.0  0.71412  0.27146  0.52310  1.0000
  H   H3995     1.0  0.80453  0.30375  0.74639  1.0000
  H   H3996     1.0  0.89988  0.29322  0.78566  1.0000
  C   C2266     1.0  0.93766  0.36839  0.70845  1.0000
  C   C2267     1.0  0.95384  0.32759  0.64875  1.0000
  C   C2268     1.0  0.94369  0.28702  0.85482  1.0000
  C   C2269     1.0  0.96395  0.28778  0.84428  1.0000
  C   C2270     1.0  0.97244  0.30566  0.84159  1.0000
  C   C2271     1.0  0.96082  0.32293  0.84960  1.0000
  C   C2272     1.0  0.94090  0.32191  0.86110  1.0000
  C   C2273     1.0  0.93217  0.30410  0.86339  1.0000
  H   H3997     1.0  0.97314  0.27466  0.83787  1.0000
  C   C2274     1.0  0.71496  0.37148  0.48921  1.0000
  H   H3998     1.0  0.93201  0.33499  0.86784  1.0000
  H   H3999     1.0  0.91658  0.30359  0.87173  1.0000
  C   C2275     1.0  0.84730  0.36847  0.83089  1.0000
  C   C2276     1.0  0.86204  0.35031  0.83374  1.0000
  C   C2277     1.0  0.85713  0.33318  0.84864  1.0000
  C   C2278     1.0  0.83734  0.33408  0.86067  1.0000
  C   C2279     1.0  0.82259  0.35221  0.85782  1.0000
  H   H4000     1.0  0.93354  0.33873  0.61844  1.0000
  H   H4001     1.0  0.87719  0.34931  0.82423  1.0000
  H   H4002     1.0  0.86860  0.31924  0.85076  1.0000
  H   H4003     1.0  0.55574  0.24443  0.54361  1.0000
  C   C2280     1.0  0.83197  0.23208  0.47645  1.0000
  C   C2281     1.0  0.94914  0.33371  0.72569  1.0000
  H   H4004     1.0  0.71236  0.31080  0.50096  1.0000
  C   C2282     1.0  0.93560  0.32752  0.79910  1.0000
  H   H4005     1.0  0.81385  0.20890  0.47698  1.0000
  H   H4006     1.0  0.98725  0.31651  0.61671  1.0000
  C   C2283     1.0  0.78434  0.33903  0.59134  1.0000
  C   C2284     1.0  0.87851  0.20829  0.95055  1.0000
  C   C2285     1.0  0.95487  0.20824  0.84402  1.0000
  H   H4007     1.0  0.87494  0.20589  0.92030  1.0000
  C   C2286     1.0  0.76705  0.19043  0.90910  1.0000
  H   H4008     1.0  0.59701  0.20519  0.58532  1.0000
  H   H4009     1.0  0.63418  0.30262  0.49139  1.0000
  C   C2287     1.0  0.72167  0.34202  0.56110  1.0000
  C   C2288     1.0  0.72080  0.32097  0.56769  1.0000
  C   C2289     1.0  0.73338  0.30627  0.55636  1.0000
  C   C2290     1.0  0.74748  0.31246  0.53880  1.0000
  C   C2291     1.0  0.74875  0.33350  0.53242  1.0000
  C   C2292     1.0  0.73551  0.34833  0.54334  1.0000
  H   H4010     1.0  0.71037  0.31600  0.58162  1.0000
  H   H4011     1.0  0.73250  0.29003  0.56147  1.0000
  H   H4012     1.0  0.75956  0.33833  0.51877  1.0000
  H   H4013     1.0  0.97316  0.35842  0.92121  1.0000
  H   H4014     1.0  0.80540  0.36004  0.77565  1.0000
  H   H4015     1.0  0.50544  0.21727  0.47729  1.0000
  H   H4016     1.0  0.57194  0.34990  0.51387  1.0000
  C   C2293     1.0  0.49146  0.28487  0.50714  1.0000
  H   H4017     1.0  0.94230  0.28178  0.90268  1.0000
  C   C2294     1.0  0.52283  0.22723  0.60547  1.0000
  C   C2295     1.0  0.51723  0.24461  0.59071  1.0000
  C   C2296     1.0  0.51755  0.26464  0.59386  1.0000
  C   C2297     1.0  0.52400  0.26707  0.61148  1.0000
  C   C2298     1.0  0.52993  0.24963  0.62586  1.0000
  C   C2299     1.0  0.52902  0.22986  0.62305  1.0000
  H   H4018     1.0  0.51215  0.24268  0.57720  1.0000
  H   H4019     1.0  0.51293  0.27811  0.58271  1.0000
  H   H4020     1.0  0.53483  0.25148  0.63952  1.0000
  H   H4021     1.0  0.53309  0.21661  0.63462  1.0000
  C   C2300     1.0  0.57890  0.21430  0.93798  1.0000
  C   C2301     1.0  0.60021  0.21292  0.93683  1.0000
  C   C2302     1.0  0.60760  0.22506  0.94735  1.0000
  C   C2303     1.0  0.95039  0.37589  0.71826  1.0000
  C   C2304     1.0  0.97751  0.26332  0.79175  1.0000
  C   C2305     1.0  0.56511  0.22757  0.95032  1.0000
  H   H4022     1.0  0.61105  0.20249  0.92787  1.0000
  H   H4023     1.0  0.59332  0.26859  0.84112  1.0000
  Fe  Fe265     1.0  0.84004  0.27834  0.49929  1.0000
  H   H4024     1.0  0.83497  0.20448  0.93513  1.0000
  C   C2306     1.0  0.85663  0.35443  0.76810  1.0000
  H   H4025     1.0  0.62625  0.18692  0.82804  1.0000
  C   C2307     1.0  0.79384  0.35887  0.80783  1.0000
  H   H4026     1.0  0.83593  0.34174  0.80587  1.0000
  C   C2308     1.0  0.87249  0.20175  0.84745  1.0000
  C   C2309     1.0  0.88521  0.21331  0.83226  1.0000
  C   C2310     1.0  0.89951  0.20369  0.81725  1.0000
  C   C2311     1.0  0.55524  0.26925  0.48402  1.0000
  H   H4027     1.0  0.78923  0.35743  0.54782  1.0000
  C   C2312     1.0  0.66740  0.32629  0.53314  1.0000
  H   H4028     1.0  0.79291  0.29655  0.58820  1.0000
  N   N127      1.0  0.61379  0.23318  0.86531  1.0000
  C   C2313     1.0  0.59054  0.23480  0.87136  1.0000
  C   C2314     1.0  0.62259  0.21837  0.85021  1.0000
  C   C2315     1.0  0.62292  0.22422  0.88459  1.0000
  C   C2316     1.0  0.62006  0.25401  0.85669  1.0000
  C   C2317     1.0  0.61044  0.26676  0.83802  1.0000
  C   C2318     1.0  0.57939  0.24992  0.88640  1.0000
  C   C2319     1.0  0.64693  0.22076  0.88179  1.0000
  H   H4029     1.0  0.90946  0.28027  0.63877  1.0000
  H   H4030     1.0  0.64044  0.30190  0.97247  1.0000
  H   H4031     1.0  0.95718  0.30353  0.59464  1.0000
  H   H4032     1.0  0.64829  0.21665  0.91441  1.0000
  C   C2320     1.0  0.65623  0.33838  0.92281  1.0000
  H   H4033     1.0  0.58666  0.21920  0.87856  1.0000
  H   H4034     1.0  0.58287  0.23972  0.85769  1.0000
  H   H4035     1.0  0.63762  0.22196  0.84087  1.0000
  H   H4036     1.0  0.62652  0.20225  0.85855  1.0000
  H   H4037     1.0  0.61788  0.20909  0.89170  1.0000
  H   H4038     1.0  0.61713  0.23440  0.89633  1.0000
  H   H4039     1.0  0.61673  0.26361  0.86896  1.0000
  H   H4040     1.0  0.63713  0.25217  0.85148  1.0000
  H   H4041     1.0  0.58289  0.26573  0.88043  1.0000
  H   H4042     1.0  0.61677  0.25919  0.82438  1.0000
  H   H4043     1.0  0.58394  0.24446  0.90173  1.0000
  C   C2321     1.0  0.63274  0.34308  0.95692  1.0000
  H   H4044     1.0  0.65230  0.23585  0.87854  1.0000
  H   H4045     1.0  0.67174  0.20579  0.89878  1.0000
  H   H4046     1.0  0.92852  0.37898  0.69793  1.0000
  H   H4047     1.0  0.60291  0.23192  0.82640  1.0000
  H   H4048     1.0  0.59080  0.32579  0.59670  1.0000
  H   H4049     1.0  0.62527  0.35797  0.94853  1.0000
  H   H4050     1.0  0.98200  0.18528  0.84284  1.0000
  C   C2322     1.0  0.97818  0.30467  0.62628  1.0000
  H   H4051     1.0  0.97918  0.29337  0.61609  1.0000
  H   H4052     1.0  0.92460  0.19926  0.85057  1.0000
  H   H4053     1.0  0.70561  0.37981  0.47730  1.0000
  H   H4054     1.0  0.77670  0.33952  0.60763  1.0000
  C   C2323     1.0  0.82195  0.37373  0.52610  1.0000
  C   C2324     1.0  0.65547  0.33884  0.94549  1.0000
  H   H4055     1.0  0.82353  0.37697  0.55645  1.0000
  H   H4056     1.0  0.98263  0.27971  0.65303  1.0000
  H   H4057     1.0  0.82860  0.34939  0.74931  1.0000
  H   H4058     1.0  0.94908  0.28761  0.65554  1.0000
  H   H4059     1.0  0.97866  0.22017  0.95151  1.0000
  H   H4060     1.0  0.96414  0.33851  0.91316  1.0000
  H   H4061     1.0  0.76402  0.37550  0.74895  1.0000
  H   H4062     1.0  0.53942  0.27720  0.48443  1.0000
  H   H4063     1.0  0.66118  0.31165  0.53729  1.0000
  C   C2325     1.0  0.64796  0.34366  0.53459  1.0000
  C   C2326     1.0  0.50410  0.24541  0.48970  1.0000
  H   H4064     1.0  0.55009  0.25860  0.87499  1.0000
  C   C2327     1.0  0.87813  0.19753  0.93512  1.0000
  H   H4065     1.0  0.52785  0.19151  0.95050  1.0000
  C   C2328     1.0  0.63739  0.34403  0.55693  1.0000
  H   H4066     1.0  0.54748  0.24322  0.50720  1.0000
  H   H4067     1.0  0.50378  0.23536  0.50518  1.0000
  H   H4068     1.0  0.61217  0.24127  0.48277  1.0000
  H   H4069     1.0  0.68948  0.35334  0.52276  1.0000
  S   S535      1.0  0.97088  0.34603  0.84386  1.0000
  H   H4070     1.0  0.55060  0.32121  0.52728  1.0000
  S   S536      1.0  0.49003  0.19362  0.51738  1.0000
  H   H4071     1.0  0.78887  0.33990  0.48641  1.0000
  C   C2329     1.0  0.81502  0.25611  0.96437  1.0000
  H   H4072     1.0  0.94828  0.22394  0.83679  1.0000
  H   H4073     1.0  0.95426  0.20844  0.86052  1.0000
  C   C2330     1.0  0.79901  0.35899  0.55860  1.0000
  H   H4074     1.0  0.63646  0.34109  0.52618  1.0000
  H   H4075     1.0  0.65187  0.35915  0.52796  1.0000
  H   H4076     1.0  0.63484  0.27657  0.48814  1.0000
  H   H4077     1.0  0.61019  0.20118  0.80964  1.0000
  C   C2331     1.0  0.94819  0.32798  0.61398  1.0000
  H   H4078     1.0  0.57991  0.24439  0.55100  1.0000
  Fe  Fe266     1.0  0.82645  0.32466  0.49466  1.0000
  H   H4079     1.0  0.56172  0.32941  0.55451  1.0000
  C   C2332     1.0  0.82898  0.33972  0.79305  1.0000
  H   H4080     1.0  0.63240  0.32904  0.56419  1.0000
  H   H4081     1.0  0.64806  0.34719  0.56594  1.0000
  H   H4082     1.0  0.62359  0.35658  0.55745  1.0000
  H   H4083     1.0  0.71420  0.34259  0.48122  1.0000
  H   H4084     1.0  0.74690  0.27036  0.47850  1.0000
  H   H4085     1.0  0.83307  0.35883  0.52652  1.0000
  S   S537      1.0  0.49008  0.37474  0.56998  1.0000
  H   H4086     1.0  0.70746  0.31092  0.52765  1.0000
  N   N128      1.0  0.94934  0.21814  0.92993  1.0000
  H   H4087     1.0  0.85151  0.30337  0.78699  1.0000
  H   H4088     1.0  0.61267  0.38097  0.50518  1.0000
  C   C2333     1.0  0.81184  0.35909  0.78966  1.0000
  H   H4089     1.0  0.59334  0.36764  0.96447  1.0000
  C   C2334     1.0  0.80800  0.37311  0.71278  1.0000
  H   H4090     1.0  0.95807  0.24694  0.93158  1.0000
  H   H4091     1.0  0.73142  0.37178  0.48252  1.0000
  H   H4092     1.0  0.92142  0.21770  0.95311  1.0000
  S   S538      1.0  0.70689  0.35976  0.57657  1.0000
  H   H4093     1.0  0.91770  0.25242  0.93563  1.0000
  H   H4094     1.0  0.77149  0.30124  0.60908  1.0000
  H   H4095     1.0  0.94046  0.19302  0.82681  1.0000
  C   C2335     1.0  0.78881  0.36888  0.72389  1.0000
  H   H4096     1.0  0.96943  0.34604  0.67415  1.0000
  H   H4097     1.0  0.89598  0.36860  0.75885  1.0000
  C   C2336     1.0  0.82788  0.19258  0.94690  1.0000
  H   H4098     1.0  0.79612  0.20849  0.94782  1.0000
  H   H4099     1.0  0.75152  0.19648  0.91743  1.0000
  H   H4100     1.0  0.72314  0.34047  0.50482  1.0000
  C   C2337     1.0  0.59386  0.23836  0.95965  1.0000
  C   C2338     1.0  0.94344  0.29733  0.64164  1.0000
  C   C2339     1.0  0.92884  0.25544  0.92108  1.0000
  H   H4101     1.0  0.79933  0.35833  0.82234  1.0000
  H   H4102     1.0  0.51570  0.25533  0.48836  1.0000
  C   C2340     1.0  0.68932  0.34814  0.50817  1.0000
  N   N129      1.0  0.95588  0.31440  0.63271  1.0000
  Fe  Fe267     1.0  0.85247  0.36435  0.67739  1.0000
  C   C2341     1.0  0.93131  0.27813  0.91722  1.0000
  H   H4103     1.0  0.90920  0.35110  0.79432  1.0000
  H   H4104     1.0  0.77901  0.19063  0.91812  1.0000
  H   H4105     1.0  0.50176  0.28886  0.49226  1.0000
  C   C2342     1.0  0.92150  0.34765  0.80380  1.0000
  H   H4106     1.0  0.55502  0.18366  0.62314  1.0000
  H   H4107     1.0  0.90738  0.36869  0.87466  1.0000
  H   H4108     1.0  0.84575  0.36874  0.76303  1.0000
  H   H4109     1.0  0.91299  0.31672  0.63707  1.0000
  H   H4110     1.0  0.95933  0.24302  0.90608  1.0000
  C   C2343     1.0  0.88153  0.19724  0.97004  1.0000
  H   H4111     1.0  0.91745  0.31070  0.66319  1.0000
  C   C2344     1.0  0.96267  0.36237  0.73177  1.0000
  C   C2345     1.0  0.58780  0.31492  0.56958  1.0000
  C   C2346     1.0  0.55587  0.25169  0.88961  1.0000
  C   C2347     1.0  0.86024  0.31627  0.78026  1.0000
  H   H4112     1.0  0.81578  0.18376  0.92318  1.0000
  H   H4113     1.0  0.82653  0.35392  0.58611  1.0000
  H   H4114     1.0  0.81044  0.37375  0.51647  1.0000
  C   C2348     1.0  0.96178  0.34123  0.73561  1.0000
  H   H4115     1.0  0.75549  0.33202  0.58618  1.0000
  H   H4116     1.0  0.60914  0.31736  0.51900  1.0000
  H   H4117     1.0  0.83165  0.23182  0.94814  1.0000
  H   H4118     1.0  0.72800  0.27395  0.51122  1.0000
  H   H4119     1.0  0.98558  0.25804  0.77713  1.0000
  H   H4120     1.0  0.64177  0.28092  0.51105  1.0000
  H   H4121     1.0  0.59512  0.20965  0.84384  1.0000
  H   H4122     1.0  0.89721  0.29577  0.81218  1.0000
  H   H4123     1.0  0.86388  0.31867  0.81113  1.0000
  H   H4124     1.0  0.94356  0.32944  0.78278  1.0000
  H   H4125     1.0  0.54859  0.22883  0.95135  1.0000
  H   H4126     1.0  0.91611  0.28833  0.91589  1.0000
  C   C2349     1.0  0.93604  0.18807  0.92078  1.0000
  H   H4127     1.0  0.83061  0.30607  0.73353  1.0000
  Fe  Fe268     1.0  0.51650  0.19114  0.53356  1.0000
  H   H4128     1.0  0.77712  0.32766  0.56568  1.0000
  H   H4129     1.0  0.80615  0.24118  0.94281  1.0000
  H   H4130     1.0  0.58082  0.30180  0.57941  1.0000
  H   H4131     1.0  0.93752  0.33550  0.65248  1.0000
  H   H4132     1.0  0.82643  0.30406  0.77122  1.0000
  H   H4133     1.0  0.68234  0.28470  0.53095  1.0000
  S   S539      1.0  0.81402  0.29992  0.48624  1.0000
  C   C2350     1.0  0.88855  0.29573  0.79990  1.0000
  C   C2351     1.0  0.87379  0.31638  0.79616  1.0000
  H   H4134     1.0  0.56002  0.29264  0.56120  1.0000
  H   H4135     1.0  0.58559  0.27838  0.55650  1.0000
  H   H4136     1.0  0.81091  0.34455  0.55944  1.0000
  C   C2352     1.0  0.55979  0.25014  0.49696  1.0000
  H   H4137     1.0  0.61253  0.29526  0.53829  1.0000
  H   H4138     1.0  0.97114  0.33061  0.74591  1.0000
  S   S540      1.0  0.58624  0.21576  0.51237  1.0000
  C   C2353     1.0  0.50465  0.27635  0.52400  1.0000
  C   C2354     1.0  0.83637  0.33407  0.75669  1.0000
  H   H4139     1.0  0.66396  0.35109  0.94611  1.0000
  C   C2355     1.0  0.70001  0.30984  0.51478  1.0000
  H   H4140     1.0  0.67263  0.33534  0.91496  1.0000
  H   H4141     1.0  0.93707  0.28151  0.93017  1.0000
  C   C2356     1.0  0.60872  0.21666  0.83518  1.0000
  C   C2357     1.0  0.81538  0.35997  0.59901  1.0000
  C   C2358     1.0  0.87517  0.35275  0.74997  1.0000
  C   C2359     1.0  0.58386  0.33185  0.58260  1.0000
  H   H4142     1.0  0.95714  0.31784  0.66364  1.0000
  H   H4143     1.0  0.65456  0.21235  0.86897  1.0000
  C   C2360     1.0  0.88680  0.37073  0.74649  1.0000
  H   H4144     1.0  0.55918  0.33408  0.47981  1.0000
  H   H4145     1.0  0.93636  0.18636  0.88877  1.0000
  H   H4146     1.0  0.60476  0.30974  0.56587  1.0000
  C   C2361     1.0  0.56703  0.31743  0.51960  1.0000
  C   C2362     1.0  0.63130  0.28705  0.49961  1.0000
  H   H4147     1.0  0.98393  0.33849  0.63875  1.0000
  H   H4148     1.0  0.51419  0.28786  0.52431  1.0000
  H   H4149     1.0  0.96166  0.19255  0.96786  1.0000
  H   H4150     1.0  0.65683  0.33918  0.49550  1.0000
  H   H4151     1.0  0.67602  0.32625  0.54559  1.0000
  C   C2363     1.0  0.55831  0.34569  0.48959  1.0000
  H   H4152     1.0  0.92116  0.21954  0.91857  1.0000
  H   H4153     1.0  0.88338  0.32869  0.79089  1.0000
  H   H4154     1.0  0.92748  0.24204  0.47533  1.0000
  H   H4155     1.0  0.66389  0.32367  0.95222  1.0000
  C   C2364     1.0  0.57836  0.32307  0.54963  1.0000
  H   H4156     1.0  0.73635  0.36456  0.53843  1.0000
  H   H4157     1.0  0.77007  0.20086  0.89404  1.0000
  H   H4158     1.0  0.86951  0.35325  0.73555  1.0000
  H   H4159     1.0  0.69125  0.28493  0.50386  1.0000
  H   H4160     1.0  0.87072  0.31133  0.76634  1.0000
  C   C2365     1.0  0.81530  0.23644  0.95555  1.0000
  H   H4161     1.0  0.92574  0.18413  0.93569  1.0000
  H   H4162     1.0  0.81476  0.38040  0.62042  1.0000
  C   C2366     1.0  0.77627  0.30340  0.59210  1.0000
  C   C2367     1.0  0.67022  0.32617  0.49645  1.0000
  C   C2368     1.0  0.58028  0.23992  0.49649  1.0000
  H   H4163     1.0  0.87982  0.28268  0.80502  1.0000
  H   H4164     1.0  0.62410  0.22404  0.94612  1.0000
  H   H4165     1.0  0.58502  0.21260  0.60987  1.0000
  C   C2369     1.0  0.97744  0.20076  0.83353  1.0000
  H   H4166     1.0  0.92690  0.36256  0.84039  1.0000
  C   C2370     1.0  0.60865  0.28824  0.51012  1.0000
  H   H4167     1.0  0.67826  0.36042  0.50025  1.0000
  H   H4168     1.0  0.94598  0.36134  0.80912  1.0000
  C   C2371     1.0  0.93852  0.21546  0.95219  1.0000
  C   C2372     1.0  0.65456  0.20826  0.90130  1.0000
  H   H4169     1.0  0.60666  0.27227  0.51780  1.0000
  H   H4170     1.0  0.66335  0.31186  0.50080  1.0000
  H   H4171     1.0  0.60941  0.29710  0.84540  1.0000
  C   C2373     1.0  0.97813  0.34474  0.91340  1.0000
  C   C2374     1.0  0.56390  0.25310  0.55060  1.0000
  C   C2375     1.0  0.61587  0.28849  0.83245  1.0000
  H   H4172     1.0  0.80573  0.32597  0.77049  1.0000
  H   H4173     1.0  0.97700  0.19788  0.81799  1.0000
  H   H4174     1.0  0.86185  0.35777  0.78145  1.0000
  C   C2376     1.0  0.82154  0.27367  0.94729  1.0000
  C   C2377     1.0  0.60309  0.30278  0.52618  1.0000
  C   C2378     1.0  0.93752  0.21133  0.91663  1.0000
  H   H4175     1.0  0.94429  0.21571  0.90005  1.0000
  H   H4176     1.0  0.75624  0.37773  0.63526  1.0000
  C   C2379     1.0  0.56439  0.27473  0.53775  1.0000
  C   C2380     1.0  0.57292  0.33738  0.50516  1.0000
  H   H4177     1.0  0.96249  0.27334  0.78921  1.0000
  H   H4178     1.0  0.80728  0.35299  0.86716  1.0000
  C   C2381     1.0  0.80694  0.20208  0.95898  1.0000
  H   H4179     1.0  0.91095  0.19161  0.90367  1.0000
  H   H4180     1.0  0.94561  0.28655  0.63061  1.0000
  H   H4181     1.0  0.92982  0.30999  0.60366  1.0000
  H   H4182     1.0  0.63035  0.37690  0.97161  1.0000
  H   H4183     1.0  0.76712  0.29502  0.58584  1.0000
  S   S541      1.0  0.90640  0.37289  0.64663  1.0000
  C   C2382     1.0  0.91994  0.30451  0.64871  1.0000
  H   H4184     1.0  0.56696  0.33708  0.58732  1.0000
  H   H4185     1.0  0.57349  0.27285  0.52239  1.0000
  H   H4186     1.0  0.56691  0.30659  0.50937  1.0000
  C   C2383     1.0  0.59625  0.24907  0.48320  1.0000
  H   H4187     1.0  0.55571  0.25401  0.56657  1.0000
  H   H4188     1.0  0.49473  0.27344  0.53933  1.0000
  H   H4189     1.0  0.85058  0.19052  0.77011  1.0000
  H   H4190     1.0  0.71752  0.27241  0.53823  1.0000
  H   H4191     1.0  0.78186  0.23350  0.48680  1.0000
  H   H4192     1.0  0.54831  0.28203  0.53565  1.0000
  H   H4193     1.0  0.54211  0.34966  0.49763  1.0000
  H   H4194     1.0  0.90955  0.22437  0.48618  1.0000
  N   N130      1.0  0.68197  0.32754  0.51264  1.0000
  H   H4195     1.0  0.80013  0.32966  0.59203  1.0000
  H   H4196     1.0  0.59090  0.34535  0.57385  1.0000
  H   H4197     1.0  0.92630  0.31507  0.80189  1.0000
  H   H4198     1.0  0.92214  0.25325  0.90819  1.0000
  C   C2384     1.0  0.76407  0.37184  0.57765  1.0000
  C   C2385     1.0  0.93710  0.34718  0.71195  1.0000
  H   H4199     1.0  0.93754  0.32281  0.56692  1.0000
  C   C2386     1.0  0.82757  0.36939  0.84299  1.0000
  C   C2387     1.0  0.57303  0.28838  0.54861  1.0000
  N   N131      1.0  0.58051  0.30760  0.53564  1.0000
  H   H4200     1.0  0.96342  0.23637  0.80411  1.0000
  C   C2388     1.0  0.95005  0.24085  0.92195  1.0000
  H   H4201     1.0  0.78181  0.35748  0.71997  1.0000
  H   H4202     1.0  0.78212  0.37316  0.80525  1.0000
  C   C2389     1.0  0.71137  0.34920  0.49544  1.0000
  N   N132      1.0  0.84555  0.33616  0.77454  1.0000
  C   C2390     1.0  0.69523  0.28763  0.51809  1.0000
  H   H4203     1.0  0.89144  0.29206  0.65860  1.0000
  H   H4204     1.0  0.75413  0.37113  0.59320  1.0000
  H   H4205     1.0  0.89757  0.37119  0.73153  1.0000
  H   H4206     1.0  0.94727  0.32259  0.80938  1.0000
  H   H4207     1.0  0.98844  0.33255  0.92229  1.0000
  C   C2391     1.0  0.94202  0.33104  0.57746  1.0000
  Fe  Fe269     1.0  0.55924  0.20096  0.53077  1.0000
  H   H4208     1.0  0.91413  0.27399  0.66507  1.0000
  C   C2392     1.0  0.77245  0.32636  0.58259  1.0000
  N   N133      1.0  0.78584  0.36068  0.57954  1.0000
  H   H4209     1.0  0.78629  0.34529  0.80941  1.0000
  H   H4210     1.0  0.75507  0.23598  0.49907  1.0000
  C   C2393     1.0  0.90812  0.28652  0.65304  1.0000
  H   H4211     1.0  0.95937  0.33838  0.60580  1.0000
  C   C2394     1.0  0.94432  0.31646  0.59790  1.0000
  H   H4212     1.0  0.91428  0.34467  0.82028  1.0000
  C   C2395     1.0  0.77876  0.37904  0.74031  1.0000
  H   H4213     1.0  0.98801  0.30604  0.83315  1.0000
  H   H4214     1.0  0.83784  0.26924  0.93975  1.0000
  C   C2396     1.0  0.62059  0.20266  0.81982  1.0000
  H   H4215     1.0  0.82047  0.28771  0.95391  1.0000
  C   C2397     1.0  0.76780  0.24471  0.49159  1.0000
  H   H4216     1.0  0.71111  0.25567  0.52381  1.0000
  C   C2398     1.0  0.79474  0.37153  0.59211  1.0000
  H   H4217     1.0  0.96249  0.35629  0.62926  1.0000
  S   S542      1.0  0.55013  0.37426  0.55116  1.0000
  H   H4218     1.0  0.54834  0.26175  0.90119  1.0000
  H   H4219     1.0  0.97396  0.23501  0.85185  1.0000
  H   H4220     1.0  0.83974  0.36534  0.61278  1.0000
  H   H4221     1.0  0.81016  0.32841  0.73226  1.0000
  H   H4222     1.0  0.82153  0.32582  0.79923  1.0000
  C   C2399     1.0  0.82065  0.31898  0.76181  1.0000
  H   H4223     1.0  0.84893  0.32876  0.74424  1.0000
  H   H4224     1.0  0.60914  0.29719  0.81877  1.0000
  C   C2400     1.0  0.81626  0.31405  0.74227  1.0000
  H   H4225     1.0  0.94080  0.22778  0.95980  1.0000
  H   H4226     1.0  0.56935  0.20775  0.59328  1.0000
  H   H4227     1.0  0.82558  0.23409  0.49216  1.0000
  H   H4228     1.0  0.64857  0.35348  0.91501  1.0000
  Fe  Fe270     1.0  0.53059  0.19479  0.57165  1.0000
  H   H4229     1.0  0.53955  0.21593  0.48824  1.0000
  H   H4230     1.0  0.64846  0.32587  0.92131  1.0000
  H   H4231     1.0  0.89124  0.36201  0.85981  1.0000
  S   S543      1.0  0.87299  0.37948  0.68933  1.0000
  H   H4232     1.0  0.56293  0.35992  0.47945  1.0000
  H   H4233     1.0  0.95687  0.33632  0.57004  1.0000
  H   H4234     1.0  0.62457  0.33120  0.95456  1.0000
  C   C2401     1.0  0.93380  0.36573  0.79931  1.0000
  H   H4235     1.0  0.75680  0.36399  0.56887  1.0000
  C   C2402     1.0  0.58443  0.20277  0.59877  1.0000
  C   C2403     1.0  0.82540  0.37419  0.60727  1.0000
  H   H4236     1.0  0.63401  0.20927  0.81011  1.0000
  H   H4237     1.0  0.81818  0.37343  0.78820  1.0000
  H   H4238     1.0  0.94261  0.36618  0.78328  1.0000
  H   H4239     1.0  0.83879  0.18484  0.95759  1.0000
  C   C2404     1.0  0.96464  0.35669  0.66030  1.0000
  H   H4240     1.0  0.78349  0.37425  0.60637  1.0000
  S   S544      1.0  0.97913  0.37265  0.74298  1.0000
  C   C2405     1.0  0.96722  0.34489  0.64268  1.0000
  H   H4241     1.0  0.92980  0.34478  0.57983  1.0000
  H   H4242     1.0  0.64977  0.19284  0.90522  1.0000
  H   H4243     1.0  0.94826  0.36428  0.66424  1.0000
  H   H4244     1.0  0.98748  0.21212  0.86491  1.0000
  H   H4245     1.0  0.97782  0.36230  0.88313  1.0000
  C   C2406     1.0  0.57252  0.23934  0.96129  1.0000
  H   H4246     1.0  0.97444  0.36888  0.65567  1.0000
  C   C2407     1.0  0.94522  0.19457  0.96630  1.0000
  H   H4247     1.0  0.79939  0.26199  0.97253  1.0000
  H   H4248     1.0  0.71085  0.37950  0.50269  1.0000
  H   H4249     1.0  0.97799  0.20759  0.91046  1.0000
  H   H4250     1.0  0.89439  0.37660  0.82266  1.0000
  C   C2408     1.0  0.91639  0.37749  0.84161  1.0000
  C   C2409     1.0  0.89988  0.37404  0.86085  1.0000
  H   H4251     1.0  0.57163  0.18505  0.63950  1.0000
  N   N134      1.0  0.80760  0.21852  0.97087  1.0000
  H   H4252     1.0  0.62331  0.19344  0.53394  1.0000
  H   H4253     1.0  0.98397  0.25557  0.87344  1.0000
  H   H4254     1.0  0.77795  0.23942  0.97132  1.0000
  H   H4255     1.0  0.98706  0.27275  0.79617  1.0000
  C   C2410     1.0  0.98650  0.21467  0.93696  1.0000
  H   H4256     1.0  0.56171  0.24960  0.97058  1.0000
  S   S545      1.0  0.60411  0.25426  0.97153  1.0000
  C   C2411     1.0  0.62936  0.37787  0.47487  1.0000
  C   C2412     1.0  0.51986  0.18314  0.73558  1.0000
  Fe  Fe271     1.0  0.57686  0.55163  0.18305  1.0000
  S   S546      1.0  0.59147  0.51823  0.18130  1.0000
  H   H4257     1.0  0.54878  0.54544  0.25875  1.0000
  S   S547      1.0  0.55633  0.55912  0.21210  1.0000
  Fe  Fe272     1.0  0.61667  0.48819  0.36039  1.0000
  S   S548      1.0  0.58225  0.49326  0.37145  1.0000
  S   S549      1.0  0.63799  0.47106  0.38256  1.0000
  Fe  Fe273     1.0  0.61217  0.51019  0.31739  1.0000
  S   S550      1.0  0.57740  0.51676  0.32469  1.0000
  S   S551      1.0  0.63001  0.51936  0.28582  1.0000
  Fe  Fe274     1.0  0.58256  0.52549  0.35342  1.0000
  H   H4258     1.0  0.94045  0.54649  0.12138  1.0000
  Fe  Fe275     1.0  0.58036  0.48413  0.34186  1.0000
  S   S552      1.0  0.56077  0.46024  0.34267  1.0000
  S   S553      1.0  0.61711  0.52118  0.34474  1.0000
  S   S554      1.0  0.61482  0.47674  0.33215  1.0000
  Fe  Fe276     1.0  0.74291  0.40115  0.35914  1.0000
  H   H4259     1.0  0.70313  0.52893  0.01004  1.0000
  S   S555      1.0  0.72445  0.42700  0.33964  1.0000
  C   C2413     1.0  0.53686  0.57743  0.09992  1.0000
  H   H4260     1.0  0.80027  0.46281  0.40684  1.0000
  H   H4261     1.0  0.73457  0.46197  0.45445  1.0000
  H   H4262     1.0  0.60947  0.41585  0.40785  1.0000
  H   H4263     1.0  0.70607  0.43915  0.45337  1.0000
  H   H4264     1.0  0.58529  0.39343  0.33252  1.0000
  S   S556      1.0  0.76420  0.40472  0.37924  1.0000
  H   H4265     1.0  0.65658  0.38772  0.99733  1.0000
  Fe  Fe277     1.0  0.60875  0.45701  0.09558  1.0000
  S   S557      1.0  0.63981  0.45308  0.10404  1.0000
  S   S558      1.0  0.58421  0.48450  0.10275  1.0000
  Fe  Fe278     1.0  0.62048  0.41819  0.07544  1.0000
  S   S559      1.0  0.65324  0.41153  0.08198  1.0000
  Fe  Fe279     1.0  0.63795  0.41950  0.11307  1.0000
  Fe  Fe280     1.0  0.65281  0.44607  0.07257  1.0000
  S   S560      1.0  0.67937  0.46193  0.05344  1.0000
  S   S561      1.0  0.60552  0.42392  0.10736  1.0000
  S   S562      1.0  0.62151  0.45214  0.06317  1.0000
  C   C2414     1.0  0.77223  0.43100  0.44597  1.0000
  Fe  Fe281     1.0  0.74446  0.53712  0.07619  1.0000
  H   H4266     1.0  0.56523  0.38619  0.30871  1.0000
  S   S563      1.0  0.72599  0.51209  0.09356  1.0000
  Fe  Fe282     1.0  0.76206  0.55924  0.03388  1.0000
  C   C2415     1.0  0.53520  0.45831  0.13874  1.0000
  S   S564      1.0  0.76898  0.55628  0.00044  1.0000
  Fe  Fe283     1.0  0.77967  0.56235  0.07099  1.0000
  H   H4267     1.0  0.51000  0.46686  0.35191  1.0000
  H   H4268     1.0  0.68094  0.46706  0.43676  1.0000
  H   H4269     1.0  0.70701  0.43868  0.41658  1.0000
  S   S565      1.0  0.77668  0.53514  0.05756  1.0000
  S   S566      1.0  0.72988  0.55907  0.05149  1.0000
  Fe  Fe284     1.0  0.53698  0.41462  0.25688  1.0000
  H   H4270     1.0  0.63103  0.44614  0.29878  1.0000
  S   S567      1.0  0.53830  0.44728  0.26008  1.0000
  H   H4271     1.0  0.62408  0.43021  0.28364  1.0000
  S   S568      1.0  0.53086  0.40721  0.22802  1.0000
  H   H4272     1.0  0.80436  0.45438  0.43308  1.0000
  H   H4273     1.0  0.52516  0.54101  0.37517  1.0000
  H   H4274     1.0  0.69581  0.49802  0.99803  1.0000
  H   H4275     1.0  0.52107  0.56572  0.23714  1.0000
  C   C2416     1.0  0.66290  0.50261  0.99653  1.0000
  H   H4276     1.0  0.98053  0.57513  0.08836  1.0000
  H   H4277     1.0  0.50083  0.44803  0.30245  1.0000
  H   H4278     1.0  0.60252  0.51436  0.03481  1.0000
  H   H4279     1.0  0.56740  0.40541  0.39440  1.0000
  N   N135      1.0  0.70634  0.43007  0.13116  1.0000
  C   C2417     1.0  0.71387  0.55831  0.99669  1.0000
  C   C2418     1.0  0.69096  0.47789  0.06385  1.0000
  C   C2419     1.0  0.70799  0.48653  0.05200  1.0000
  C   C2420     1.0  0.71834  0.49800  0.06050  1.0000
  C   C2421     1.0  0.71181  0.50076  0.08101  1.0000
  C   C2422     1.0  0.69425  0.49295  0.09248  1.0000
  C   C2423     1.0  0.68385  0.48172  0.08392  1.0000
  H   H4280     1.0  0.71362  0.48380  0.03640  1.0000
  H   H4281     1.0  0.73190  0.50393  0.05150  1.0000
  H   H4282     1.0  0.68887  0.49532  0.10821  1.0000
  H   H4283     1.0  0.67060  0.47569  0.09309  1.0000
  H   H4284     1.0  0.62613  0.48080  0.27080  1.0000
  H   H4285     1.0  0.73795  0.54336  0.97481  1.0000
  C   C2424     1.0  0.63331  0.48918  0.21926  1.0000
  H   H4286     1.0  0.49885  0.49937  0.28527  1.0000
  H   H4287     1.0  0.60303  0.42640  0.34811  1.0000
  H   H4288     1.0  0.59170  0.54591  0.07380  1.0000
  C   C2425     1.0  0.55711  0.53110  0.26713  1.0000
  H   H4289     1.0  0.57747  0.49348  0.27528  1.0000
  H   H4290     1.0  0.67315  0.43117  0.16628  1.0000
  C   C2426     1.0  0.60954  0.56384  0.24072  1.0000
  H   H4291     1.0  0.61818  0.45406  0.22974  1.0000
  H   H4292     1.0  0.49789  0.45710  0.16937  1.0000
  H   H4293     1.0  0.69129  0.40312  0.13919  1.0000
  H   H4294     1.0  0.62543  0.50836  0.24276  1.0000
  C   C2427     1.0  0.55434  0.45685  0.31975  1.0000
  C   C2428     1.0  0.55237  0.43709  0.31752  1.0000
  C   C2429     1.0  0.54746  0.43400  0.29929  1.0000
  C   C2430     1.0  0.54419  0.45070  0.28329  1.0000
  C   C2431     1.0  0.54528  0.47061  0.28590  1.0000
  C   C2432     1.0  0.55039  0.47367  0.30405  1.0000
  H   H4295     1.0  0.55498  0.42404  0.32978  1.0000
  H   H4296     1.0  0.54616  0.41871  0.29758  1.0000
  H   H4297     1.0  0.54234  0.48368  0.27379  1.0000
  H   H4298     1.0  0.55122  0.48904  0.30596  1.0000
  C   C2433     1.0  0.66279  0.46053  0.37047  1.0000
  C   C2434     1.0  0.66769  0.46250  0.34905  1.0000
  C   C2435     1.0  0.68697  0.45272  0.33969  1.0000
  C   C2436     1.0  0.70138  0.44077  0.35169  1.0000
  C   C2437     1.0  0.69686  0.43943  0.37305  1.0000
  C   C2438     1.0  0.67760  0.44938  0.38242  1.0000
  H   H4299     1.0  0.65665  0.47152  0.33964  1.0000
  H   H4300     1.0  0.69058  0.45416  0.32312  1.0000
  H   H4301     1.0  0.70814  0.43051  0.38225  1.0000
  H   H4302     1.0  0.67402  0.44808  0.39895  1.0000
  H   H4303     1.0  0.65831  0.49544  0.19377  1.0000
  C   C2439     1.0  0.61793  0.44145  0.29433  1.0000
  H   H4304     1.0  0.60093  0.55502  0.37704  1.0000
  H   H4305     1.0  0.59950  0.44368  0.25016  1.0000
  C   C2440     1.0  0.61649  0.54189  0.27288  1.0000
  C   C2441     1.0  0.62202  0.54754  0.25155  1.0000
  H   H4306     1.0  0.72413  0.56720  0.00066  1.0000
  H   H4307     1.0  0.63571  0.53907  0.24334  1.0000
  H   H4308     1.0  0.96196  0.43802  0.17858  1.0000
  C   C2442     1.0  0.58942  0.50903  0.15938  1.0000
  C   C2443     1.0  0.60063  0.48963  0.15575  1.0000
  C   C2444     1.0  0.59932  0.48205  0.13831  1.0000
  C   C2445     1.0  0.58661  0.49376  0.12450  1.0000
  C   C2446     1.0  0.57528  0.51305  0.12824  1.0000
  C   C2447     1.0  0.57671  0.52068  0.14557  1.0000
  H   H4309     1.0  0.61024  0.48039  0.16654  1.0000
  H   H4310     1.0  0.60778  0.46693  0.13588  1.0000
  H   H4311     1.0  0.56528  0.52205  0.11782  1.0000
  H   H4312     1.0  0.56780  0.53548  0.14831  1.0000
  C   C2448     1.0  0.67510  0.44625  0.15618  1.0000
  C   C2449     1.0  0.71304  0.53877  0.01314  1.0000
  H   H4313     1.0  0.63722  0.51697  0.19627  1.0000
  H   H4314     1.0  0.52972  0.39024  0.35204  1.0000
  H   H4315     1.0  0.53005  0.43569  0.11196  1.0000
  H   H4316     1.0  0.53560  0.51573  0.03591  1.0000
  Fe  Fe285     1.0  0.50956  0.38652  0.24832  1.0000
  C   C2450     1.0  0.55128  0.43331  0.16694  1.0000
  C   C2451     1.0  0.65495  0.50542  0.01918  1.0000
  H   H4317     1.0  0.91654  0.38335  0.37599  1.0000
  H   H4318     1.0  0.59541  0.54966  0.30008  1.0000
  C   C2452     1.0  0.54998  0.42207  0.13542  1.0000
  C   C2453     1.0  0.57411  0.43623  0.15904  1.0000
  H   H4319     1.0  0.67507  0.39457  0.45402  1.0000
  C   C2454     1.0  0.78488  0.57329  0.98491  1.0000
  C   C2455     1.0  0.58347  0.44086  0.17582  1.0000
  H   H4320     1.0  0.55174  0.41739  0.17629  1.0000
  H   H4321     1.0  0.54414  0.44374  0.17821  1.0000
  H   H4322     1.0  0.60774  0.51310  0.22531  1.0000
  H   H4323     1.0  0.62054  0.49162  0.03051  1.0000
  H   H4324     1.0  0.56463  0.42733  0.12727  1.0000
  N   N136      1.0  0.53849  0.43626  0.15036  1.0000
  H   H4325     1.0  0.54971  0.47599  0.15390  1.0000
  H   H4326     1.0  0.67410  0.43626  0.12833  1.0000
  H   H4327     1.0  0.58347  0.42181  0.15413  1.0000
  H   H4328     1.0  0.57557  0.44892  0.14560  1.0000
  C   C2456     1.0  0.68504  0.44319  0.13386  1.0000
  C   C2457     1.0  0.69129  0.54350  0.14125  1.0000
  H   H4329     1.0  0.50454  0.47736  0.27357  1.0000
  H   H4330     1.0  0.51731  0.50169  0.34346  1.0000
  H   H4331     1.0  0.58138  0.42890  0.18988  1.0000
  H   H4332     1.0  0.60030  0.44086  0.17043  1.0000
  H   H4333     1.0  0.57587  0.45632  0.17959  1.0000
  H   H4334     1.0  0.59908  0.52615  0.00036  1.0000
  C   C2458     1.0  0.50845  0.47516  0.36487  1.0000
  H   H4335     1.0  0.75418  0.39670  0.46359  1.0000
  S   S569      1.0  0.56451  0.38901  0.25925  1.0000
  H   H4336     1.0  0.65299  0.49390  0.99178  1.0000
  H   H4337     1.0  0.53870  0.53873  0.40665  1.0000
  H   H4338     1.0  0.66192  0.58038  0.14208  1.0000
  H   H4339     1.0  0.71752  0.43375  0.06663  1.0000
  H   H4340     1.0  0.65051  0.54087  0.11940  1.0000
  H   H4341     1.0  0.75334  0.45483  0.47062  1.0000
  H   H4342     1.0  0.58822  0.47814  0.45800  1.0000
  H   H4343     1.0  0.84628  0.40104  0.37665  1.0000
  H   H4344     1.0  0.71456  0.41135  0.45791  1.0000
  H   H4345     1.0  0.69000  0.39380  0.36426  1.0000
  H   H4346     1.0  0.59755  0.47054  0.29597  1.0000
  H   H4347     1.0  0.61352  0.56785  0.22417  1.0000
  H   H4348     1.0  0.68652  0.53509  0.11378  1.0000
  C   C2459     1.0  0.59645  0.49411  0.00415  1.0000
  H   H4349     1.0  0.97224  0.57478  0.19408  1.0000
  H   H4350     1.0  0.62775  0.46122  0.25669  1.0000
  H   H4351     1.0  0.62450  0.58057  0.13334  1.0000
  H   H4352     1.0  0.65988  0.48783  0.44247  1.0000
  H   H4353     1.0  0.50891  0.49532  0.22422  1.0000
  H   H4354     1.0  0.65642  0.44459  0.43658  1.0000
  H   H4355     1.0  0.76667  0.46384  0.43103  1.0000
  H   H4356     1.0  0.60644  0.47855  0.00554  1.0000
  N   N137      1.0  0.49677  0.53320  0.37163  1.0000
  H   H4357     1.0  0.87279  0.38533  0.39792  1.0000
  C   C2460     1.0  0.70649  0.42435  0.42832  1.0000
  C   C2461     1.0  0.50481  0.56955  0.24241  1.0000
  C   C2462     1.0  0.67428  0.39895  0.40517  1.0000
  H   H4358     1.0  0.60291  0.39022  0.21119  1.0000
  C   C2463     1.0  0.74099  0.44902  0.46596  1.0000
  H   H4359     1.0  0.66384  0.41385  0.40729  1.0000
  H   H4360     1.0  0.65498  0.56350  0.97556  1.0000
  C   C2464     1.0  0.67291  0.39822  0.36797  1.0000
  H   H4361     1.0  0.49384  0.40801  0.34883  1.0000
  H   H4362     1.0  0.52688  0.40990  0.12508  1.0000
  H   H4363     1.0  0.63308  0.56145  0.33074  1.0000
  S   S570      1.0  0.74854  0.56202  0.09204  1.0000
  H   H4364     1.0  0.61293  0.56508  0.45074  1.0000
  C   C2465     1.0  0.64688  0.50390  0.20498  1.0000
  H   H4365     1.0  0.52086  0.46155  0.13197  1.0000
  H   H4366     1.0  0.50859  0.43064  0.14784  1.0000
  H   H4367     1.0  0.60869  0.43371  0.30841  1.0000
  C   C2466     1.0  0.52649  0.51864  0.22330  1.0000
  H   H4368     1.0  0.59832  0.43368  0.21784  1.0000
  H   H4369     1.0  0.70645  0.54311  0.02845  1.0000
  H   H4370     1.0  0.54791  0.46056  0.12524  1.0000
  H   H4371     1.0  0.77028  0.44561  0.41385  1.0000
  S   S571      1.0  0.56206  0.55418  0.36392  1.0000
  C   C2467     1.0  0.66977  0.56455  0.05712  1.0000
  H   H4372     1.0  0.52255  0.58041  0.05597  1.0000
  H   H4373     1.0  0.72417  0.53133  0.13251  1.0000
  H   H4374     1.0  0.62296  0.48147  0.44942  1.0000
  H   H4375     1.0  0.75402  0.45805  0.13876  1.0000
  H   H4376     1.0  0.50610  0.39431  0.32796  1.0000
  C   C2468     1.0  0.96126  0.42428  0.19108  1.0000
  H   H4377     1.0  0.85377  0.56004  0.08272  1.0000
  H   H4378     1.0  0.55176  0.54686  0.09341  1.0000
  H   H4379     1.0  0.70139  0.40791  0.15936  1.0000
  S   S572      1.0  0.59637  0.57517  0.18225  1.0000
  H   H4380     1.0  0.69033  0.40165  0.39912  1.0000
  C   C2469     1.0  0.50382  0.44101  0.17644  1.0000
  C   C2470     1.0  0.60910  0.51073  0.00345  1.0000
  H   H4381     1.0  0.58341  0.49416  0.01737  1.0000
  S   S573      1.0  0.51323  0.39675  0.27716  1.0000
  H   H4382     1.0  0.70426  0.39463  0.33253  1.0000
  H   H4383     1.0  0.69013  0.48773  0.97772  1.0000
  H   H4384     1.0  0.73718  0.42926  0.13638  1.0000
  C   C2471     1.0  0.55891  0.54899  0.05338  1.0000
  H   H4385     1.0  0.68465  0.45391  0.16269  1.0000
  C   C2472     1.0  0.54072  0.53991  0.05005  1.0000
  C   C2473     1.0  0.50841  0.54409  0.38164  1.0000
  H   H4386     1.0  0.51807  0.53059  0.21241  1.0000
  H   H4387     1.0  0.52055  0.54243  0.42997  1.0000
  C   C2474     1.0  0.57469  0.52071  0.25215  1.0000
  C   C2475     1.0  0.59930  0.55347  0.28355  1.0000
  H   H4388     1.0  0.52753  0.50942  0.14691  1.0000
  H   H4389     1.0  0.56781  0.51574  0.24089  1.0000
  C   C2476     1.0  0.57220  0.57570  0.06372  1.0000
  H   H4390     1.0  0.50091  0.39259  0.38450  1.0000
  H   H4391     1.0  0.66731  0.51064  0.02444  1.0000
  C   C2477     1.0  0.58767  0.56180  0.07717  1.0000
  S   S574      1.0  0.59318  0.57753  0.98150  1.0000
  H   H4392     1.0  0.53691  0.49953  0.12321  1.0000
  H   H4393     1.0  0.78136  0.43282  0.45721  1.0000
  C   C2478     1.0  0.54226  0.56087  0.08581  1.0000
  H   H4394     1.0  0.61726  0.38420  0.13728  1.0000
  C   C2479     1.0  0.51281  0.50306  0.23548  1.0000
  C   C2480     1.0  0.70475  0.40833  0.14244  1.0000
  H   H4395     1.0  0.49511  0.47091  0.37678  1.0000
  H   H4396     1.0  0.52359  0.47409  0.16587  1.0000
  H   H4397     1.0  0.68309  0.57975  0.08588  1.0000
  H   H4398     1.0  0.74686  0.41657  0.43091  1.0000
  H   H4399     1.0  0.59006  0.49709  0.98972  1.0000
  C   C2481     1.0  0.59127  0.47744  0.24066  1.0000
  C   C2482     1.0  0.71431  0.43052  0.10846  1.0000
  S   S575      1.0  0.64705  0.40594  0.14389  1.0000
  H   H4400     1.0  0.68672  0.43167  0.09546  1.0000
  H   H4401     1.0  0.54588  0.52058  0.27451  1.0000
  C   C2483     1.0  0.52279  0.54610  0.41291  1.0000
  H   H4402     1.0  0.72839  0.46443  0.11522  1.0000
  H   H4403     1.0  0.84591  0.56190  0.98995  1.0000
  H   H4404     1.0  0.65681  0.54723  0.08560  1.0000
  C   C2484     1.0  0.70174  0.42121  0.09705  1.0000
  H   H4405     1.0  0.68512  0.45867  0.12403  1.0000
  C   C2485     1.0  0.53413  0.47587  0.15085  1.0000
  C   C2486     1.0  0.96820  0.55939  0.11821  1.0000
  H   H4406     1.0  0.57443  0.45051  0.22578  1.0000
  C   C2487     1.0  0.53834  0.42035  0.11849  1.0000
  C   C2488     1.0  0.52680  0.49712  0.13854  1.0000
  H   H4407     1.0  0.62191  0.50969  0.99020  1.0000
  H   H4408     1.0  0.73083  0.42280  0.10574  1.0000
  H   H4409     1.0  0.97498  0.40151  0.22644  1.0000
  H   H4410     1.0  0.51651  0.53754  0.30869  1.0000
  H   H4411     1.0  0.51056  0.49852  0.13646  1.0000
  C   C2489     1.0  0.64934  0.57032  0.98978  1.0000
  C   C2490     1.0  0.49284  0.46038  0.31150  1.0000
  H   H4412     1.0  0.71740  0.43566  0.15705  1.0000
  C   C2491     1.0  0.63232  0.52405  0.04526  1.0000
  H   H4413     1.0  0.71435  0.44673  0.10021  1.0000
  C   C2492     1.0  0.51809  0.42929  0.15982  1.0000
  C   C2493     1.0  0.61640  0.47253  0.26500  1.0000
  H   H4414     1.0  0.58759  0.48766  0.22608  1.0000
  H   H4415     1.0  0.70750  0.51211  0.13877  1.0000
  H   H4416     1.0  0.57587  0.47568  0.25028  1.0000
  H   H4417     1.0  0.53135  0.52638  0.23398  1.0000
  H   H4418     1.0  0.52941  0.40553  0.40448  1.0000
  H   H4419     1.0  0.94785  0.56144  0.09635  1.0000
  H   H4420     1.0  0.49007  0.41450  0.19386  1.0000
  H   H4421     1.0  0.59602  0.39739  0.42638  1.0000
  H   H4422     1.0  0.51185  0.44125  0.18908  1.0000
  C   C2494     1.0  0.62788  0.56895  0.12308  1.0000
  S   S576      1.0  0.60204  0.40246  0.06021  1.0000
  C   C2495     1.0  0.63144  0.42132  0.36068  1.0000
  H   H4423     1.0  0.56351  0.42251  0.09209  1.0000
  C   C2496     1.0  0.49695  0.56382  0.26333  1.0000
  H   H4424     1.0  0.56842  0.53601  0.06236  1.0000
  H   H4425     1.0  0.66938  0.41955  0.33138  1.0000
  C   C2497     1.0  0.67018  0.55534  0.07981  1.0000
  C   C2498     1.0  0.58962  0.56837  0.38086  1.0000
  H   H4426     1.0  0.71507  0.41079  0.42122  1.0000
  H   H4427     1.0  0.67011  0.41532  0.36649  1.0000
  C   C2499     1.0  0.61406  0.38575  0.15331  1.0000
  H   H4428     1.0  0.54743  0.57811  0.02146  1.0000
  H   H4429     1.0  0.61888  0.56010  0.08238  1.0000
  H   H4430     1.0  0.71323  0.52259  0.15893  1.0000
  C   C2500     1.0  0.69344  0.39457  0.32229  1.0000
  H   H4431     1.0  0.65204  0.45325  0.46081  1.0000
  H   H4432     1.0  0.56484  0.41089  0.36755  1.0000
  H   H4433     1.0  0.69964  0.42409  0.30364  1.0000
  H   H4434     1.0  0.69846  0.40578  0.10519  1.0000
  H   H4435     1.0  0.65542  0.51015  0.21397  1.0000
  C   C2501     1.0  0.59135  0.44973  0.22027  1.0000
  H   H4436     1.0  0.64305  0.45211  0.15156  1.0000
  H   H4437     1.0  0.95907  0.57335  0.12419  1.0000
  H   H4438     1.0  0.64445  0.56086  0.02258  1.0000
  H   H4439     1.0  0.58411  0.53266  0.24386  1.0000
  C   C2502     1.0  0.68484  0.48994  0.99397  1.0000
  H   H4440     1.0  0.62283  0.39727  0.42642  1.0000
  H   H4441     1.0  0.97215  0.38533  0.21018  1.0000
  C   C2503     1.0  0.71572  0.42584  0.44665  1.0000
  C   C2504     1.0  0.98275  0.39511  0.21230  1.0000
  C   C2505     1.0  0.63947  0.39857  0.35757  1.0000
  N   N138      1.0  0.61247  0.45301  0.44949  1.0000
  C   C2506     1.0  0.59096  0.46542  0.44902  1.0000
  C   C2507     1.0  0.95386  0.55019  0.10928  1.0000
  C   C2508     1.0  0.50664  0.53801  0.40535  1.0000
  C   C2509     1.0  0.61744  0.43689  0.43581  1.0000
  C   C2510     1.0  0.60123  0.42260  0.43899  1.0000
  C   C2511     1.0  0.58603  0.47602  0.42741  1.0000
  H   H4442     1.0  0.55749  0.52770  0.02257  1.0000
  C   C2512     1.0  0.55667  0.41267  0.38339  1.0000
  C   C2513     1.0  0.65360  0.45976  0.15685  1.0000
  C   C2514     1.0  0.60786  0.40738  0.42394  1.0000
  C   C2515     1.0  0.56354  0.48736  0.42910  1.0000
  C   C2516     1.0  0.60595  0.38909  0.19505  1.0000
  H   H4443     1.0  0.56909  0.55264  0.03821  1.0000
  H   H4444     1.0  0.57908  0.45568  0.45689  1.0000
  H   H4445     1.0  0.62883  0.43153  0.47185  1.0000
  C   C2517     1.0  0.51999  0.54538  0.33725  1.0000
  H   H4446     1.0  0.52574  0.55791  0.34154  1.0000
  H   H4447     1.0  0.62817  0.47382  0.42522  1.0000
  H   H4448     1.0  0.61999  0.44428  0.41929  1.0000
  H   H4449     1.0  0.63235  0.42643  0.43812  1.0000
  H   H4450     1.0  0.58584  0.43158  0.43640  1.0000
  H   H4451     1.0  0.54063  0.51053  0.21437  1.0000
  H   H4452     1.0  0.59612  0.48763  0.42001  1.0000
  H   H4453     1.0  0.58827  0.46465  0.41705  1.0000
  C   C2518     1.0  0.49274  0.51410  0.24761  1.0000
  H   H4454     1.0  0.73772  0.44379  0.42825  1.0000
  C   C2519     1.0  0.58830  0.50216  0.26376  1.0000
  C   C2520     1.0  0.73841  0.42913  0.43965  1.0000
  C   C2521     1.0  0.73845  0.46770  0.14208  1.0000
  H   H4455     1.0  0.63238  0.40459  0.18746  1.0000
  H   H4456     1.0  0.60055  0.41527  0.37511  1.0000
  C   C2522     1.0  0.63989  0.38808  0.00391  1.0000
  H   H4457     1.0  0.56064  0.49928  0.43902  1.0000
  H   H4458     1.0  0.56032  0.49530  0.41365  1.0000
  H   H4459     1.0  0.55272  0.47624  0.43560  1.0000
  H   H4460     1.0  0.63231  0.39633  0.34495  1.0000
  H   H4461     1.0  0.53171  0.53365  0.06502  1.0000
  H   H4462     1.0  0.82069  0.56606  0.00584  1.0000
  H   H4463     1.0  0.69803  0.56766  0.99782  1.0000
  H   H4464     1.0  0.72773  0.38985  0.12170  1.0000
  N   N139      1.0  0.66794  0.56561  0.11533  1.0000
  H   H4465     1.0  0.54447  0.40824  0.08993  1.0000
  C   C2523     1.0  0.52025  0.55058  0.31409  1.0000
  C   C2524     1.0  0.53732  0.40271  0.38890  1.0000
  C   C2525     1.0  0.75012  0.41011  0.47169  1.0000
  H   H4466     1.0  0.52283  0.46999  0.37157  1.0000
  H   H4467     1.0  0.73985  0.48412  0.13569  1.0000
  C   C2526     1.0  0.77545  0.44872  0.42728  1.0000
  H   H4468     1.0  0.58109  0.56074  0.09381  1.0000
  H   H4469     1.0  0.50107  0.46621  0.24337  1.0000
  H   H4470     1.0  0.50734  0.55526  0.27364  1.0000
  H   H4471     1.0  0.50890  0.52096  0.41030  1.0000
  C   C2527     1.0  0.61664  0.50843  0.02415  1.0000
  C   C2528     1.0  0.63249  0.53973  0.00925  1.0000
  H   H4472     1.0  0.68315  0.57259  0.05040  1.0000
  H   H4473     1.0  0.95361  0.41329  0.18646  1.0000
  H   H4474     1.0  0.64595  0.53045  0.04635  1.0000
  H   H4475     1.0  0.59817  0.57353  0.47403  1.0000
  H   H4476     1.0  0.68517  0.47443  0.00397  1.0000
  H   H4477     1.0  0.61493  0.57215  0.05676  1.0000
  C   C2529     1.0  0.64933  0.55549  0.12514  1.0000
  C   C2530     1.0  0.63025  0.50550  0.06336  1.0000
  H   H4478     1.0  0.65446  0.47517  0.14696  1.0000
  H   H4479     1.0  0.70784  0.47163  0.13572  1.0000
  H   H4480     1.0  0.66446  0.54405  0.00853  1.0000
  H   H4481     1.0  0.72890  0.52969  0.01372  1.0000
  H   H4482     1.0  0.80759  0.43559  0.41645  1.0000
  H   H4483     1.0  0.63815  0.43231  0.34754  1.0000
  C   C2531     1.0  0.64865  0.55329  0.00879  1.0000
  H   H4484     1.0  0.49004  0.53644  0.34083  1.0000
  N   N140      1.0  0.60332  0.48773  0.25084  1.0000
  H   H4485     1.0  0.65446  0.48957  0.02813  1.0000
  H   H4486     1.0  0.49967  0.50210  0.38924  1.0000
  C   C2532     1.0  0.71347  0.41876  0.07544  1.0000
  C   C2533     1.0  0.66913  0.57246  0.09236  1.0000
  H   H4487     1.0  0.66350  0.51763  0.98593  1.0000
  C   C2534     1.0  0.62752  0.57351  0.31814  1.0000
  C   C2535     1.0  0.54882  0.52212  0.03802  1.0000
  C   C2536     1.0  0.84160  0.39682  0.39359  1.0000
  C   C2537     1.0  0.72417  0.39152  0.13812  1.0000
  H   H4488     1.0  0.61683  0.54923  0.01307  1.0000
  H   H4489     1.0  0.64689  0.51572  0.08270  1.0000
  C   C2538     1.0  0.70030  0.40795  0.30163  1.0000
  H   H4490     1.0  0.73791  0.39536  0.14214  1.0000
  H   H4491     1.0  0.49115  0.54501  0.41303  1.0000
  H   H4492     1.0  0.61862  0.53632  0.04831  1.0000
  C   C2539     1.0  0.63171  0.51118  0.08368  1.0000
  H   H4493     1.0  0.61512  0.50049  0.06536  1.0000
  C   C2540     1.0  0.62266  0.39707  0.18167  1.0000
  H   H4494     1.0  0.96219  0.53572  0.10368  1.0000
  H   H4495     1.0  0.65521  0.57578  0.05532  1.0000
  C   C2541     1.0  0.60787  0.42660  0.36278  1.0000
  C   C2542     1.0  0.65059  0.45818  0.44435  1.0000
  C   C2543     1.0  0.49987  0.39240  0.34475  1.0000
  H   H4496     1.0  0.67802  0.53768  0.15202  1.0000
  C   C2544     1.0  0.72293  0.46137  0.13209  1.0000
  H   H4497     1.0  0.52708  0.41082  0.37769  1.0000
  H   H4498     1.0  0.63340  0.53753  0.99325  1.0000
  H   H4499     1.0  0.70356  0.41353  0.06704  1.0000
  H   H4500     1.0  0.60218  0.44227  0.36681  1.0000
  C   C2545     1.0  0.66138  0.39169  0.46515  1.0000
  H   H4501     1.0  0.51240  0.56335  0.12152  1.0000
  N   N141      1.0  0.63426  0.51932  0.02396  1.0000
  H   H4502     1.0  0.61316  0.54385  0.12029  1.0000
  H   H4503     1.0  0.82627  0.39189  0.39696  1.0000
  C   C2546     1.0  0.79835  0.45043  0.42058  1.0000
  H   H4504     1.0  0.52123  0.56317  0.40806  1.0000
  H   H4505     1.0  0.55471  0.40605  0.14379  1.0000
  C   C2547     1.0  0.98318  0.41407  0.19453  1.0000
  H   H4506     1.0  0.64266  0.49211  0.06069  1.0000
  H   H4507     1.0  0.63026  0.49765  0.09624  1.0000
  C   C2548     1.0  0.72125  0.43819  0.13994  1.0000
  H   H4508     1.0  0.64695  0.46205  0.17289  1.0000
  H   H4509     1.0  0.53588  0.55338  0.30590  1.0000
  C   C2549     1.0  0.68714  0.54969  0.11875  1.0000
  C   C2550     1.0  0.83722  0.56726  0.00435  1.0000
  C   C2551     1.0  0.60767  0.57057  0.07327  1.0000
  H   H4510     1.0  0.59104  0.45516  0.28046  1.0000
  H   H4511     1.0  0.66445  0.47902  0.41808  1.0000
  C   C2552     1.0  0.61071  0.55595  0.12990  1.0000
  H   H4512     1.0  0.59665  0.50859  0.27280  1.0000
  C   C2553     1.0  0.50640  0.51046  0.37401  1.0000
  H   H4513     1.0  0.66075  0.40188  0.32057  1.0000
  H   H4514     1.0  0.55227  0.42947  0.38396  1.0000
  C   C2554     1.0  0.60411  0.46039  0.28428  1.0000
  H   H4515     1.0  0.55909  0.50949  0.04652  1.0000
  H   H4516     1.0  0.61898  0.52384  0.08790  1.0000
  H   H4517     1.0  0.62543  0.48340  0.20933  1.0000
  H   H4518     1.0  0.68474  0.54387  0.08051  1.0000
  C   C2555     1.0  0.62660  0.39551  0.16076  1.0000
  H   H4519     1.0  0.59947  0.41343  0.45478  1.0000
  C   C2556     1.0  0.98701  0.56491  0.10163  1.0000
  H   H4520     1.0  0.52224  0.49157  0.24567  1.0000
  C   C2557     1.0  0.61708  0.50060  0.23493  1.0000
  H   H4521     1.0  0.52327  0.50820  0.37447  1.0000
  H   H4522     1.0  0.71657  0.40168  0.29529  1.0000
  H   H4523     1.0  0.69010  0.42244  0.43356  1.0000
  N   N142      1.0  0.66268  0.39202  0.35296  1.0000
  H   H4524     1.0  0.53105  0.53080  0.34067  1.0000
  H   H4525     1.0  0.63544  0.42384  0.37496  1.0000
  S   S577      1.0  0.81210  0.56244  0.07704  1.0000
  C   C2558     1.0  0.58707  0.57003  0.27279  1.0000
  H   H4526     1.0  0.97323  0.54774  0.13133  1.0000
  H   H4527     1.0  0.52098  0.41262  0.16679  1.0000
  H   H4528     1.0  0.67082  0.55198  0.04845  1.0000
  H   H4529     1.0  0.77984  0.41615  0.44057  1.0000
  H   H4530     1.0  0.64888  0.55056  0.14198  1.0000
  H   H4531     1.0  0.49008  0.50294  0.35165  1.0000
  C   C2559     1.0  0.50508  0.49853  0.35708  1.0000
  H   H4532     1.0  0.72787  0.40707  0.07625  1.0000
  C   C2560     1.0  0.71022  0.52633  0.14290  1.0000
  H   H4533     1.0  0.73322  0.46614  0.15900  1.0000
  H   H4534     1.0  0.64368  0.47613  0.22706  1.0000
  C   C2561     1.0  0.60141  0.45547  0.23595  1.0000
  H   H4535     1.0  0.56340  0.53544  0.27922  1.0000
  H   H4536     1.0  0.59403  0.46048  0.20538  1.0000
  C   C2562     1.0  0.49783  0.54385  0.34946  1.0000
  C   C2563     1.0  0.56968  0.57130  0.37634  1.0000
  C   C2564     1.0  0.59201  0.57498  0.25137  1.0000
  C   C2565     1.0  0.84426  0.57238  0.09027  1.0000
  H   H4537     1.0  0.61023  0.54842  0.14626  1.0000
  C   C2566     1.0  0.66478  0.47405  0.43481  1.0000
  H   H4538     1.0  0.62667  0.56579  0.30543  1.0000
  H   H4539     1.0  0.63722  0.39083  0.02000  1.0000
  H   H4540     1.0  0.50463  0.46724  0.31580  1.0000
  H   H4541     1.0  0.84006  0.41078  0.40048  1.0000
  H   H4542     1.0  0.50353  0.56123  0.37801  1.0000
  N   N143      1.0  0.75002  0.42997  0.45622  1.0000
  H   H4543     1.0  0.50874  0.56474  0.31032  1.0000
  H   H4544     1.0  0.65978  0.58073  0.99063  1.0000
  H   H4545     1.0  0.69438  0.55685  0.14663  1.0000
  H   H4546     1.0  0.63377  0.57974  0.98883  1.0000
  C   C2567     1.0  0.67062  0.40271  0.33158  1.0000
  S   S578      1.0  0.55566  0.57251  0.16260  1.0000
  C   C2568     1.0  0.82275  0.57672  0.09042  1.0000
  H   H4547     1.0  0.52737  0.55614  0.08580  1.0000
  H   H4548     1.0  0.84351  0.55693  0.01762  1.0000
  C   C2569     1.0  0.62785  0.46758  0.44188  1.0000
  H   H4549     1.0  0.95180  0.42947  0.20529  1.0000
  N   N144      1.0  0.55286  0.56752  0.06408  1.0000
  H   H4550     1.0  0.56318  0.39667  0.10653  1.0000
  H   H4551     1.0  0.70121  0.55527  0.10900  1.0000
  C   C2570     1.0  0.55329  0.41136  0.10076  1.0000
  H   H4552     1.0  0.53004  0.55169  0.04130  1.0000
  H   H4553     1.0  0.63045  0.40113  0.99498  1.0000
  H   H4554     1.0  0.48897  0.56003  0.34862  1.0000
  H   H4555     1.0  0.67439  0.38872  0.42033  1.0000
  H   H4556     1.0  0.63262  0.38842  0.37150  1.0000
  H   H4557     1.0  0.59552  0.56613  0.12837  1.0000
  H   H4558     1.0  0.62703  0.57702  0.10713  1.0000
  H   H4559     1.0  0.57346  0.57859  0.28099  1.0000
  H   H4560     1.0  0.87022  0.58040  0.09937  1.0000
  H   H4561     1.0  0.59548  0.57410  0.33161  1.0000
  C   C2571     1.0  0.66672  0.38855  0.39088  1.0000
  C   C2572     1.0  0.61375  0.44216  0.47128  1.0000
  H   H4562     1.0  0.69031  0.40802  0.29046  1.0000
  H   H4563     1.0  0.64974  0.38988  0.39559  1.0000
  H   H4564     1.0  0.53781  0.55539  0.12872  1.0000
  C   C2573     1.0  0.52696  0.56860  0.12169  1.0000
  H   H4565     1.0  0.58085  0.57859  0.04769  1.0000
  H   H4566     1.0  0.58771  0.58100  0.45033  1.0000
  C   C2574     1.0  0.60203  0.57810  0.45705  1.0000
  H   H4567     1.0  0.78506  0.38411  0.41802  1.0000
  H   H4568     1.0  0.50748  0.38358  0.41789  1.0000
  H   H4569     1.0  0.49710  0.52518  0.25537  1.0000
  H   H4570     1.0  0.52319  0.58078  0.13141  1.0000
  C   C2575     1.0  0.49164  0.57995  0.22859  1.0000
  H   H4571     1.0  0.61033  0.58051  0.39382  1.0000
  C   C2576     1.0  0.49145  0.48871  0.27974  1.0000
  Fe  Fe286     1.0  0.53636  0.58189  0.19203  1.0000
  H   H4572     1.0  0.53445  0.38354  0.18983  1.0000
  C   C2577     1.0  0.72196  0.55255  0.97492  1.0000
  H   H4573     1.0  0.71707  0.45733  0.67885  1.0000
  H   H4574     1.0  0.97364  0.42468  0.76555  1.0000
  S   S579      1.0  0.85712  0.55090  0.77458  1.0000
  H   H4575     1.0  0.85570  0.57505  0.86611  1.0000
  H   H4576     1.0  0.94548  0.39521  0.81277  1.0000
  C   C2578     1.0  0.89726  0.47309  0.66827  1.0000
  Fe  Fe287     1.0  0.75355  0.51996  0.61628  1.0000
  S   S580      1.0  0.77549  0.52861  0.58718  1.0000
  S   S581      1.0  0.72524  0.50527  0.61808  1.0000
  Fe  Fe288     1.0  0.78233  0.52786  0.64306  1.0000
  S   S582      1.0  0.80685  0.53550  0.61581  1.0000
  S   S583      1.0  0.78942  0.52502  0.67494  1.0000
  Fe  Fe289     1.0  0.78007  0.55445  0.60147  1.0000
  Fe  Fe290     1.0  0.79995  0.50920  0.60429  1.0000
  S   S584      1.0  0.82186  0.48412  0.58963  1.0000
  S   S585      1.0  0.75547  0.54787  0.62937  1.0000
  S   S586      1.0  0.77813  0.49953  0.63291  1.0000
  Fe  Fe291     1.0  0.64617  0.41576  0.56426  1.0000
  S   S587      1.0  0.65670  0.44088  0.53840  1.0000
  S   S588      1.0  0.61325  0.41491  0.58193  1.0000
  H   H4577     1.0  0.71209  0.54169  0.97373  1.0000
  S   S589      1.0  0.70250  0.41140  0.53445  1.0000
  Fe  Fe292     1.0  0.68537  0.43624  0.55279  1.0000
  S   S590      1.0  0.70627  0.45976  0.55144  1.0000
  Fe  Fe293     1.0  0.67311  0.41414  0.52257  1.0000
  S   S591      1.0  0.67434  0.41334  0.48896  1.0000
  S   S592      1.0  0.67330  0.41356  0.58008  1.0000
  H   H4578     1.0  0.75872  0.54024  0.72960  1.0000
  Fe  Fe294     1.0  0.82781  0.41498  0.80296  1.0000
  S   S593      1.0  0.79373  0.41491  0.81299  1.0000
  Fe  Fe295     1.0  0.82103  0.45407  0.77093  1.0000
  S   S594      1.0  0.78654  0.45681  0.77779  1.0000
  S   S595      1.0  0.83384  0.47734  0.74493  1.0000
  Fe  Fe296     1.0  0.79057  0.44938  0.81078  1.0000
  S   S596      1.0  0.77050  0.46698  0.83519  1.0000
  Fe  Fe297     1.0  0.79284  0.42251  0.77921  1.0000
  S   S597      1.0  0.77410  0.40660  0.76579  1.0000
  S   S598      1.0  0.82503  0.44880  0.80380  1.0000
  S   S599      1.0  0.82699  0.42037  0.76926  1.0000
  H   H4579     1.0  0.97674  0.57611  0.59802  1.0000
  H   H4580     1.0  0.92133  0.57490  0.62114  1.0000
  H   H4581     1.0  0.61277  0.40386  0.54276  1.0000
  H   H4582     1.0  0.72944  0.39597  0.56440  1.0000
  H   H4583     1.0  0.92958  0.46182  0.67264  1.0000
  H   H4584     1.0  0.60881  0.56196  0.85854  1.0000
  N   N145      1.0  0.76838  0.43795  0.63339  1.0000
  H   H4585     1.0  0.87576  0.43799  0.76416  1.0000
  S   S600      1.0  0.70710  0.54842  0.80886  1.0000
  H   H4586     1.0  0.75435  0.44256  0.66450  1.0000
  H   H4587     1.0  0.76528  0.42056  0.49270  1.0000
  S   S601      1.0  0.87780  0.43060  0.65282  1.0000
  H   H4588     1.0  0.80885  0.57899  0.61385  1.0000
  H   H4589     1.0  0.70168  0.46529  0.50560  1.0000
  C   C2579     1.0  0.79467  0.42678  0.65883  1.0000
  H   H4590     1.0  0.92543  0.38863  0.84385  1.0000
  C   C2580     1.0  0.73885  0.40508  0.56935  1.0000
  C   C2581     1.0  0.75212  0.48904  0.82799  1.0000
  C   C2582     1.0  0.74939  0.49565  0.80754  1.0000
  C   C2583     1.0  0.73550  0.51383  0.80198  1.0000
  C   C2584     1.0  0.72399  0.52547  0.81681  1.0000
  C   C2585     1.0  0.72645  0.51878  0.83737  1.0000
  C   C2586     1.0  0.74054  0.50065  0.84291  1.0000
  H   H4591     1.0  0.75813  0.48692  0.79592  1.0000
  H   H4592     1.0  0.73356  0.51882  0.78612  1.0000
  H   H4593     1.0  0.71754  0.52751  0.84899  1.0000
  H   H4594     1.0  0.74248  0.49560  0.85880  1.0000
  H   H4595     1.0  0.78150  0.40105  0.47893  1.0000
  C   C2587     1.0  0.78772  0.39366  0.74562  1.0000
  C   C2588     1.0  0.49579  0.45010  0.65667  1.0000
  H   H4596     1.0  0.86125  0.57123  0.54353  1.0000
  C   C2589     1.0  0.84427  0.57153  0.54541  1.0000
  H   H4597     1.0  0.85089  0.42714  0.69997  1.0000
  H   H4598     1.0  0.80113  0.39212  0.54686  1.0000
  H   H4599     1.0  0.84950  0.54127  0.91720  1.0000
  H   H4600     1.0  0.70570  0.47756  0.47898  1.0000
  H   H4601     1.0  0.73301  0.38715  0.62421  1.0000
  H   H4602     1.0  0.71170  0.43891  0.48369  1.0000
  C   C2590     1.0  0.71747  0.54487  0.93474  1.0000
  C   C2591     1.0  0.95017  0.40594  0.78020  1.0000
  C   C2592     1.0  0.83716  0.46897  0.60723  1.0000
  C   C2593     1.0  0.84829  0.44946  0.60388  1.0000
  C   C2594     1.0  0.86071  0.43745  0.61794  1.0000
  C   C2595     1.0  0.86231  0.44517  0.63509  1.0000
  C   C2596     1.0  0.85127  0.46475  0.63828  1.0000
  C   C2597     1.0  0.83844  0.47647  0.62458  1.0000
  H   H4603     1.0  0.84730  0.44363  0.59045  1.0000
  H   H4604     1.0  0.86930  0.42237  0.61535  1.0000
  H   H4605     1.0  0.85218  0.47069  0.65160  1.0000
  H   H4606     1.0  0.82977  0.49145  0.62733  1.0000
  C   C2598     1.0  0.72049  0.49229  0.59951  1.0000
  C   C2599     1.0  0.73324  0.49196  0.58023  1.0000
  C   C2600     1.0  0.72872  0.48179  0.56587  1.0000
  C   C2601     1.0  0.71164  0.47146  0.57066  1.0000
  C   C2602     1.0  0.69915  0.47139  0.59011  1.0000
  C   C2603     1.0  0.70341  0.48196  0.60430  1.0000
  H   H4607     1.0  0.74637  0.49988  0.57621  1.0000
  H   H4608     1.0  0.73844  0.48207  0.55086  1.0000
  H   H4609     1.0  0.68586  0.46370  0.59402  1.0000
  H   H4610     1.0  0.69332  0.48220  0.61909  1.0000
  C   C2604     1.0  0.72398  0.44665  0.48557  1.0000
  H   H4611     1.0  0.91157  0.48296  0.69843  1.0000
  H   H4612     1.0  0.86418  0.54068  0.61225  1.0000
  H   H4613     1.0  0.94112  0.44335  0.64334  1.0000
  H   H4614     1.0  0.59573  0.54140  0.96475  1.0000
  C   C2605     1.0  0.76541  0.41574  0.63640  1.0000
  H   H4615     1.0  0.76050  0.40988  0.65309  1.0000
  C   C2606     1.0  0.91763  0.45693  0.66653  1.0000
  C   C2607     1.0  0.78970  0.54759  0.68424  1.0000
  C   C2608     1.0  0.79783  0.54569  0.70218  1.0000
  C   C2609     1.0  0.79829  0.56334  0.71003  1.0000
  H   H4616     1.0  0.60738  0.57464  0.79193  1.0000
  H   H4617     1.0  0.86606  0.50205  0.65731  1.0000
  H   H4618     1.0  0.80379  0.53046  0.71001  1.0000
  H   H4619     1.0  0.80475  0.56171  0.72377  1.0000
  H   H4620     1.0  0.64065  0.52294  0.81226  1.0000
  C   C2610     1.0  0.84996  0.52982  0.57217  1.0000
  C   C2611     1.0  0.85199  0.53023  0.76558  1.0000
  C   C2612     1.0  0.84411  0.53368  0.74736  1.0000
  C   C2613     1.0  0.83933  0.51715  0.74074  1.0000
  C   C2614     1.0  0.84156  0.49732  0.75275  1.0000
  C   C2615     1.0  0.84969  0.49377  0.77083  1.0000
  C   C2616     1.0  0.85520  0.51017  0.77708  1.0000
  H   H4621     1.0  0.84166  0.54907  0.73838  1.0000
  H   H4622     1.0  0.83316  0.51989  0.72670  1.0000
  H   H4623     1.0  0.85190  0.47839  0.77990  1.0000
  H   H4624     1.0  0.86151  0.50742  0.79106  1.0000
  C   C2617     1.0  0.56012  0.56827  0.84770  1.0000
  C   C2618     1.0  0.60576  0.55100  0.95410  1.0000
  S   S602      1.0  0.85401  0.38969  0.81212  1.0000
  H   H4625     1.0  0.87074  0.53492  0.54294  1.0000
  H   H4626     1.0  0.50205  0.43471  0.65220  1.0000
  H   H4627     1.0  0.91880  0.47862  0.73548  1.0000
  H   H4628     1.0  0.51593  0.41550  0.59097  1.0000
  H   H4629     1.0  0.88372  0.49203  0.72714  1.0000
  H   H4630     1.0  0.75254  0.57336  0.95920  1.0000
  H   H4631     1.0  0.77530  0.56892  0.66056  1.0000
  H   H4632     1.0  0.73443  0.40889  0.48072  1.0000
  H   H4633     1.0  0.88101  0.51305  0.57581  1.0000
  C   C2619     1.0  0.87776  0.43793  0.70456  1.0000
  N   N146      1.0  0.88537  0.47537  0.68968  1.0000
  H   H4634     1.0  0.92513  0.56477  0.59826  1.0000
  H   H4635     1.0  0.50330  0.40279  0.61518  1.0000
  C   C2620     1.0  0.85826  0.50424  0.67310  1.0000
  C   C2621     1.0  0.85145  0.54066  0.48247  1.0000
  Fe  Fe298     1.0  0.87888  0.39633  0.65676  1.0000
  C   C2622     1.0  0.50115  0.41590  0.60219  1.0000
  C   C2623     1.0  0.71543  0.46407  0.66270  1.0000
  H   H4636     1.0  0.91802  0.39146  0.76972  1.0000
  H   H4637     1.0  0.88621  0.43589  0.71741  1.0000
  Fe  Fe299     1.0  0.68913  0.38921  0.56102  1.0000
  H   H4638     1.0  0.88654  0.56409  0.58706  1.0000
  Fe  Fe300     1.0  0.68802  0.56689  0.83285  1.0000
  C   C2624     1.0  0.87356  0.49735  0.68861  1.0000
  H   H4639     1.0  0.86328  0.52379  0.50945  1.0000
  H   H4640     1.0  0.89744  0.40155  0.82412  1.0000
  H   H4641     1.0  0.74490  0.56011  0.86952  1.0000
  H   H4642     1.0  0.71494  0.55717  0.90262  1.0000
  H   H4643     1.0  0.57560  0.39990  0.60303  1.0000
  C   C2625     1.0  0.72083  0.54235  0.91225  1.0000
  H   H4644     1.0  0.73615  0.42326  0.62335  1.0000
  H   H4645     1.0  0.62137  0.46760  0.48290  1.0000
  H   H4646     1.0  0.69904  0.46527  0.66118  1.0000
  C   C2626     1.0  0.59934  0.39949  0.55342  1.0000
  C   C2627     1.0  0.75013  0.41118  0.62424  1.0000
  H   H4647     1.0  0.72932  0.57354  0.92357  1.0000
  H   H4648     1.0  0.86125  0.46143  0.68418  1.0000
  H   H4649     1.0  0.89880  0.47146  0.75672  1.0000
  H   H4650     1.0  0.77700  0.55797  0.81782  1.0000
  C   C2628     1.0  0.62983  0.55675  0.92191  1.0000
  H   H4651     1.0  0.85751  0.46662  0.70918  1.0000
  C   C2629     1.0  0.88418  0.42175  0.76532  1.0000
  H   H4652     1.0  0.56721  0.52839  0.86956  1.0000
  C   C2630     1.0  0.86972  0.46103  0.69672  1.0000
  H   H4653     1.0  0.84539  0.49527  0.67794  1.0000
  H   H4654     1.0  0.80233  0.55034  0.96698  1.0000
  C   C2631     1.0  0.89684  0.41676  0.78260  1.0000
  H   H4655     1.0  0.88591  0.41976  0.79689  1.0000
  C   C2632     1.0  0.81825  0.55049  0.54412  1.0000
  C   C2633     1.0  0.86353  0.55700  0.61361  1.0000
  H   H4656     1.0  0.80395  0.57914  0.52537  1.0000
  C   C2634     1.0  0.65780  0.39844  0.48410  1.0000
  S   S603      1.0  0.65366  0.56891  0.84265  1.0000
  H   H4657     1.0  0.72508  0.47559  0.49472  1.0000
  H   H4658     1.0  0.89616  0.38427  0.78736  1.0000
  H   H4659     1.0  0.90195  0.48805  0.65992  1.0000
  C   C2635     1.0  0.81682  0.38808  0.71775  1.0000
  C   C2636     1.0  0.85398  0.53407  0.54832  1.0000
  C   C2637     1.0  0.84949  0.53550  0.50588  1.0000
  H   H4660     1.0  0.87257  0.41141  0.76861  1.0000
  C   C2638     1.0  0.96258  0.42250  0.78032  1.0000
  H   H4661     1.0  0.85019  0.54263  0.89014  1.0000
  H   H4662     1.0  0.91348  0.45244  0.74147  1.0000
  C   C2639     1.0  0.84865  0.52715  0.67212  1.0000
  N   N147      1.0  0.72176  0.57034  0.95687  1.0000
  C   C2640     1.0  0.92653  0.45490  0.64410  1.0000
  H   H4663     1.0  0.78149  0.54516  0.85708  1.0000
  C   C2641     1.0  0.71355  0.46763  0.49146  1.0000
  H   H4664     1.0  0.86560  0.40964  0.71791  1.0000
  H   H4665     1.0  0.61040  0.45415  0.52001  1.0000
  H   H4666     1.0  0.76715  0.39526  0.54975  1.0000
  H   H4667     1.0  0.86076  0.53698  0.66638  1.0000
  H   H4668     1.0  0.84049  0.53018  0.68758  1.0000
  C   C2642     1.0  0.61052  0.45643  0.48742  1.0000
  H   H4669     1.0  0.77981  0.54303  0.54035  1.0000
  H   H4670     1.0  0.95210  0.43749  0.78202  1.0000
  Fe  Fe301     1.0  0.84182  0.58189  0.75952  1.0000
  H   H4671     1.0  0.74524  0.39448  0.51456  1.0000
  C   C2643     1.0  0.54481  0.55614  0.84313  1.0000
  H   H4672     1.0  0.52159  0.44767  0.67220  1.0000
  C   C2644     1.0  0.88439  0.56361  0.60388  1.0000
  H   H4673     1.0  0.63045  0.43612  0.50765  1.0000
  H   H4674     1.0  0.78750  0.42439  0.59701  1.0000
  H   H4675     1.0  0.71226  0.53041  0.91088  1.0000
  H   H4676     1.0  0.96234  0.55563  0.60120  1.0000
  N   N148      1.0  0.92100  0.38677  0.80185  1.0000
  H   H4677     1.0  0.77547  0.46666  0.56990  1.0000
  C   C2645     1.0  0.60728  0.57006  0.95832  1.0000
  H   H4678     1.0  0.80802  0.55643  0.51412  1.0000
  H   H4679     1.0  0.58729  0.38894  0.53109  1.0000
  H   H4680     1.0  0.60385  0.43194  0.51357  1.0000
  C   C2646     1.0  0.86469  0.51061  0.58046  1.0000
  H   H4681     1.0  0.75597  0.57582  0.84649  1.0000
  C   C2647     1.0  0.61401  0.44381  0.50842  1.0000
  N   N149      1.0  0.84074  0.55302  0.53807  1.0000
  C   C2648     1.0  0.78167  0.56729  0.67436  1.0000
  H   H4682     1.0  0.68856  0.57247  0.96455  1.0000
  H   H4683     1.0  0.81688  0.53386  0.54637  1.0000
  H   H4684     1.0  0.79724  0.38714  0.58378  1.0000
  C   C2649     1.0  0.56739  0.38519  0.56052  1.0000
  H   H4685     1.0  0.88877  0.38865  0.86276  1.0000
  H   H4686     1.0  0.87589  0.38570  0.74619  1.0000
  H   H4687     1.0  0.56388  0.54787  0.88433  1.0000
  N   N150      1.0  0.75198  0.45807  0.72306  1.0000
  C   C2650     1.0  0.77368  0.46044  0.72378  1.0000
  C   C2651     1.0  0.73914  0.45788  0.74436  1.0000
  C   C2652     1.0  0.75340  0.43714  0.71742  1.0000
  C   C2653     1.0  0.74186  0.47455  0.70739  1.0000
  C   C2654     1.0  0.74814  0.49622  0.70310  1.0000
  C   C2655     1.0  0.79003  0.45681  0.70422  1.0000
  C   C2656     1.0  0.73261  0.42964  0.71951  1.0000
  C   C2657     1.0  0.73552  0.47782  0.75355  1.0000
  C   C2658     1.0  0.72420  0.47439  0.77586  1.0000
  C   C2659     1.0  0.73500  0.51192  0.68894  1.0000
  C   C2660     1.0  0.80957  0.46526  0.70374  1.0000
  C   C2661     1.0  0.73542  0.41142  0.70833  1.0000
  H   H4688     1.0  0.77956  0.44922  0.73689  1.0000
  H   H4689     1.0  0.77395  0.47587  0.72705  1.0000
  H   H4690     1.0  0.72332  0.45514  0.74465  1.0000
  H   H4691     1.0  0.74616  0.44475  0.75537  1.0000
  H   H4692     1.0  0.76303  0.42501  0.72697  1.0000
  H   H4693     1.0  0.76152  0.43693  0.70134  1.0000
  H   H4694     1.0  0.74534  0.46962  0.69210  1.0000
  H   H4695     1.0  0.72468  0.47664  0.71184  1.0000
  H   H4696     1.0  0.76448  0.49532  0.69527  1.0000
  H   H4697     1.0  0.74671  0.50240  0.71732  1.0000
  H   H4698     1.0  0.79473  0.43992  0.70412  1.0000
  H   H4699     1.0  0.78382  0.46417  0.68994  1.0000
  H   H4700     1.0  0.72079  0.44224  0.71326  1.0000
  H   H4701     1.0  0.72662  0.42414  0.73601  1.0000
  H   H4702     1.0  0.75024  0.48282  0.75347  1.0000
  H   H4703     1.0  0.72549  0.49045  0.74484  1.0000
  H   H4704     1.0  0.73427  0.46316  0.78580  1.0000
  H   H4705     1.0  0.72004  0.48925  0.78166  1.0000
  H   H4706     1.0  0.70966  0.46851  0.77706  1.0000
  H   H4707     1.0  0.71840  0.51407  0.69626  1.0000
  H   H4708     1.0  0.74022  0.52710  0.68582  1.0000
  H   H4709     1.0  0.73678  0.50677  0.67398  1.0000
  H   H4710     1.0  0.81648  0.45778  0.71762  1.0000
  H   H4711     1.0  0.82112  0.46196  0.68988  1.0000
  H   H4712     1.0  0.80593  0.48230  0.70314  1.0000
  C   C2662     1.0  0.89034  0.47547  0.72672  1.0000
  C   C2663     1.0  0.73811  0.57755  0.74121  1.0000
  H   H4713     1.0  0.72049  0.40583  0.71091  1.0000
  C   C2664     1.0  0.81301  0.57950  0.95639  1.0000
  C   C2665     1.0  0.72944  0.56126  0.93743  1.0000
  H   H4714     1.0  0.85113  0.56685  0.60557  1.0000
  H   H4715     1.0  0.90785  0.42775  0.77887  1.0000
  H   H4716     1.0  0.86438  0.55891  0.51128  1.0000
  H   H4717     1.0  0.95944  0.56992  0.62191  1.0000
  H   H4718     1.0  0.92640  0.41648  0.80510  1.0000
  C   C2666     1.0  0.78115  0.55966  0.53731  1.0000
  H   H4719     1.0  0.81316  0.41043  0.73740  1.0000
  N   N151      1.0  0.58025  0.55539  0.85318  1.0000
  H   H4720     1.0  0.75792  0.41022  0.60818  1.0000
  C   C2667     1.0  0.59099  0.54433  0.83537  1.0000
  H   H4721     1.0  0.85051  0.57842  0.67902  1.0000
  C   C2668     1.0  0.57526  0.54001  0.87257  1.0000
  C   C2669     1.0  0.59388  0.52741  0.88260  1.0000
  H   H4722     1.0  0.91545  0.44954  0.63721  1.0000
  H   H4723     1.0  0.83719  0.53153  0.66157  1.0000
  C   C2670     1.0  0.61505  0.53935  0.83150  1.0000
  C   C2671     1.0  0.62344  0.52564  0.81514  1.0000
  C   C2672     1.0  0.58655  0.51530  0.90385  1.0000
  H   H4724     1.0  0.59442  0.46519  0.48945  1.0000
  C   C2673     1.0  0.80358  0.56237  0.52884  1.0000
  S   S604      1.0  0.64375  0.54754  0.89958  1.0000
  H   H4725     1.0  0.84905  0.43259  0.72551  1.0000
  H   H4726     1.0  0.83711  0.57148  0.81377  1.0000
  H   H4727     1.0  0.52552  0.46047  0.64574  1.0000
  H   H4728     1.0  0.79033  0.44337  0.56137  1.0000
  H   H4729     1.0  0.88718  0.46953  0.65885  1.0000
  H   H4730     1.0  0.89655  0.55134  0.61011  1.0000
  C   C2674     1.0  0.90643  0.46906  0.74090  1.0000
  H   H4731     1.0  0.60415  0.53739  0.88476  1.0000
  H   H4732     1.0  0.60303  0.51596  0.87301  1.0000
  H   H4733     1.0  0.73219  0.54345  0.72611  1.0000
  C   C2675     1.0  0.76160  0.39468  0.56652  1.0000
  H   H4734     1.0  0.82970  0.38722  0.59497  1.0000
  H   H4735     1.0  0.92998  0.46997  0.63493  1.0000
  H   H4736     1.0  0.62138  0.55390  0.82576  1.0000
  H   H4737     1.0  0.62126  0.53147  0.84559  1.0000
  H   H4738     1.0  0.61830  0.51041  0.82039  1.0000
  H   H4739     1.0  0.61806  0.53328  0.80045  1.0000
  C   C2676     1.0  0.74253  0.53985  0.73770  1.0000
  H   H4740     1.0  0.57641  0.50463  0.90280  1.0000
  H   H4741     1.0  0.91532  0.44142  0.67512  1.0000
  H   H4742     1.0  0.57798  0.52609  0.91445  1.0000
  H   H4743     1.0  0.71914  0.47994  0.65896  1.0000
  C   C2677     1.0  0.56417  0.38827  0.58089  1.0000
  H   H4744     1.0  0.49606  0.46964  0.62628  1.0000
  H   H4745     1.0  0.83551  0.52831  0.51231  1.0000
  C   C2678     1.0  0.76697  0.44966  0.61185  1.0000
  C   C2679     1.0  0.75265  0.44954  0.64846  1.0000
  C   C2680     1.0  0.78968  0.43816  0.63740  1.0000
  C   C2681     1.0  0.78403  0.44154  0.59451  1.0000
  C   C2682     1.0  0.72954  0.45039  0.64804  1.0000
  H   H4746     1.0  0.70058  0.54899  0.94026  1.0000
  C   C2683     1.0  0.77783  0.44946  0.57336  1.0000
  C   C2684     1.0  0.81662  0.42792  0.66073  1.0000
  H   H4747     1.0  0.76783  0.46628  0.61082  1.0000
  H   H4748     1.0  0.75167  0.45023  0.60784  1.0000
  H   H4749     1.0  0.75527  0.46576  0.64620  1.0000
  H   H4750     1.0  0.79235  0.45439  0.63508  1.0000
  H   H4751     1.0  0.80196  0.43059  0.62611  1.0000
  H   H4752     1.0  0.79859  0.44712  0.59409  1.0000
  H   H4753     1.0  0.78436  0.43391  0.67142  1.0000
  H   H4754     1.0  0.72590  0.45675  0.63250  1.0000
  C   C2685     1.0  0.86007  0.58250  0.87727  1.0000
  H   H4755     1.0  0.85953  0.55816  0.63019  1.0000
  H   H4756     1.0  0.58695  0.55371  0.82055  1.0000
  C   C2686     1.0  0.90831  0.39392  0.78488  1.0000
  H   H4757     1.0  0.76333  0.44432  0.57275  1.0000
  H   H4758     1.0  0.71957  0.55445  0.76011  1.0000
  H   H4759     1.0  0.82799  0.42173  0.64805  1.0000
  H   H4760     1.0  0.81803  0.44419  0.66020  1.0000
  H   H4761     1.0  0.82038  0.41859  0.67557  1.0000
  C   C2687     1.0  0.80661  0.39845  0.73410  1.0000
  H   H4762     1.0  0.74574  0.55020  0.76454  1.0000
  H   H4763     1.0  0.78044  0.40549  0.63196  1.0000
  H   H4764     1.0  0.77531  0.56607  0.55172  1.0000
  H   H4765     1.0  0.73344  0.39156  0.64944  1.0000
  H   H4766     1.0  0.85161  0.51978  0.54395  1.0000
  H   H4767     1.0  0.60019  0.50601  0.91040  1.0000
  H   H4768     1.0  0.74714  0.39843  0.71430  1.0000
  H   H4769     1.0  0.87342  0.54343  0.89937  1.0000
  C   C2688     1.0  0.93535  0.40150  0.80098  1.0000
  C   C2689     1.0  0.59604  0.40290  0.57365  1.0000
  H   H4770     1.0  0.86394  0.49970  0.70380  1.0000
  H   H4771     1.0  0.89449  0.41972  0.75042  1.0000
  H   H4772     1.0  0.88456  0.50848  0.68491  1.0000
  C   C2690     1.0  0.57832  0.39731  0.58734  1.0000
  H   H4773     1.0  0.74168  0.52396  0.74641  1.0000
  C   C2691     1.0  0.90022  0.47222  0.70444  1.0000
  H   H4774     1.0  0.73094  0.43725  0.49884  1.0000
  N   N152      1.0  0.79727  0.52804  0.82043  1.0000
  C   C2692     1.0  0.80072  0.50941  0.83721  1.0000
  C   C2693     1.0  0.77674  0.54187  0.82639  1.0000
  C   C2694     1.0  0.79638  0.52008  0.80139  1.0000
  C   C2695     1.0  0.81477  0.54009  0.81528  1.0000
  C   C2696     1.0  0.81897  0.54884  0.83306  1.0000
  C   C2697     1.0  0.82119  0.49377  0.83321  1.0000
  C   C2698     1.0  0.79076  0.53667  0.78262  1.0000
  C   C2699     1.0  0.76919  0.54291  0.84962  1.0000
  H   H4775     1.0  0.87793  0.46618  0.73319  1.0000
  H   H4776     1.0  0.95096  0.39226  0.71514  1.0000
  C   C2700     1.0  0.82253  0.47556  0.85114  1.0000
  C   C2701     1.0  0.78670  0.52654  0.76600  1.0000
  H   H4777     1.0  0.78762  0.50080  0.84024  1.0000
  H   H4778     1.0  0.80051  0.51399  0.85205  1.0000
  C   C2702     1.0  0.51389  0.45862  0.66012  1.0000
  H   H4779     1.0  0.76396  0.53675  0.82169  1.0000
  H   H4780     1.0  0.78521  0.50918  0.80522  1.0000
  H   H4781     1.0  0.81155  0.51099  0.79554  1.0000
  H   H4782     1.0  0.82934  0.53052  0.80875  1.0000
  H   H4783     1.0  0.81191  0.55362  0.80284  1.0000
  H   H4784     1.0  0.82094  0.53666  0.84676  1.0000
  H   H4785     1.0  0.80606  0.56145  0.83726  1.0000
  H   H4786     1.0  0.82230  0.48718  0.81928  1.0000
  H   H4787     1.0  0.83484  0.50127  0.83141  1.0000
  H   H4788     1.0  0.80386  0.54504  0.77571  1.0000
  H   H4789     1.0  0.77673  0.54814  0.78679  1.0000
  H   H4790     1.0  0.76388  0.52823  0.85778  1.0000
  C   C2703     1.0  0.64052  0.39394  0.49871  1.0000
  H   H4791     1.0  0.61590  0.52949  0.93295  1.0000
  C   C2704     1.0  0.85633  0.54838  0.90148  1.0000
  Fe  Fe302     1.0  0.65958  0.56934  0.87400  1.0000
  C   C2705     1.0  0.59311  0.57011  0.85606  1.0000
  H   H4792     1.0  0.73755  0.53742  0.90636  1.0000
  C   C2706     1.0  0.76549  0.40626  0.48687  1.0000
  H   H4793     1.0  0.82222  0.48101  0.86562  1.0000
  H   H4794     1.0  0.80941  0.46718  0.85323  1.0000
  H   H4795     1.0  0.83720  0.46452  0.84784  1.0000
  H   H4796     1.0  0.77240  0.51977  0.77138  1.0000
  H   H4797     1.0  0.78489  0.53829  0.75192  1.0000
  H   H4798     1.0  0.79970  0.51399  0.76200  1.0000
  H   H4799     1.0  0.58527  0.52958  0.83696  1.0000
  H   H4800     1.0  0.79336  0.41017  0.66144  1.0000
  H   H4801     1.0  0.88799  0.43051  0.69207  1.0000
  H   H4802     1.0  0.74040  0.41616  0.69153  1.0000
  C   C2707     1.0  0.85966  0.42617  0.71246  1.0000
  H   H4803     1.0  0.86310  0.49683  0.57469  1.0000
  H   H4804     1.0  0.49336  0.44895  0.59629  1.0000
  H   H4805     1.0  0.51824  0.58135  0.84627  1.0000
  C   C2708     1.0  0.61710  0.54431  0.93605  1.0000
  H   H4806     1.0  0.85633  0.57660  0.91123  1.0000
  H   H4807     1.0  0.72551  0.43468  0.65317  1.0000
  H   H4808     1.0  0.74603  0.55371  0.93667  1.0000
  H   H4809     1.0  0.83383  0.52722  0.57808  1.0000
  C   C2709     1.0  0.83874  0.55814  0.82664  1.0000
  H   H4810     1.0  0.85283  0.52626  0.47630  1.0000
  H   H4811     1.0  0.94182  0.41134  0.76702  1.0000
  H   H4812     1.0  0.72310  0.52955  0.94376  1.0000
  C   C2710     1.0  0.96166  0.57110  0.60495  1.0000
  H   H4813     1.0  0.90963  0.45639  0.70559  1.0000
  C   C2711     1.0  0.90634  0.38590  0.82220  1.0000
  S   S605      1.0  0.69417  0.56427  0.86461  1.0000
  H   H4814     1.0  0.50835  0.47383  0.66526  1.0000
  H   H4815     1.0  0.53863  0.54598  0.85735  1.0000
  H   H4816     1.0  0.53166  0.58029  0.82013  1.0000
  H   H4817     1.0  0.96134  0.39168  0.77747  1.0000
  H   H4818     1.0  0.55233  0.54645  0.83127  1.0000
  H   H4819     1.0  0.84179  0.56357  0.83987  1.0000
  H   H4820     1.0  0.85224  0.54635  0.82171  1.0000
  H   H4821     1.0  0.86095  0.50743  0.59753  1.0000
  C   C2712     1.0  0.84850  0.55503  0.51516  1.0000
  C   C2713     1.0  0.73584  0.55529  0.75257  1.0000
  H   H4822     1.0  0.77006  0.40408  0.57222  1.0000
  H   H4823     1.0  0.57972  0.57186  0.88873  1.0000
  H   H4824     1.0  0.83897  0.56814  0.50649  1.0000
  H   H4825     1.0  0.86547  0.54766  0.47543  1.0000
  H   H4826     1.0  0.82509  0.57381  0.94450  1.0000
  C   C2714     1.0  0.75099  0.56062  0.85284  1.0000
  H   H4827     1.0  0.73268  0.40644  0.58570  1.0000
  H   H4828     1.0  0.85253  0.54274  0.57853  1.0000
  C   C2715     1.0  0.85055  0.57195  0.89900  1.0000
  H   H4829     1.0  0.73041  0.58027  0.72760  1.0000
  H   H4830     1.0  0.81154  0.55505  0.55942  1.0000
  C   C2716     1.0  0.49530  0.43657  0.60986  1.0000
  C   C2717     1.0  0.63129  0.57594  0.92593  1.0000
  H   H4831     1.0  0.75491  0.57758  0.73497  1.0000
  C   C2718     1.0  0.74286  0.39062  0.63389  1.0000
  H   H4832     1.0  0.73831  0.55931  0.84527  1.0000
  H   H4833     1.0  0.73721  0.42086  0.55992  1.0000
  H   H4834     1.0  0.50865  0.43836  0.61615  1.0000
  H   H4835     1.0  0.55136  0.57659  0.86033  1.0000
  C   C2719     1.0  0.76048  0.38933  0.50522  1.0000
  C   C2720     1.0  0.52636  0.57089  0.83522  1.0000
  H   H4836     1.0  0.51513  0.56192  0.83302  1.0000
  S   S606      1.0  0.66134  0.38952  0.54758  1.0000
  H   H4837     1.0  0.83798  0.57084  0.56212  1.0000
  H   H4838     1.0  0.63774  0.39876  0.51343  1.0000
  H   H4839     1.0  0.81616  0.38336  0.84112  1.0000
  S   S607      1.0  0.85634  0.38306  0.64560  1.0000
  C   C2721     1.0  0.62006  0.58254  0.94418  1.0000
  H   H4840     1.0  0.83752  0.55158  0.47802  1.0000
  H   H4841     1.0  0.83339  0.57593  0.90174  1.0000
  H   H4842     1.0  0.59571  0.58170  0.84173  1.0000
  H   H4843     1.0  0.97161  0.41768  0.79306  1.0000
  H   H4844     1.0  0.77118  0.56811  0.52592  1.0000
  C   C2722     1.0  0.58496  0.39096  0.54687  1.0000
  H   H4845     1.0  0.87726  0.57794  0.87548  1.0000
  C   C2723     1.0  0.92324  0.57945  0.60409  1.0000
  H   H4846     1.0  0.88470  0.58193  0.62598  1.0000
  C   C2724     1.0  0.80016  0.56624  0.96911  1.0000
  H   H4847     1.0  0.77250  0.38595  0.51505  1.0000
  H   H4848     1.0  0.83068  0.38649  0.51877  1.0000
  H   H4849     1.0  0.73497  0.57534  0.78300  1.0000
  H   H4850     1.0  0.83135  0.39183  0.70893  1.0000
  H   H4851     1.0  0.60193  0.43195  0.47697  1.0000
  C   C2725     1.0  0.62629  0.38389  0.49402  1.0000
  H   H4852     1.0  0.55071  0.38389  0.59161  1.0000
  H   H4853     1.0  0.56335  0.58056  0.83399  1.0000
  C   C2726     1.0  0.70008  0.58279  0.95780  1.0000
  H   H4854     1.0  0.48896  0.41385  0.59436  1.0000
  H   H4855     1.0  0.91278  0.58275  0.56905  1.0000
  C   C2727     1.0  0.58413  0.58227  0.87404  1.0000
  H   H4856     1.0  0.61397  0.58253  0.88171  1.0000
  Fe  Fe303     1.0  0.85517  0.76741  0.04098  1.0000
  S   S608      1.0  0.84156  0.74452  0.06681  1.0000
  S   S609      1.0  0.88235  0.75543  0.01865  1.0000
  C   C2728     1.0  0.56456  0.64613  0.26233  1.0000
  H   H4857     1.0  0.53061  0.65558  0.18456  1.0000
  H   H4858     1.0  0.96770  0.72979  0.11498  1.0000
  C   C2729     1.0  0.65643  0.60533  0.11624  1.0000
  H   H4859     1.0  0.67561  0.68973  0.01716  1.0000
  C   C2730     1.0  0.81387  0.62394  0.04475  1.0000
  C   C2731     1.0  0.79272  0.75811  0.04353  1.0000
  H   H4860     1.0  0.92279  0.77493  0.42392  1.0000
  H   H4861     1.0  0.80655  0.70325  0.99592  1.0000
  Fe  Fe304     1.0  0.58493  0.63353  0.02179  1.0000
  S   S610      1.0  0.60507  0.65703  0.00536  1.0000
  S   S611      1.0  0.56072  0.63391  0.05054  1.0000
  C   C2732     1.0  0.86233  0.71035  0.01059  1.0000
  H   H4862     1.0  0.71264  0.69849  0.99160  1.0000
  C   C2733     1.0  0.59702  0.61627  0.45924  1.0000
  N   N153      1.0  0.60655  0.63504  0.45796  1.0000
  S   S612      1.0  0.57182  0.63328  0.99410  1.0000
  S   S613      1.0  0.60970  0.60591  0.01699  1.0000
  Fe  Fe305     1.0  0.55515  0.69169  0.42213  1.0000
  S   S614      1.0  0.58184  0.67898  0.39917  1.0000
  S   S615      1.0  0.55521  0.71306  0.44482  1.0000
  Fe  Fe306     1.0  0.52403  0.67498  0.40468  1.0000
  S   S616      1.0  0.54831  0.66185  0.38038  1.0000
  H   H4863     1.0  0.50610  0.71083  0.33232  1.0000
  Fe  Fe307     1.0  0.56722  0.65047  0.40535  1.0000
  S   S617      1.0  0.58728  0.61852  0.40685  1.0000
  Fe  Fe308     1.0  0.56067  0.69118  0.37601  1.0000
  S   S618      1.0  0.57427  0.70490  0.34392  1.0000
  S   S619      1.0  0.54206  0.66184  0.43049  1.0000
  S   S620      1.0  0.53481  0.70569  0.39817  1.0000
  S   S621      1.0  0.59157  0.61545  0.13568  1.0000
  Fe  Fe309     1.0  0.91079  0.65275  0.11484  1.0000
  S   S622      1.0  0.90034  0.63884  0.09241  1.0000
  S   S623      1.0  0.91262  0.68644  0.11012  1.0000
  Fe  Fe310     1.0  0.92548  0.61139  0.14070  1.0000
  C   C2734     1.0  0.54521  0.59116  0.02981  1.0000
  C   C2735     1.0  0.50170  0.69081  0.25424  1.0000
  Fe  Fe311     1.0  0.92968  0.61574  0.09419  1.0000
  C   C2736     1.0  0.98185  0.71527  0.00571  1.0000
  Fe  Fe312     1.0  0.88639  0.61804  0.12027  1.0000
  S   S624      1.0  0.94143  0.63154  0.11401  1.0000
  S   S625      1.0  0.89509  0.63385  0.14302  1.0000
  H   H4864     1.0  0.50046  0.68666  0.34668  1.0000
  H   H4865     1.0  0.81057  0.61633  0.11767  1.0000
  H   H4866     1.0  0.94980  0.66435  0.01836  1.0000
  H   H4867     1.0  0.52232  0.59654  0.32272  1.0000
  H   H4868     1.0  0.57927  0.65683  0.45057  1.0000
  C   C2737     1.0  0.82616  0.59800  0.02270  1.0000
  H   H4869     1.0  0.49701  0.70246  0.24094  1.0000
  H   H4870     1.0  0.52574  0.59295  0.34906  1.0000
  C   C2738     1.0  0.96915  0.61842  0.05182  1.0000
  H   H4871     1.0  0.78116  0.63736  0.07460  1.0000
  C   C2739     1.0  0.59675  0.62522  0.09376  1.0000
  C   C2740     1.0  0.97804  0.67500  0.08715  1.0000
  H   H4872     1.0  0.84805  0.62678  0.98213  1.0000
  C   C2741     1.0  0.94148  0.76236  0.24378  1.0000
  H   H4873     1.0  0.53574  0.59889  0.06003  1.0000
  C   C2742     1.0  0.97169  0.59129  0.19210  1.0000
  H   H4874     1.0  0.79648  0.69468  0.04371  1.0000
  H   H4875     1.0  0.69525  0.64875  0.99303  1.0000
  H   H4876     1.0  0.49657  0.73668  0.39021  1.0000
  H   H4877     1.0  0.66573  0.61152  0.10139  1.0000
  C   C2743     1.0  0.95857  0.62618  0.17656  1.0000
  H   H4878     1.0  0.78555  0.72841  0.04465  1.0000
  H   H4879     1.0  0.81514  0.61016  0.05728  1.0000
  H   H4880     1.0  0.86087  0.74005  0.47040  1.0000
  H   H4881     1.0  0.94895  0.63675  0.16650  1.0000
  H   H4882     1.0  0.80269  0.72878  0.06167  1.0000
  C   C2744     1.0  0.55830  0.72111  0.32730  1.0000
  C   C2745     1.0  0.56450  0.72131  0.30615  1.0000
  C   C2746     1.0  0.55344  0.73537  0.29212  1.0000
  C   C2747     1.0  0.53663  0.74999  0.29905  1.0000
  C   C2748     1.0  0.53010  0.74966  0.32025  1.0000
  C   C2749     1.0  0.54072  0.73490  0.33443  1.0000
  H   H4883     1.0  0.57813  0.71076  0.30055  1.0000
  H   H4884     1.0  0.51568  0.63975  0.17710  1.0000
  H   H4885     1.0  0.53587  0.73473  0.35077  1.0000
  C   C2750     1.0  0.58043  0.60044  0.39505  1.0000
  H   H4886     1.0  0.49781  0.67386  0.20326  1.0000
  H   H4887     1.0  0.53160  0.69743  0.30401  1.0000
  H   H4888     1.0  0.72274  0.60156  0.02901  1.0000
  C   C2751     1.0  0.56059  0.60328  0.39048  1.0000
  C   C2752     1.0  0.79053  0.63097  0.04324  1.0000
  H   H4889     1.0  0.80960  0.63164  0.00148  1.0000
  H   H4890     1.0  0.54924  0.61656  0.39427  1.0000
  C   C2753     1.0  0.59435  0.74641  0.40791  1.0000
  Fe  Fe313     1.0  0.57314  0.58520  0.20900  1.0000
  H   H4891     1.0  0.76969  0.70103  0.99900  1.0000
  H   H4892     1.0  0.83395  0.59892  0.98947  1.0000
  Fe  Fe314     1.0  0.59352  0.65485  0.97713  1.0000
  H   H4893     1.0  0.96677  0.63804  0.07380  1.0000
  C   C2754     1.0  0.81824  0.72839  0.02946  1.0000
  H   H4894     1.0  0.51368  0.63137  0.40321  1.0000
  C   C2755     1.0  0.96670  0.69945  0.01234  1.0000
  C   C2756     1.0  0.67477  0.61782  0.01632  1.0000
  C   C2757     1.0  0.66373  0.62330  0.03498  1.0000
  C   C2758     1.0  0.67416  0.62123  0.05149  1.0000
  C   C2759     1.0  0.69546  0.61322  0.04942  1.0000
  C   C2760     1.0  0.70626  0.60740  0.03086  1.0000
  C   C2761     1.0  0.69595  0.60971  0.01438  1.0000
  H   H4895     1.0  0.64738  0.62981  0.03646  1.0000
  C   C2762     1.0  0.50278  0.64136  0.21918  1.0000
  H   H4896     1.0  0.70459  0.60578  0.99988  1.0000
  H   H4897     1.0  0.97911  0.63539  0.12303  1.0000
  H   H4898     1.0  0.52571  0.59094  0.09391  1.0000
  H   H4899     1.0  0.97017  0.77820  0.98498  1.0000
  C   C2763     1.0  0.65341  0.62085  0.13064  1.0000
  C   C2764     1.0  0.56946  0.62939  0.07405  1.0000
  C   C2765     1.0  0.55558  0.62481  0.09239  1.0000
  C   C2766     1.0  0.56238  0.61989  0.11139  1.0000
  H   H4900     1.0  0.77733  0.73883  0.44698  1.0000
  C   C2767     1.0  0.66548  0.68284  0.99055  1.0000
  C   C2768     1.0  0.59011  0.62946  0.07471  1.0000
  H   H4901     1.0  0.53956  0.62492  0.09189  1.0000
  H   H4902     1.0  0.55162  0.61633  0.12551  1.0000
  H   H4903     1.0  0.98821  0.70027  0.10780  1.0000
  H   H4904     1.0  0.60086  0.63302  0.06059  1.0000
  H   H4905     1.0  0.91324  0.75481  0.11227  1.0000
  H   H4906     1.0  0.51731  0.61274  0.28817  1.0000
  H   H4907     1.0  0.62664  0.59392  0.45762  1.0000
  C   C2769     1.0  0.86115  0.72862  0.07921  1.0000
  C   C2770     1.0  0.88029  0.73474  0.07682  1.0000
  C   C2771     1.0  0.89592  0.72187  0.08674  1.0000
  C   C2772     1.0  0.89271  0.70254  0.09836  1.0000
  C   C2773     1.0  0.87367  0.69630  0.10055  1.0000
  C   C2774     1.0  0.85775  0.70953  0.09127  1.0000
  H   H4908     1.0  0.88292  0.74955  0.06764  1.0000
  H   H4909     1.0  0.91051  0.72687  0.08528  1.0000
  H   H4910     1.0  0.87109  0.68145  0.10971  1.0000
  H   H4911     1.0  0.84287  0.70488  0.09330  1.0000
  H   H4912     1.0  0.83939  0.66758  0.08513  1.0000
  H   H4913     1.0  0.93203  0.65038  0.05420  1.0000
  N   N154      1.0  0.94438  0.70771  0.02066  1.0000
  C   C2775     1.0  0.94210  0.72444  0.03317  1.0000
  H   H4914     1.0  0.98757  0.68352  0.15656  1.0000
  C   C2776     1.0  0.93465  0.69024  0.03470  1.0000
  H   H4915     1.0  0.85759  0.58897  0.04688  1.0000
  H   H4916     1.0  0.93828  0.74807  0.99478  1.0000
  Fe  Fe315     1.0  0.59818  0.60755  0.98783  1.0000
  C   C2777     1.0  0.93391  0.67162  0.02481  1.0000
  H   H4917     1.0  0.51060  0.59121  0.28052  1.0000
  S   S626      1.0  0.94972  0.60447  0.06609  1.0000
  H   H4918     1.0  0.60680  0.64140  0.42509  1.0000
  C   C2778     1.0  0.92393  0.65517  0.04080  1.0000
  H   H4919     1.0  0.92540  0.73110  0.03763  1.0000
  H   H4920     1.0  0.68427  0.58621  0.12384  1.0000
  H   H4921     1.0  0.95447  0.69817  0.09854  1.0000
  C   C2779     1.0  0.77842  0.69308  0.01158  1.0000
  H   H4922     1.0  0.91851  0.69626  0.04198  1.0000
  H   H4923     1.0  0.94329  0.68343  0.04762  1.0000
  C   C2780     1.0  0.52271  0.60468  0.33526  1.0000
  H   H4924     1.0  0.96191  0.77960  0.04269  1.0000
  H   H4925     1.0  0.78916  0.72095  0.01105  1.0000
  C   C2781     1.0  0.98288  0.62019  0.20066  1.0000
  H   H4926     1.0  0.94082  0.70884  0.06532  1.0000
  S   S627      1.0  0.50135  0.58648  0.20197  1.0000
  C   C2782     1.0  0.51519  0.65495  0.18141  1.0000
  H   H4927     1.0  0.76757  0.69306  0.02651  1.0000
  C   C2783     1.0  0.59492  0.58285  0.39032  1.0000
  H   H4928     1.0  0.70377  0.66808  0.00136  1.0000
  H   H4929     1.0  0.91647  0.74940  0.45561  1.0000
  C   C2784     1.0  0.93210  0.71596  0.00342  1.0000
  H   H4930     1.0  0.61261  0.62574  0.09430  1.0000
  H   H4931     1.0  0.49535  0.73501  0.35491  1.0000
  H   H4932     1.0  0.96600  0.74396  0.05079  1.0000
  C   C2785     1.0  0.95132  0.71757  0.05324  1.0000
  H   H4933     1.0  0.92494  0.64127  0.03396  1.0000
  C   C2786     1.0  0.50028  0.69068  0.31410  1.0000
  H   H4934     1.0  0.65428  0.65043  0.41002  1.0000
  H   H4935     1.0  0.95866  0.73104  0.07667  1.0000
  C   C2787     1.0  0.95379  0.73621  0.06145  1.0000
  H   H4936     1.0  0.83093  0.73560  0.03152  1.0000
  S   S628      1.0  0.94502  0.59426  0.16528  1.0000
  C   C2788     1.0  0.97949  0.61338  0.03279  1.0000
  C   C2789     1.0  0.79607  0.70443  0.01086  1.0000
  H   H4937     1.0  0.50493  0.60124  0.39299  1.0000
  H   H4938     1.0  0.63222  0.66133  0.39727  1.0000
  H   H4939     1.0  0.73307  0.62918  0.99604  1.0000
  H   H4940     1.0  0.90790  0.74731  0.97948  1.0000
  H   H4941     1.0  0.86477  0.67336  0.07278  1.0000
  H   H4942     1.0  0.95534  0.67272  0.11442  1.0000
  C   C2790     1.0  0.53122  0.77636  0.36372  1.0000
  H   H4943     1.0  0.89079  0.60236  0.03382  1.0000
  C   C2791     1.0  0.98169  0.69992  0.14993  1.0000
  H   H4944     1.0  0.52639  0.62900  0.25234  1.0000
  H   H4945     1.0  0.90468  0.75791  0.40279  1.0000
  H   H4946     1.0  0.64538  0.67805  0.40547  1.0000
  H   H4947     1.0  0.81611  0.65067  0.01241  1.0000
  C   C2792     1.0  0.83454  0.76488  0.47188  1.0000
  H   H4948     1.0  0.92997  0.76136  0.12662  1.0000
  C   C2793     1.0  0.84213  0.70228  0.01141  1.0000
  H   H4949     1.0  0.73936  0.65231  0.00113  1.0000
  H   H4950     1.0  0.82056  0.69669  0.06313  1.0000
  C   C2794     1.0  0.48939  0.72275  0.36695  1.0000
  C   C2795     1.0  0.64032  0.66276  0.40950  1.0000
  H   H4951     1.0  0.98766  0.68597  0.07706  1.0000
  H   H4952     1.0  0.56421  0.75457  0.38469  1.0000
  H   H4953     1.0  0.94907  0.73776  0.02404  1.0000
  C   C2796     1.0  0.49833  0.65817  0.20019  1.0000
  H   H4954     1.0  0.96668  0.70745  0.05076  1.0000
  H   H4955     1.0  0.50369  0.62595  0.21498  1.0000
  H   H4956     1.0  0.56391  0.76858  0.17283  1.0000
  H   H4957     1.0  0.57799  0.65430  0.25681  1.0000
  C   C2797     1.0  0.87996  0.60726  0.04752  1.0000
  H   H4958     1.0  0.98390  0.61296  0.34285  1.0000
  H   H4959     1.0  0.59596  0.66724  0.46120  1.0000
  H   H4960     1.0  0.71556  0.73531  0.98344  1.0000
  H   H4961     1.0  0.53009  0.67230  0.32006  1.0000
  H   H4962     1.0  0.89268  0.71082  0.99151  1.0000
  H   H4963     1.0  0.78462  0.67694  0.00912  1.0000
  C   C2798     1.0  0.93855  0.73475  0.98744  1.0000
  N   N155      1.0  0.96620  0.70074  0.13637  1.0000
  C   C2799     1.0  0.94991  0.68842  0.14865  1.0000
  Fe  Fe316     1.0  0.86485  0.77473  0.99422  1.0000
  C   C2800     1.0  0.83940  0.58964  0.00356  1.0000
  C   C2801     1.0  0.95742  0.72327  0.12907  1.0000
  C   C2802     1.0  0.93495  0.72859  0.12455  1.0000
  C   C2803     1.0  0.93945  0.69429  0.16990  1.0000
  C   C2804     1.0  0.87922  0.70310  0.99325  1.0000
  H   H4964     1.0  0.52268  0.60713  0.24325  1.0000
  C   C2805     1.0  0.92926  0.75156  0.11556  1.0000
  C   C2806     1.0  0.91965  0.68522  0.17832  1.0000
  H   H4965     1.0  0.95677  0.67163  0.15150  1.0000
  H   H4966     1.0  0.93751  0.68945  0.13973  1.0000
  C   C2807     1.0  0.79915  0.73460  0.04593  1.0000
  H   H4967     1.0  0.89718  0.78236  0.08254  1.0000
  N   N156      1.0  0.82843  0.61918  0.02521  1.0000
  N   N157      1.0  0.68628  0.67931  0.97635  1.0000
  H   H4968     1.0  0.93993  0.75576  0.10093  1.0000
  H   H4969     1.0  0.92356  0.72526  0.13881  1.0000
  H   H4970     1.0  0.93272  0.71973  0.11352  1.0000
  H   H4971     1.0  0.53500  0.63018  0.31530  1.0000
  S   S629      1.0  0.55266  0.60835  0.18985  1.0000
  H   H4972     1.0  0.70128  0.75945  0.42573  1.0000
  H   H4973     1.0  0.64575  0.63623  0.12341  1.0000
  H   H4974     1.0  0.58420  0.62046  0.45015  1.0000
  H   H4975     1.0  0.82936  0.58629  0.03655  1.0000
  H   H4976     1.0  0.74348  0.77401  0.45818  1.0000
  H   H4977     1.0  0.93898  0.74742  0.06313  1.0000
  H   H4978     1.0  0.55562  0.61988  0.28386  1.0000
  C   C2808     1.0  0.90944  0.74929  0.44219  1.0000
  H   H4979     1.0  0.78014  0.77851  0.46107  1.0000
  H   H4980     1.0  0.51181  0.66730  0.16813  1.0000
  H   H4981     1.0  0.92312  0.66807  0.17989  1.0000
  H   H4982     1.0  0.91271  0.68924  0.19372  1.0000
  C   C2809     1.0  0.59366  0.71433  0.45422  1.0000
  C   C2810     1.0  0.57253  0.72270  0.45582  1.0000
  H   H4983     1.0  0.97362  0.68688  0.02391  1.0000
  H   H4984     1.0  0.98152  0.60445  0.10001  1.0000
  H   H4985     1.0  0.60160  0.63415  0.36222  1.0000
  H   H4986     1.0  0.54838  0.74595  0.46813  1.0000
  H   H4987     1.0  0.93062  0.76022  0.23440  1.0000
  S   S630      1.0  0.66339  0.62280  0.99435  1.0000
  H   H4988     1.0  0.65666  0.69859  0.98582  1.0000
  H   H4989     1.0  0.51813  0.66801  0.23591  1.0000
  H   H4990     1.0  0.93555  0.71133  0.16901  1.0000
  C   C2811     1.0  0.82236  0.63558  0.00727  1.0000
  H   H4991     1.0  0.81473  0.73626  0.01408  1.0000
  H   H4992     1.0  0.86106  0.77100  0.35863  1.0000
  C   C2812     1.0  0.85226  0.66526  0.07197  1.0000
  H   H4993     1.0  0.78558  0.62221  0.03359  1.0000
  H   H4994     1.0  0.90736  0.66126  0.04624  1.0000
  C   C2813     1.0  0.96465  0.68441  0.10522  1.0000
  H   H4995     1.0  0.50234  0.70944  0.36874  1.0000
  H   H4996     1.0  0.81835  0.63630  0.05060  1.0000
  H   H4997     1.0  0.90813  0.69155  0.16792  1.0000
  H   H4998     1.0  0.85926  0.72753  0.00759  1.0000
  H   H4999     1.0  0.60531  0.78058  0.42500  1.0000
  C   C2814     1.0  0.49340  0.62554  0.25596  1.0000
  C   C2815     1.0  0.98345  0.59887  0.20293  1.0000
  C   C2816     1.0  0.77677  0.62858  0.06447  1.0000
  H   H5000     1.0  0.59591  0.59470  0.29726  1.0000
  H   H5001     1.0  0.55847  0.73548  0.27579  1.0000
  H   H5002     1.0  0.53978  0.59105  0.37808  1.0000
  H   H5003     1.0  0.60011  0.70203  0.44556  1.0000
  H   H5004     1.0  0.51614  0.69404  0.25746  1.0000
  H   H5005     1.0  0.66575  0.62590  0.06576  1.0000
  C   C2817     1.0  0.61206  0.59742  0.45136  1.0000
  H   H5006     1.0  0.56067  0.59583  0.31182  1.0000
  H   H5007     1.0  0.55070  0.65709  0.26805  1.0000
  C   C2818     1.0  0.58292  0.62031  0.11210  1.0000
  C   C2819     1.0  0.51687  0.61676  0.25551  1.0000
  H   H5008     1.0  0.93630  0.75539  0.26005  1.0000
  H   H5009     1.0  0.76030  0.63452  0.06296  1.0000
  H   H5010     1.0  0.84410  0.70545  0.05255  1.0000
  H   H5011     1.0  0.62278  0.71509  0.46264  1.0000
  H   H5012     1.0  0.82070  0.76340  0.98288  1.0000
  H   H5013     1.0  0.77844  0.76206  0.05478  1.0000
  Fe  Fe317     1.0  0.62873  0.62912  0.99785  1.0000
  C   C2820     1.0  0.49554  0.69958  0.33430  1.0000
  H   H5014     1.0  0.60440  0.58597  0.07796  1.0000
  H   H5015     1.0  0.81380  0.67853  0.02791  1.0000
  H   H5016     1.0  0.86167  0.61546  0.01412  1.0000
  H   H5017     1.0  0.56144  0.77511  0.39810  1.0000
  H   H5018     1.0  0.86863  0.70497  0.02507  1.0000
  H   H5019     1.0  0.54389  0.75951  0.16473  1.0000
  H   H5020     1.0  0.77013  0.59945  0.99966  1.0000
  C   C2821     1.0  0.83349  0.69609  0.04974  1.0000
  S   S631      1.0  0.91532  0.59373  0.12061  1.0000
  C   C2822     1.0  0.58946  0.65307  0.46240  1.0000
  H   H5021     1.0  0.59305  0.76776  0.34593  1.0000
  H   H5022     1.0  0.77821  0.61200  0.07179  1.0000
  H   H5023     1.0  0.85606  0.58985  0.00236  1.0000
  C   C2823     1.0  0.70479  0.77271  0.43094  1.0000
  H   H5024     1.0  0.96743  0.69165  0.99915  1.0000
  C   C2824     1.0  0.59327  0.76121  0.38743  1.0000
  S   S632      1.0  0.76682  0.58617  0.04575  1.0000
  C   C2825     1.0  0.80790  0.69503  0.02908  1.0000
  H   H5025     1.0  0.58777  0.65877  0.35098  1.0000
  C   C2826     1.0  0.83967  0.64068  0.98860  1.0000
  C   C2827     1.0  0.55523  0.58873  0.38133  1.0000
  S   S633      1.0  0.85258  0.61526  0.12152  1.0000
  C   C2828     1.0  0.52066  0.60312  0.27599  1.0000
  C   C2829     1.0  0.49447  0.61593  0.39173  1.0000
  H   H5026     1.0  0.85140  0.63568  0.02849  1.0000
  H   H5027     1.0  0.88091  0.62341  0.04818  1.0000
  H   H5028     1.0  0.97419  0.70769  0.16331  1.0000
  H   H5029     1.0  0.49489  0.73770  0.30864  1.0000
  H   H5030     1.0  0.64332  0.61582  0.14543  1.0000
  H   H5031     1.0  0.49915  0.77357  0.36609  1.0000
  H   H5032     1.0  0.63726  0.70251  0.02069  1.0000
  H   H5033     1.0  0.84610  0.68567  0.00985  1.0000
  H   H5034     1.0  0.51872  0.64166  0.22101  1.0000
  H   H5035     1.0  0.77416  0.76480  0.43197  1.0000
  H   H5036     1.0  0.66857  0.62244  0.13366  1.0000
  H   H5037     1.0  0.97905  0.59512  0.12659  1.0000
  H   H5038     1.0  0.61278  0.67439  0.42898  1.0000
  N   N158      1.0  0.82545  0.70545  0.02993  1.0000
  H   H5039     1.0  0.83406  0.66315  0.05045  1.0000
  C   C2830     1.0  0.84472  0.67319  0.05144  1.0000
  H   H5040     1.0  0.56144  0.64064  0.24909  1.0000
  H   H5041     1.0  0.89415  0.77558  0.36996  1.0000
  H   H5042     1.0  0.80504  0.76506  0.04667  1.0000
  H   H5043     1.0  0.92441  0.67625  0.01250  1.0000
  H   H5044     1.0  0.85862  0.64841  0.07347  1.0000
  H   H5045     1.0  0.58785  0.73245  0.40817  1.0000
  S   S634      1.0  0.70870  0.60983  0.06998  1.0000
  C   C2831     1.0  0.66556  0.68015  0.01396  1.0000
  H   H5046     1.0  0.89405  0.74459  0.44802  1.0000
  H   H5047     1.0  0.63337  0.67604  0.02392  1.0000
  H   H5048     1.0  0.78749  0.64758  0.03622  1.0000
  C   C2832     1.0  0.73833  0.64407  0.98888  1.0000
  H   H5049     1.0  0.58260  0.61676  0.27231  1.0000
  H   H5050     1.0  0.79410  0.59587  0.10119  1.0000
  C   C2833     1.0  0.85778  0.60544  0.04689  1.0000
  H   H5051     1.0  0.89723  0.78164  0.43888  1.0000
  H   H5052     1.0  0.80982  0.59779  0.02199  1.0000
  H   H5053     1.0  0.61556  0.65324  0.34542  1.0000
  H   H5054     1.0  0.64432  0.68372  0.04260  1.0000
  H   H5055     1.0  0.61626  0.60060  0.43433  1.0000
  H   H5056     1.0  0.83640  0.71044  0.99701  1.0000
  H   H5057     1.0  0.82333  0.67137  0.97676  1.0000
  C   C2834     1.0  0.64376  0.68602  0.02594  1.0000
  H   H5058     1.0  0.58554  0.75417  0.42090  1.0000
  C   C2835     1.0  0.84165  0.60004  0.10943  1.0000
  C   C2836     1.0  0.95921  0.60484  0.17882  1.0000
  H   H5059     1.0  0.61072  0.74138  0.41011  1.0000
  H   H5060     1.0  0.52657  0.67677  0.29363  1.0000
  Fe  Fe318     1.0  0.57434  0.59647  0.16299  1.0000
  H   H5061     1.0  0.51062  0.65815  0.26306  1.0000
  S   S635      1.0  0.84278  0.77804  0.44687  1.0000
  H   H5062     1.0  0.85118  0.64769  0.99318  1.0000
  H   H5063     1.0  0.96971  0.65026  0.18559  1.0000
  C   C2837     1.0  0.56933  0.62759  0.27923  1.0000
  H   H5064     1.0  0.84795  0.60999  0.06119  1.0000
  H   H5065     1.0  0.95009  0.68794  0.18117  1.0000
  H   H5066     1.0  0.88440  0.68607  0.99671  1.0000
  C   C2838     1.0  0.97036  0.63377  0.18739  1.0000
  H   H5067     1.0  0.95736  0.73283  0.14068  1.0000
  H   H5068     1.0  0.60783  0.59156  0.33961  1.0000
  H   H5069     1.0  0.91540  0.72020  0.00999  1.0000
  H   H5070     1.0  0.68742  0.71502  0.99435  1.0000
  H   H5071     1.0  0.65558  0.67188  0.98936  1.0000
  H   H5072     1.0  0.91962  0.73771  0.43324  1.0000
  H   H5073     1.0  0.71080  0.76693  0.44558  1.0000
  C   C2839     1.0  0.78156  0.75439  0.44456  1.0000
  H   H5074     1.0  0.92638  0.77946  0.37923  1.0000
  H   H5075     1.0  0.67126  0.66372  0.02023  1.0000
  H   H5076     1.0  0.85849  0.67125  0.03912  1.0000
  N   N159      1.0  0.57874  0.61746  0.31581  1.0000
  C   C2840     1.0  0.57461  0.63443  0.29777  1.0000
  C   C2841     1.0  0.58100  0.62723  0.33319  1.0000
  C   C2842     1.0  0.59825  0.60277  0.30907  1.0000
  C   C2843     1.0  0.56117  0.60543  0.32318  1.0000
  C   C2844     1.0  0.53928  0.61842  0.32864  1.0000
  C   C2845     1.0  0.61740  0.64053  0.43599  1.0000
  C   C2846     1.0  0.85016  0.61961  0.02769  1.0000
  C   C2847     1.0  0.60060  0.63723  0.32964  1.0000
  C   C2848     1.0  0.60135  0.64635  0.34825  1.0000
  C   C2849     1.0  0.70108  0.70940  0.98320  1.0000
  C   C2850     1.0  0.70160  0.66328  0.98738  1.0000
  H   H5077     1.0  0.56819  0.59103  0.06856  1.0000
  H   H5078     1.0  0.58840  0.64203  0.29155  1.0000
  H   H5079     1.0  0.56198  0.64702  0.30274  1.0000
  H   H5080     1.0  0.56746  0.63966  0.33645  1.0000
  H   H5081     1.0  0.58070  0.61580  0.34781  1.0000
  H   H5082     1.0  0.61098  0.61145  0.30119  1.0000
  S   S636      1.0  0.49057  0.67313  0.40520  1.0000
  H   H5083     1.0  0.53707  0.59516  0.27455  1.0000
  H   H5084     1.0  0.56392  0.59403  0.33726  1.0000
  C   C2851     1.0  0.62581  0.66118  0.43034  1.0000
  H   H5085     1.0  0.53860  0.62643  0.34160  1.0000
  C   C2852     1.0  0.52359  0.68388  0.30760  1.0000
  H   H5086     1.0  0.79864  0.75287  0.43979  1.0000
  H   H5087     1.0  0.63082  0.62817  0.43220  1.0000
  H   H5088     1.0  0.54812  0.67089  0.47373  1.0000
  H   H5089     1.0  0.61501  0.62571  0.32710  1.0000
  H   H5090     1.0  0.60072  0.64999  0.31615  1.0000
  H   H5091     1.0  0.78959  0.76495  0.02777  1.0000
  C   C2853     1.0  0.82009  0.60416  0.10987  1.0000
  C   C2854     1.0  0.57045  0.76876  0.38425  1.0000
  H   H5092     1.0  0.56951  0.75897  0.34840  1.0000
  Fe  Fe319     1.0  0.73577  0.58386  0.06575  1.0000
  H   H5093     1.0  0.52741  0.62254  0.02744  1.0000
  H   H5094     1.0  0.64101  0.60481  0.11330  1.0000
  H   H5095     1.0  0.50723  0.61430  0.33919  1.0000
  H   H5096     1.0  0.79218  0.62335  0.97626  1.0000
  C   C2855     1.0  0.97783  0.69033  0.11846  1.0000
  H   H5097     1.0  0.51377  0.60338  0.02377  1.0000
  H   H5098     1.0  0.65589  0.58474  0.08860  1.0000
  C   C2856     1.0  0.97470  0.63410  0.05915  1.0000
  H   H5099     1.0  0.63437  0.66281  0.44209  1.0000
  C   C2857     1.0  0.53820  0.58459  0.05332  1.0000
  C   C2858     1.0  0.49944  0.63297  0.39753  1.0000
  S   S637      1.0  0.52390  0.76801  0.28074  1.0000
  C   C2859     1.0  0.50551  0.66892  0.24945  1.0000
  C   C2860     1.0  0.78214  0.59386  0.98767  1.0000
  H   H5100     1.0  0.93325  0.70387  0.99412  1.0000
  H   H5101     1.0  0.63896  0.58410  0.31253  1.0000
  S   S638      1.0  0.57586  0.59471  0.23800  1.0000
  C   C2861     1.0  0.77482  0.76344  0.46435  1.0000
  H   H5102     1.0  0.98811  0.67574  0.12403  1.0000
  H   H5103     1.0  0.53503  0.76106  0.37348  1.0000
  H   H5104     1.0  0.63795  0.62513  0.46427  1.0000
  C   C2862     1.0  0.62216  0.63133  0.47212  1.0000
  H   H5105     1.0  0.49126  0.76975  0.25551  1.0000
  C   C2863     1.0  0.89671  0.77140  0.41038  1.0000
  H   H5106     1.0  0.67371  0.78168  0.44623  1.0000
  C   C2864     1.0  0.57613  0.77325  0.34667  1.0000
  H   H5107     1.0  0.88497  0.59706  0.06149  1.0000
  H   H5108     1.0  0.57250  0.76092  0.31085  1.0000
  H   H5109     1.0  0.49298  0.67684  0.31624  1.0000
  H   H5110     1.0  0.49191  0.77069  0.21831  1.0000
  H   H5111     1.0  0.51692  0.76079  0.32564  1.0000
  C   C2865     1.0  0.56466  0.73920  0.46680  1.0000
  C   C2866     1.0  0.60654  0.72195  0.46381  1.0000
  H   H5112     1.0  0.86269  0.76752  0.39524  1.0000
  C   C2867     1.0  0.52903  0.60840  0.02075  1.0000
  H   H5113     1.0  0.53399  0.61233  0.00383  1.0000
  H   H5114     1.0  0.97528  0.60131  0.02700  1.0000
  C   C2868     1.0  0.60624  0.58538  0.32619  1.0000
  H   H5115     1.0  0.60244  0.75269  0.37515  1.0000
  H   H5116     1.0  0.55999  0.59708  0.02655  1.0000
  C   C2869     1.0  0.90713  0.77086  0.42888  1.0000
  S   S639      1.0  0.92827  0.77957  0.02245  1.0000
  H   H5117     1.0  0.75407  0.64062  0.97975  1.0000
  H   H5118     1.0  0.71705  0.77945  0.41933  1.0000
  H   H5119     1.0  0.87351  0.70725  0.97839  1.0000
  H   H5120     1.0  0.83621  0.78052  0.37303  1.0000
  H   H5121     1.0  0.49456  0.70238  0.30135  1.0000
  H   H5122     1.0  0.98333  0.76298  0.07385  1.0000
  H   H5123     1.0  0.96770  0.67171  0.07792  1.0000
  C   C2870     1.0  0.85368  0.58397  0.09963  1.0000
  C   C2871     1.0  0.81068  0.59260  0.10048  1.0000
  H   H5124     1.0  0.88093  0.76828  0.41754  1.0000
  H   H5125     1.0  0.53625  0.78024  0.20069  1.0000
  C   C2872     1.0  0.75095  0.76575  0.47162  1.0000
  H   H5126     1.0  0.97457  0.73108  0.99950  1.0000
  H   H5127     1.0  0.95727  0.75404  0.23842  1.0000
  H   H5128     1.0  0.95422  0.73026  0.97855  1.0000
  H   H5129     1.0  0.59815  0.76686  0.30762  1.0000
  H   H5130     1.0  0.79336  0.74729  0.97596  1.0000
  H   H5131     1.0  0.53424  0.77422  0.34749  1.0000
  H   H5132     1.0  0.98810  0.71652  0.01927  1.0000
  C   C2873     1.0  0.58146  0.77358  0.30824  1.0000
  C   C2874     1.0  0.55195  0.77281  0.16282  1.0000
  H   H5133     1.0  0.55986  0.77601  0.14656  1.0000
  H   H5134     1.0  0.60088  0.77428  0.38757  1.0000
  H   H5135     1.0  0.51548  0.77591  0.19096  1.0000
  C   C2875     1.0  0.66804  0.58378  0.12525  1.0000
  C   C2876     1.0  0.72356  0.65740  0.97485  1.0000
  H   H5136     1.0  0.98826  0.66040  0.09249  1.0000
  H   H5137     1.0  0.48936  0.69240  0.26799  1.0000
  H   H5138     1.0  0.55084  0.58298  0.10120  1.0000
  S   S640      1.0  0.81344  0.63545  0.73801  1.0000
  H   H5139     1.0  0.98403  0.76191  0.54851  1.0000
  Fe  Fe320     1.0  0.81328  0.62060  0.77110  1.0000
  S   S641      1.0  0.79223  0.63409  0.79789  1.0000
  Fe  Fe321     1.0  0.69017  0.59899  0.85773  1.0000
  H   H5140     1.0  0.60307  0.67833  0.81775  1.0000
  Fe  Fe322     1.0  0.79570  0.69347  0.93076  1.0000
  S   S642      1.0  0.82445  0.67429  0.91594  1.0000
  S   S643      1.0  0.79396  0.71734  0.95111  1.0000
  Fe  Fe323     1.0  0.76715  0.66961  0.91815  1.0000
  S   S644      1.0  0.79382  0.64840  0.90337  1.0000
  S   S645      1.0  0.73400  0.66567  0.91969  1.0000
  Fe  Fe324     1.0  0.80845  0.64730  0.93033  1.0000
  S   S646      1.0  0.82626  0.61645  0.94257  1.0000
  Fe  Fe325     1.0  0.80745  0.67688  0.88979  1.0000
  S   S647      1.0  0.82422  0.67822  0.85668  1.0000
  S   S648      1.0  0.78057  0.66594  0.94679  1.0000
  S   S649      1.0  0.77982  0.69874  0.90316  1.0000
  C   C2877     1.0  0.79574  0.60762  0.87212  1.0000
  Fe  Fe326     1.0  0.60504  0.74495  0.85122  1.0000
  S   S650      1.0  0.61646  0.75231  0.81730  1.0000
  S   S651      1.0  0.62633  0.72124  0.86991  1.0000
  Fe  Fe327     1.0  0.58488  0.74878  0.81383  1.0000
  S   S652      1.0  0.58415  0.72753  0.79189  1.0000
  S   S653      1.0  0.57425  0.73959  0.84767  1.0000
  H   H5141     1.0  0.63930  0.68131  0.81834  1.0000
  C   C2878     1.0  0.81623  0.77280  0.48414  1.0000
  C   C2879     1.0  0.58445  0.71731  0.72096  1.0000
  H   H5142     1.0  0.78532  0.76254  0.62122  1.0000
  C   C2880     1.0  0.84425  0.61004  0.53975  1.0000
  S   S654      1.0  0.92764  0.75461  0.64329  1.0000
  Fe  Fe328     1.0  0.88311  0.69278  0.55583  1.0000
  S   S655      1.0  0.87693  0.68090  0.58983  1.0000
  S   S656      1.0  0.91451  0.68987  0.53544  1.0000
  Fe  Fe329     1.0  0.83793  0.71064  0.55435  1.0000
  S   S657      1.0  0.82815  0.69976  0.58827  1.0000
  S   S658      1.0  0.81355  0.73053  0.53675  1.0000
  Fe  Fe330     1.0  0.85594  0.71150  0.59180  1.0000
  S   S659      1.0  0.85200  0.73300  0.61460  1.0000
  Fe  Fe331     1.0  0.84991  0.67013  0.58298  1.0000
  S   S660      1.0  0.84572  0.63737  0.59859  1.0000
  S   S661      1.0  0.86416  0.72426  0.55827  1.0000
  S   S662      1.0  0.85756  0.68006  0.54874  1.0000
  H   H5143     1.0  0.62230  0.67369  0.93632  1.0000
  S   S663      1.0  0.71770  0.61288  0.85905  1.0000
  S   S664      1.0  0.65574  0.60402  0.86994  1.0000
  C   C2881     1.0  0.92395  0.74215  0.97177  1.0000
  S   S665      1.0  0.50643  0.59587  0.78249  1.0000
  H   H5144     1.0  0.59880  0.70899  0.71256  1.0000
  Fe  Fe332     1.0  0.50846  0.65258  0.78559  1.0000
  S   S666      1.0  0.51829  0.62581  0.80964  1.0000
  S   S667      1.0  0.50835  0.68520  0.79026  1.0000
  Fe  Fe333     1.0  0.53386  0.61025  0.78274  1.0000
  C   C2882     1.0  0.69422  0.69935  0.96779  1.0000
  H   H5145     1.0  0.78736  0.60175  0.86268  1.0000
  S   S668      1.0  0.52522  0.63770  0.75840  1.0000
  H   H5146     1.0  0.58973  0.64135  0.92394  1.0000
  H   H5147     1.0  0.59991  0.67088  0.89748  1.0000
  H   H5148     1.0  0.59337  0.70044  0.83046  1.0000
  H   H5149     1.0  0.58707  0.64511  0.84352  1.0000
  S   S669      1.0  0.80716  0.59058  0.76599  1.0000
  H   H5150     1.0  0.61438  0.68009  0.85900  1.0000
  C   C2883     1.0  0.61144  0.61708  0.80986  1.0000
  C   C2884     1.0  0.58382  0.60196  0.79290  1.0000
  C   C2885     1.0  0.57884  0.62202  0.79737  1.0000
  C   C2886     1.0  0.59278  0.62967  0.80543  1.0000
  H   H5151     1.0  0.56427  0.63169  0.79451  1.0000
  H   H5152     1.0  0.58890  0.64535  0.80840  1.0000
  H   H5153     1.0  0.66018  0.62918  0.77454  1.0000
  C   C2887     1.0  0.82650  0.62470  0.59517  1.0000
  C   C2888     1.0  0.81427  0.63279  0.57997  1.0000
  C   C2889     1.0  0.80054  0.62115  0.57659  1.0000
  H   H5154     1.0  0.57138  0.71779  0.71308  1.0000
  H   H5155     1.0  0.72808  0.64524  0.69322  1.0000
  C   C2890     1.0  0.82415  0.60541  0.60756  1.0000
  H   H5156     1.0  0.81585  0.64770  0.57040  1.0000
  H   H5157     1.0  0.79150  0.62725  0.56446  1.0000
  H   H5158     1.0  0.54322  0.66615  0.86097  1.0000
  C   C2891     1.0  0.55788  0.69992  0.61659  1.0000
  C   C2892     1.0  0.90735  0.74952  0.63333  1.0000
  C   C2893     1.0  0.88959  0.76442  0.63088  1.0000
  C   C2894     1.0  0.87274  0.75933  0.62487  1.0000
  C   C2895     1.0  0.87395  0.73959  0.62036  1.0000
  C   C2896     1.0  0.89203  0.72496  0.62205  1.0000
  C   C2897     1.0  0.90855  0.72983  0.62880  1.0000
  C   C2898     1.0  0.95415  0.67681  0.66237  1.0000
  H   H5159     1.0  0.95595  0.67718  0.64563  1.0000
  H   H5160     1.0  0.89289  0.70965  0.61892  1.0000
  H   H5161     1.0  0.92225  0.71829  0.63067  1.0000
  H   H5162     1.0  0.57037  0.59404  0.87059  1.0000
  H   H5163     1.0  0.86605  0.72922  0.94169  1.0000
  H   H5164     1.0  0.70513  0.60388  0.92792  1.0000
  H   H5165     1.0  0.60050  0.76848  0.73677  1.0000
  H   H5166     1.0  0.95841  0.74443  0.57195  1.0000
  C   C2899     1.0  0.90200  0.61490  0.60438  1.0000
  S   S670      1.0  0.56617  0.59138  0.78394  1.0000
  H   H5167     1.0  0.68589  0.68514  0.91487  1.0000
  H   H5168     1.0  0.74323  0.58402  0.81314  1.0000
  C   C2900     1.0  0.95630  0.72049  0.49776  1.0000
  H   H5169     1.0  0.89639  0.63630  0.64829  1.0000
  C   C2901     1.0  0.96512  0.72899  0.51268  1.0000
  N   N160      1.0  0.96959  0.72243  0.55095  1.0000
  Fe  Fe334     1.0  0.49605  0.62462  0.76056  1.0000
  S   S671      1.0  0.61560  0.74675  0.48731  1.0000
  H   H5170     1.0  0.72561  0.61484  0.94392  1.0000
  C   C2902     1.0  0.56327  0.71448  0.79384  1.0000
  C   C2903     1.0  0.56704  0.69546  0.78691  1.0000
  C   C2904     1.0  0.55050  0.68575  0.78640  1.0000
  C   C2905     1.0  0.53002  0.69541  0.79216  1.0000
  C   C2906     1.0  0.52634  0.71440  0.79897  1.0000
  C   C2907     1.0  0.54283  0.72364  0.80035  1.0000
  H   H5171     1.0  0.58281  0.68827  0.78171  1.0000
  H   H5172     1.0  0.55358  0.67119  0.78093  1.0000
  H   H5173     1.0  0.51055  0.72212  0.80278  1.0000
  H   H5174     1.0  0.53972  0.73835  0.80549  1.0000
  C   C2908     1.0  0.61371  0.71109  0.89442  1.0000
  C   C2909     1.0  0.62446  0.69501  0.90726  1.0000
  Fe  Fe335     1.0  0.65201  0.60317  0.83772  1.0000
  C   C2910     1.0  0.59279  0.71859  0.90099  1.0000
  H   H5175     1.0  0.64063  0.68909  0.90216  1.0000
  S   S672      1.0  0.62740  0.62621  0.82241  1.0000
  H   H5176     1.0  0.58449  0.73117  0.89132  1.0000
  C   C2911     1.0  0.96364  0.63729  0.55965  1.0000
  C   C2912     1.0  0.96517  0.64490  0.53851  1.0000
  C   C2913     1.0  0.95014  0.66121  0.53117  1.0000
  C   C2914     1.0  0.93321  0.66952  0.54487  1.0000
  C   C2915     1.0  0.93156  0.66169  0.56593  1.0000
  C   C2916     1.0  0.94683  0.64577  0.57329  1.0000
  H   H5177     1.0  0.95150  0.66718  0.51484  1.0000
  H   H5178     1.0  0.91880  0.66817  0.57664  1.0000
  H   H5179     1.0  0.94521  0.63967  0.58950  1.0000
  H   H5180     1.0  0.60213  0.61891  0.50102  1.0000
  H   H5181     1.0  0.58464  0.65012  0.49592  1.0000
  C   C2917     1.0  0.89693  0.68527  0.72121  1.0000
  S   S673      1.0  0.61882  0.62902  0.96820  1.0000
  C   C2918     1.0  0.98268  0.74680  0.62387  1.0000
  C   C2919     1.0  0.81415  0.72870  0.95514  1.0000
  C   C2920     1.0  0.83477  0.72366  0.94560  1.0000
  C   C2921     1.0  0.85021  0.73304  0.94938  1.0000
  C   C2922     1.0  0.84536  0.74723  0.96306  1.0000
  C   C2923     1.0  0.67647  0.69611  0.92486  1.0000
  C   C2924     1.0  0.63248  0.61727  0.50725  1.0000
  H   H5182     1.0  0.83880  0.71272  0.93511  1.0000
  H   H5183     1.0  0.66773  0.61653  0.92596  1.0000
  H   H5184     1.0  0.85880  0.77075  0.62361  1.0000
  C   C2925     1.0  0.72958  0.64979  0.90383  1.0000
  C   C2926     1.0  0.74517  0.64329  0.88806  1.0000
  C   C2927     1.0  0.74119  0.63180  0.87473  1.0000
  C   C2928     1.0  0.72163  0.62658  0.87701  1.0000
  C   C2929     1.0  0.70596  0.63288  0.89285  1.0000
  C   C2930     1.0  0.70995  0.64442  0.90628  1.0000
  H   H5185     1.0  0.76005  0.64786  0.88556  1.0000
  H   H5186     1.0  0.75326  0.62722  0.86230  1.0000
  H   H5187     1.0  0.69081  0.62894  0.89469  1.0000
  H   H5188     1.0  0.69780  0.64911  0.91857  1.0000
  C   C2931     1.0  0.89220  0.63095  0.70034  1.0000
  C   C2932     1.0  0.92429  0.63134  0.67528  1.0000
  C   C2933     1.0  0.91793  0.59963  0.69846  1.0000
  C   C2934     1.0  0.89868  0.60990  0.70738  1.0000
  H   H5189     1.0  0.54458  0.72696  0.59734  1.0000
  H   H5190     1.0  0.88898  0.60153  0.71984  1.0000
  C   C2935     1.0  0.80144  0.64648  0.81388  1.0000
  C   C2936     1.0  0.82159  0.65076  0.80932  1.0000
  C   C2937     1.0  0.82833  0.66074  0.82238  1.0000
  C   C2938     1.0  0.81512  0.66619  0.84028  1.0000
  C   C2939     1.0  0.79496  0.66198  0.84478  1.0000
  C   C2940     1.0  0.78811  0.65232  0.83155  1.0000
  H   H5191     1.0  0.83186  0.64662  0.79558  1.0000
  H   H5192     1.0  0.84385  0.66420  0.81865  1.0000
  H   H5193     1.0  0.78455  0.66639  0.85833  1.0000
  H   H5194     1.0  0.77244  0.64930  0.83506  1.0000
  C   C2941     1.0  0.81004  0.60014  0.95882  1.0000
  H   H5195     1.0  0.88278  0.66568  0.76084  1.0000
  H   H5196     1.0  0.89435  0.64594  0.74524  1.0000
  H   H5197     1.0  0.63148  0.58779  0.80720  1.0000
  N   N161      1.0  0.85424  0.60581  0.87245  1.0000
  H   H5198     1.0  0.58428  0.76072  0.76003  1.0000
  C   C2942     1.0  0.57764  0.74719  0.47597  1.0000
  C   C2943     1.0  0.89766  0.65745  0.75319  1.0000
  C   C2944     1.0  0.58677  0.70807  0.53299  1.0000
  H   H5199     1.0  0.69792  0.66767  0.94771  1.0000
  H   H5200     1.0  0.66330  0.60792  0.76113  1.0000
  H   H5201     1.0  0.69989  0.58988  0.74877  1.0000
  H   H5202     1.0  0.69748  0.59411  0.96840  1.0000
  S   S674      1.0  0.68591  0.60131  0.82521  1.0000
  H   H5203     1.0  0.71397  0.75252  0.48207  1.0000
  H   H5204     1.0  0.71234  0.74968  0.50951  1.0000
  C   C2945     1.0  0.96919  0.76252  0.54342  1.0000
  C   C2946     1.0  0.56033  0.71897  0.59983  1.0000
  H   H5205     1.0  0.62534  0.70413  0.80448  1.0000
  H   H5206     1.0  0.85161  0.59716  0.83308  1.0000
  C   C2947     1.0  0.80927  0.74308  0.96864  1.0000
  H   H5207     1.0  0.66856  0.60317  0.78702  1.0000
  H   H5208     1.0  0.62916  0.63294  0.51140  1.0000
  H   H5209     1.0  0.88330  0.69460  0.72961  1.0000
  H   H5210     1.0  0.72301  0.64817  0.96324  1.0000
  H   H5211     1.0  0.79258  0.59943  0.88828  1.0000
  C   C2948     1.0  0.75819  0.61153  0.94299  1.0000
  H   H5212     1.0  0.83314  0.59923  0.61968  1.0000
  H   H5213     1.0  0.91641  0.75499  0.71661  1.0000
  H   H5214     1.0  0.86055  0.78245  0.67495  1.0000
  N   N162      1.0  0.90429  0.59420  0.59801  1.0000
  H   H5215     1.0  0.69171  0.58374  0.92775  1.0000
  N   N163      1.0  0.56815  0.77312  0.73429  1.0000
  H   H5216     1.0  0.58918  0.75913  0.55489  1.0000
  H   H5217     1.0  0.67854  0.77284  0.51221  1.0000
  H   H5218     1.0  0.95490  0.66041  0.67017  1.0000
  H   H5219     1.0  0.75975  0.62539  0.93088  1.0000
  H   H5220     1.0  0.78972  0.62437  0.87159  1.0000
  H   H5221     1.0  0.97581  0.75872  0.66468  1.0000
  C   C2949     1.0  0.83069  0.65651  0.97143  1.0000
  H   H5222     1.0  0.68648  0.70638  0.92692  1.0000
  C   C2950     1.0  0.60509  0.73968  0.57837  1.0000
  H   H5223     1.0  0.61371  0.77016  0.57339  1.0000
  H   H5224     1.0  0.89998  0.65787  0.67862  1.0000
  H   H5225     1.0  0.80090  0.76993  0.65857  1.0000
  H   H5226     1.0  0.85479  0.60990  0.90338  1.0000
  H   H5227     1.0  0.98198  0.72806  0.50687  1.0000
  Fe  Fe336     1.0  0.81044  0.60453  0.73245  1.0000
  H   H5228     1.0  0.77323  0.76375  0.72536  1.0000
  C   C2951     1.0  0.60518  0.69545  0.52081  1.0000
  Fe  Fe337     1.0  0.56421  0.77370  0.84738  1.0000
  H   H5229     1.0  0.58878  0.70326  0.58347  1.0000
  C   C2952     1.0  0.91412  0.61556  0.56106  1.0000
  H   H5230     1.0  0.97257  0.76284  0.52662  1.0000
  H   H5231     1.0  0.94413  0.60177  0.60097  1.0000
  H   H5232     1.0  0.72525  0.77558  0.53255  1.0000
  C   C2953     1.0  0.56747  0.75109  0.73318  1.0000
  H   H5233     1.0  0.88854  0.63825  0.89529  1.0000
  H   H5234     1.0  0.87766  0.58625  0.83704  1.0000
  S   S675      1.0  0.78871  0.60532  0.71068  1.0000
  C   C2954     1.0  0.66680  0.68439  0.94553  1.0000
  H   H5235     1.0  0.97176  0.69082  0.56769  1.0000
  H   H5236     1.0  0.60751  0.71216  0.55180  1.0000
  C   C2955     1.0  0.95903  0.74372  0.55548  1.0000
  C   C2956     1.0  0.96550  0.70692  0.57048  1.0000
  C   C2957     1.0  0.96064  0.71663  0.53474  1.0000
  Fe  Fe338     1.0  0.97659  0.61269  0.64594  1.0000
  H   H5237     1.0  0.75621  0.61615  0.95816  1.0000
  C   C2958     1.0  0.94238  0.70711  0.58062  1.0000
  H   H5238     1.0  0.53245  0.63782  0.85070  1.0000
  H   H5239     1.0  0.92291  0.58335  0.70407  1.0000
  C   C2959     1.0  0.94060  0.69078  0.60014  1.0000
  H   H5240     1.0  0.90024  0.61575  0.53462  1.0000
  H   H5241     1.0  0.65541  0.69563  0.95391  1.0000
  H   H5242     1.0  0.94255  0.74685  0.55341  1.0000
  H   H5243     1.0  0.88771  0.64788  0.62443  1.0000
  H   H5244     1.0  0.97372  0.70933  0.58222  1.0000
  C   C2960     1.0  0.53991  0.77180  0.76710  1.0000
  H   H5245     1.0  0.57191  0.75405  0.52354  1.0000
  H   H5246     1.0  0.94347  0.71865  0.53893  1.0000
  H   H5247     1.0  0.61566  0.70565  0.51073  1.0000
  H   H5248     1.0  0.57288  0.75531  0.57898  1.0000
  H   H5249     1.0  0.88871  0.77967  0.63413  1.0000
  S   S676      1.0  0.57903  0.68252  0.95624  1.0000
  H   H5250     1.0  0.93354  0.70346  0.57017  1.0000
  H   H5251     1.0  0.93476  0.72233  0.58494  1.0000
  H   H5252     1.0  0.92629  0.60082  0.53410  1.0000
  C   C2961     1.0  0.66977  0.61395  0.77202  1.0000
  H   H5253     1.0  0.66344  0.74532  0.80299  1.0000
  H   H5254     1.0  0.57321  0.69163  0.62024  1.0000
  H   H5255     1.0  0.53617  0.75655  0.76686  1.0000
  H   H5256     1.0  0.92414  0.68957  0.60624  1.0000
  H   H5257     1.0  0.94897  0.67546  0.59677  1.0000
  H   H5258     1.0  0.94732  0.69491  0.61203  1.0000
  H   H5259     1.0  0.86032  0.60940  0.53100  1.0000
  H   H5260     1.0  0.83218  0.76850  0.54079  1.0000
  H   H5261     1.0  0.93926  0.72145  0.50254  1.0000
  H   H5262     1.0  0.69746  0.62387  0.77399  1.0000
  C   C2962     1.0  0.74006  0.58912  0.77235  1.0000
  C   C2963     1.0  0.83424  0.59334  0.53543  1.0000
  C   C2964     1.0  0.49615  0.75018  0.83033  1.0000
  H   H5263     1.0  0.48982  0.77811  0.89512  1.0000
  H   H5264     1.0  0.60315  0.72692  0.59166  1.0000
  C   C2965     1.0  0.87509  0.61232  0.81270  1.0000
  H   H5265     1.0  0.90418  0.63052  0.56406  1.0000
  C   C2966     1.0  0.58724  0.73923  0.72132  1.0000
  H   H5266     1.0  0.59952  0.68738  0.51095  1.0000
  H   H5267     1.0  0.96579  0.69984  0.53406  1.0000
  H   H5268     1.0  0.89196  0.74680  0.49578  1.0000
  C   C2967     1.0  0.73952  0.60260  0.94173  1.0000
  H   H5269     1.0  0.95753  0.74539  0.51226  1.0000
  C   C2968     1.0  0.60532  0.63959  0.91410  1.0000
  H   H5270     1.0  0.92901  0.75550  0.96041  1.0000
  H   H5271     1.0  0.55021  0.68918  0.61162  1.0000
  H   H5272     1.0  0.57720  0.71809  0.52186  1.0000
  Fe  Fe339     1.0  0.84762  0.62324  0.73313  1.0000
  H   H5273     1.0  0.87944  0.60766  0.88698  1.0000
  H   H5274     1.0  0.81899  0.65046  0.96614  1.0000
  H   H5275     1.0  0.72538  0.72323  0.96110  1.0000
  H   H5276     1.0  0.68210  0.71119  0.96091  1.0000
  H   H5277     1.0  0.87674  0.60242  0.80101  1.0000
  H   H5278     1.0  0.56608  0.70169  0.57521  1.0000
  H   H5279     1.0  0.61408  0.68370  0.53143  1.0000
  H   H5280     1.0  0.55180  0.76938  0.77690  1.0000
  H   H5281     1.0  0.54812  0.70479  0.63083  1.0000
  H   H5282     1.0  0.51737  0.74571  0.89363  1.0000
  S   S677      1.0  0.96557  0.63774  0.62103  1.0000
  C   C2969     1.0  0.87173  0.76684  0.51585  1.0000
  H   H5283     1.0  0.89895  0.77195  0.49246  1.0000
  C   C2970     1.0  0.69354  0.59467  0.93717  1.0000
  C   C2971     1.0  0.72953  0.61979  0.71903  1.0000
  H   H5284     1.0  0.62984  0.60577  0.52161  1.0000
  H   H5285     1.0  0.97161  0.74922  0.63809  1.0000
  H   H5286     1.0  0.74749  0.64453  0.70823  1.0000
  C   C2972     1.0  0.98566  0.76574  0.68998  1.0000
  H   H5287     1.0  0.62123  0.59730  0.94718  1.0000
  H   H5288     1.0  0.96723  0.68283  0.66526  1.0000
  C   C2973     1.0  0.74233  0.77127  0.52898  1.0000
  H   H5289     1.0  0.60501  0.60455  0.86322  1.0000
  H   H5290     1.0  0.92398  0.72961  0.96337  1.0000
  S   S678      1.0  0.62455  0.77969  0.52766  1.0000
  C   C2974     1.0  0.90979  0.67278  0.73784  1.0000
  H   H5291     1.0  0.50589  0.76161  0.93483  1.0000
  H   H5292     1.0  0.67422  0.62176  0.94863  1.0000
  H   H5293     1.0  0.84471  0.60795  0.55640  1.0000
  C   C2975     1.0  0.62632  0.69459  0.81995  1.0000
  H   H5294     1.0  0.50311  0.73374  0.91745  1.0000
  H   H5295     1.0  0.80995  0.76392  0.60445  1.0000
  H   H5296     1.0  0.74203  0.59920  0.92598  1.0000
  H   H5297     1.0  0.53094  0.74881  0.92362  1.0000
  C   C2976     1.0  0.79451  0.60739  0.97438  1.0000
  C   C2977     1.0  0.81039  0.59385  0.60425  1.0000
  C   C2978     1.0  0.55747  0.73941  0.55439  1.0000
  H   H5298     1.0  0.77267  0.60002  0.94060  1.0000
  H   H5299     1.0  0.50972  0.75802  0.82738  1.0000
  H   H5300     1.0  0.65766  0.67397  0.94206  1.0000
  S   S679      1.0  0.59402  0.77833  0.85443  1.0000
  H   H5301     1.0  0.98405  0.73047  0.62221  1.0000
  H   H5302     1.0  0.88045  0.61613  0.85068  1.0000
  H   H5303     1.0  0.74540  0.61009  0.81365  1.0000
  H   H5304     1.0  0.93552  0.76048  0.69401  1.0000
  H   H5305     1.0  0.95881  0.75535  0.60493  1.0000
  H   H5306     1.0  0.97810  0.63834  0.52785  1.0000
  H   H5307     1.0  0.64901  0.61376  0.49990  1.0000
  H   H5308     1.0  0.74204  0.74121  0.54915  1.0000
  H   H5309     1.0  0.48917  0.75369  0.81621  1.0000
  C   C2979     1.0  0.80161  0.76410  0.62050  1.0000
  H   H5310     1.0  0.70739  0.69725  0.95476  1.0000
  C   C2980     1.0  0.51628  0.75899  0.92010  1.0000
  H   H5311     1.0  0.67569  0.76662  0.80326  1.0000
  C   C2981     1.0  0.55849  0.75745  0.53583  1.0000
  H   H5312     1.0  0.66399  0.70581  0.91679  1.0000
  H   H5313     1.0  0.76552  0.59482  0.79810  1.0000
  C   C2982     1.0  0.54197  0.70408  0.89183  1.0000
  C   C2983     1.0  0.70620  0.59522  0.76031  1.0000
  C   C2984     1.0  0.86269  0.61438  0.88728  1.0000
  C   C2985     1.0  0.83108  0.61299  0.87557  1.0000
  H   H5314     1.0  0.89054  0.61591  0.81249  1.0000
  Fe  Fe340     1.0  0.61189  0.77677  0.50000  1.0000
  C   C2986     1.0  0.86051  0.63829  0.88377  1.0000
  C   C2987     1.0  0.57639  0.65872  0.84905  1.0000
  C   C2988     1.0  0.84057  0.73573  0.49977  1.0000
  H   H5315     1.0  0.50120  0.73951  0.86848  1.0000
  H   H5316     1.0  0.71359  0.61746  0.71929  1.0000
  C   C2989     1.0  0.87173  0.64475  0.89818  1.0000
  C   C2990     1.0  0.71861  0.78016  0.49215  1.0000
  C   C2991     1.0  0.89988  0.61478  0.62770  1.0000
  H   H5317     1.0  0.85593  0.62990  0.84535  1.0000
  C   C2992     1.0  0.67001  0.75263  0.81282  1.0000
  H   H5318     1.0  0.60071  0.73775  0.72892  1.0000
  C   C2993     1.0  0.73145  0.64211  0.70909  1.0000
  H   H5319     1.0  0.82427  0.61001  0.89225  1.0000
  H   H5320     1.0  0.82733  0.63010  0.87098  1.0000
  H   H5321     1.0  0.74434  0.76185  0.56133  1.0000
  C   C2994     1.0  0.89985  0.63636  0.63152  1.0000
  H   H5322     1.0  0.85986  0.75687  0.51894  1.0000
  H   H5323     1.0  0.91521  0.64100  0.62515  1.0000
  H   H5324     1.0  0.84395  0.64547  0.88700  1.0000
  H   H5325     1.0  0.86708  0.64485  0.86780  1.0000
  H   H5326     1.0  0.91522  0.62274  0.59654  1.0000
  H   H5327     1.0  0.61804  0.65804  0.84712  1.0000
  Fe  Fe341     1.0  0.49011  0.61410  0.80738  1.0000
  H   H5328     1.0  0.81752  0.59635  0.54225  1.0000
  C   C2995     1.0  0.70863  0.76060  0.49544  1.0000
  C   C2996     1.0  0.88574  0.76358  0.49533  1.0000
  H   H5329     1.0  0.85956  0.76938  0.55691  1.0000
  C   C2997     1.0  0.59153  0.65032  0.88044  1.0000
  H   H5330     1.0  0.54719  0.65198  0.82885  1.0000
  H   H5331     1.0  0.86987  0.66190  0.89544  1.0000
  H   H5332     1.0  0.86509  0.63935  0.91451  1.0000
  H   H5333     1.0  0.92224  0.62870  0.52886  1.0000
  S   S680      1.0  0.95482  0.59668  0.67172  1.0000
  H   H5334     1.0  0.93393  0.63953  0.66264  1.0000
  N   N164      1.0  0.69703  0.70031  0.84208  1.0000
  C   C2998     1.0  0.68647  0.68429  0.85754  1.0000
  C   C2999     1.0  0.71056  0.70860  0.85244  1.0000
  C   C3000     1.0  0.68028  0.71814  0.83573  1.0000
  C   C3001     1.0  0.70945  0.69200  0.82315  1.0000
  C   C3002     1.0  0.71971  0.66868  0.82618  1.0000
  C   C3003     1.0  0.66939  0.67682  0.85019  1.0000
  C   C3004     1.0  0.68783  0.73754  0.82155  1.0000
  C   C3005     1.0  0.72907  0.69306  0.85998  1.0000
  C   C3006     1.0  0.74008  0.70261  0.87218  1.0000
  C   C3007     1.0  0.73572  0.66367  0.80733  1.0000
  C   C3008     1.0  0.66478  0.65612  0.86287  1.0000
  H   H5335     1.0  0.67902  0.69050  0.87193  1.0000
  H   H5336     1.0  0.69780  0.67049  0.86257  1.0000
  H   H5337     1.0  0.71773  0.72120  0.84178  1.0000
  H   H5338     1.0  0.70096  0.71551  0.86578  1.0000
  H   H5339     1.0  0.66991  0.72342  0.84961  1.0000
  H   H5340     1.0  0.67009  0.71306  0.82749  1.0000
  H   H5341     1.0  0.69959  0.69405  0.81128  1.0000
  H   H5342     1.0  0.72183  0.70128  0.81570  1.0000
  H   H5343     1.0  0.70786  0.65873  0.82861  1.0000
  H   H5344     1.0  0.72763  0.66385  0.83962  1.0000
  H   H5345     1.0  0.65483  0.68828  0.85192  1.0000
  H   H5346     1.0  0.67375  0.67515  0.83377  1.0000
  H   H5347     1.0  0.69995  0.73319  0.80846  1.0000
  H   H5348     1.0  0.69417  0.74614  0.83039  1.0000
  H   H5349     1.0  0.72389  0.67928  0.87014  1.0000
  H   H5350     1.0  0.74072  0.68836  0.84669  1.0000
  H   H5351     1.0  0.75345  0.69104  0.87694  1.0000
  H   H5352     1.0  0.74597  0.71651  0.86265  1.0000
  H   H5353     1.0  0.72949  0.70689  0.88628  1.0000
  H   H5354     1.0  0.74253  0.64694  0.80991  1.0000
  H   H5355     1.0  0.72841  0.66725  0.79341  1.0000
  H   H5356     1.0  0.74853  0.67253  0.80472  1.0000
  H   H5357     1.0  0.66009  0.65717  0.87946  1.0000
  H   H5358     1.0  0.65203  0.65174  0.85759  1.0000
  H   H5359     1.0  0.67861  0.64384  0.86067  1.0000
  H   H5360     1.0  0.91287  0.60408  0.63421  1.0000
  H   H5361     1.0  0.58307  0.69709  0.87151  1.0000
  H   H5362     1.0  0.60003  0.63604  0.87459  1.0000
  H   H5363     1.0  0.53130  0.70198  0.90684  1.0000
  H   H5364     1.0  0.56486  0.69563  0.85667  1.0000
  H   H5365     1.0  0.55038  0.71677  0.89140  1.0000
  H   H5366     1.0  0.55560  0.64121  0.87326  1.0000
  C   C3009     1.0  0.90504  0.64166  0.68430  1.0000
  C   C3010     1.0  0.60590  0.68684  0.82901  1.0000
  H   H5367     1.0  0.56514  0.67959  0.90303  1.0000
  H   H5368     1.0  0.61005  0.62346  0.91108  1.0000
  C   C3011     1.0  0.60695  0.67242  0.85014  1.0000
  H   H5369     1.0  0.92978  0.61551  0.56371  1.0000
  H   H5370     1.0  0.96360  0.70407  0.49724  1.0000
  H   H5371     1.0  0.58136  0.70850  0.73690  1.0000
  H   H5372     1.0  0.57729  0.64597  0.89066  1.0000
  H   H5373     1.0  0.53267  0.70855  0.87929  1.0000
  H   H5374     1.0  0.89300  0.76356  0.56913  1.0000
  C   C3012     1.0  0.91577  0.61506  0.53827  1.0000
  C   C3013     1.0  0.55514  0.65221  0.85853  1.0000
  C   C3014     1.0  0.60528  0.65509  0.89394  1.0000
  H   H5375     1.0  0.51523  0.77630  0.79308  1.0000
  H   H5376     1.0  0.62154  0.65405  0.88571  1.0000
  H   H5377     1.0  0.53984  0.77583  0.51358  1.0000
  N   N165      1.0  0.57765  0.73023  0.56190  1.0000
  N   N166      1.0  0.72938  0.59453  0.75386  1.0000
  C   C3015     1.0  0.73494  0.61451  0.74098  1.0000
  C   C3016     1.0  0.61035  0.75730  0.58625  1.0000
  C   C3017     1.0  0.94423  0.58692  0.59625  1.0000
  H   H5378     1.0  0.54570  0.74585  0.56675  1.0000
  H   H5379     1.0  0.75714  0.58472  0.76735  1.0000
  C   C3018     1.0  0.73691  0.60604  0.78565  1.0000
  C   C3019     1.0  0.74856  0.59819  0.80369  1.0000
  C   C3020     1.0  0.90461  0.59710  0.57505  1.0000
  H   H5380     1.0  0.59097  0.74716  0.70517  1.0000
  H   H5381     1.0  0.75191  0.61411  0.73912  1.0000
  H   H5382     1.0  0.72769  0.62781  0.74892  1.0000
  N   N167      1.0  0.74195  0.77660  0.48984  1.0000
  C   C3021     1.0  0.60012  0.59368  0.87745  1.0000
  S   S681      1.0  0.84471  0.59323  0.72547  1.0000
  H   H5383     1.0  0.54784  0.66677  0.50100  1.0000
  H   H5384     1.0  0.59729  0.76338  0.59781  1.0000
  C   C3022     1.0  0.50609  0.74871  0.90773  1.0000
  H   H5385     1.0  0.86438  0.62695  0.80837  1.0000
  H   H5386     1.0  0.74274  0.62016  0.77667  1.0000
  H   H5387     1.0  0.76664  0.75991  0.50607  1.0000
  S   S682      1.0  0.86548  0.75844  0.96745  1.0000
  H   H5388     1.0  0.57129  0.75994  0.48419  1.0000
  C   C3023     1.0  0.84670  0.74632  0.47977  1.0000
  H   H5389     1.0  0.60044  0.73427  0.53375  1.0000
  H   H5390     1.0  0.94087  0.68437  0.70033  1.0000
  C   C3024     1.0  0.58495  0.77289  0.74606  1.0000
  C   C3025     1.0  0.61680  0.59733  0.80463  1.0000
  H   H5391     1.0  0.83581  0.59543  0.51854  1.0000
  N   N168      1.0  0.90824  0.69880  0.70345  1.0000
  C   C3026     1.0  0.89345  0.70845  0.68861  1.0000
  C   C3027     1.0  0.92705  0.68508  0.69338  1.0000
  C   C3028     1.0  0.92331  0.73267  0.69579  1.0000
  C   C3029     1.0  0.93351  0.69021  0.66966  1.0000
  H   H5392     1.0  0.74053  0.60966  0.70899  1.0000
  C   C3030     1.0  0.86134  0.73443  0.68041  1.0000
  H   H5393     1.0  0.88917  0.69610  0.68249  1.0000
  H   H5394     1.0  0.90095  0.71832  0.67488  1.0000
  H   H5395     1.0  0.55072  0.72721  0.55060  1.0000
  H   H5396     1.0  0.92460  0.66873  0.69635  1.0000
  H   H5397     1.0  0.89066  0.67409  0.71525  1.0000
  H   H5398     1.0  0.65763  0.75762  0.82550  1.0000
  H   H5399     1.0  0.93713  0.72643  0.68520  1.0000
  H   H5400     1.0  0.88151  0.76143  0.52792  1.0000
  H   H5401     1.0  0.92169  0.68694  0.66209  1.0000
  H   H5402     1.0  0.93516  0.70662  0.66418  1.0000
  C   C3031     1.0  0.74923  0.75513  0.54700  1.0000
  H   H5403     1.0  0.52495  0.76618  0.53796  1.0000
  C   C3032     1.0  0.79883  0.60146  0.58847  1.0000
  H   H5404     1.0  0.87079  0.74549  0.67010  1.0000
  H   H5405     1.0  0.85782  0.72421  0.67120  1.0000
  C   C3033     1.0  0.61828  0.61603  0.49279  1.0000
  C   C3034     1.0  0.86434  0.61412  0.85082  1.0000
  H   H5406     1.0  0.56512  0.74171  0.74897  1.0000
  C   C3035     1.0  0.74948  0.76288  0.50853  1.0000
  H   H5407     1.0  0.57736  0.69701  0.54328  1.0000
  C   C3036     1.0  0.81892  0.60402  0.86350  1.0000
  H   H5408     1.0  0.54814  0.67174  0.89043  1.0000
  C   C3037     1.0  0.88549  0.58479  0.60905  1.0000
  H   H5409     1.0  0.68034  0.77787  0.48457  1.0000
  H   H5410     1.0  0.79534  0.76532  0.55921  1.0000
  H   H5411     1.0  0.79589  0.76840  0.51345  1.0000
  H   H5412     1.0  0.74534  0.74728  0.51088  1.0000
  H   H5413     1.0  0.57344  0.67038  0.83511  1.0000
  H   H5414     1.0  0.86242  0.71166  0.70781  1.0000
  H   H5415     1.0  0.61653  0.64250  0.92261  1.0000
  C   C3038     1.0  0.97332  0.76033  0.60568  1.0000
  H   H5416     1.0  0.77213  0.77045  0.68838  1.0000
  H   H5417     1.0  0.97005  0.76583  0.69968  1.0000
  C   C3039     1.0  0.86658  0.60094  0.83393  1.0000
  H   H5418     1.0  0.87563  0.73285  0.70618  1.0000
  H   H5419     1.0  0.62940  0.70437  0.82988  1.0000
  H   H5420     1.0  0.73251  0.58925  0.97338  1.0000
  H   H5421     1.0  0.83103  0.77455  0.66336  1.0000
  H   H5422     1.0  0.72033  0.65312  0.71806  1.0000
  H   H5423     1.0  0.80920  0.75059  0.63058  1.0000
  H   H5424     1.0  0.88499  0.61032  0.63628  1.0000
  H   H5425     1.0  0.61858  0.73423  0.56691  1.0000
  H   H5426     1.0  0.55383  0.75042  0.72658  1.0000
  C   C3040     1.0  0.55721  0.68392  0.88951  1.0000
  S   S683      1.0  0.84786  0.61096  0.76684  1.0000
  H   H5427     1.0  0.84652  0.74335  0.68729  1.0000
  H   H5428     1.0  0.94821  0.58859  0.57928  1.0000
  N   N169      1.0  0.58657  0.66718  0.86259  1.0000
  H   H5429     1.0  0.76637  0.75049  0.54436  1.0000
  C   C3041     1.0  0.68504  0.76631  0.49794  1.0000
  N   N170      1.0  0.82095  0.64923  0.65919  1.0000
  C   C3042     1.0  0.81222  0.66187  0.64063  1.0000
  C   C3043     1.0  0.84117  0.65532  0.66001  1.0000
  C   C3044     1.0  0.82540  0.62672  0.65678  1.0000
  C   C3045     1.0  0.80564  0.65124  0.67885  1.0000
  C   C3046     1.0  0.79898  0.67316  0.68447  1.0000
  C   C3047     1.0  0.79270  0.65580  0.63631  1.0000
  C   C3048     1.0  0.83806  0.61124  0.67211  1.0000
  C   C3049     1.0  0.84334  0.67838  0.65220  1.0000
  C   C3050     1.0  0.86294  0.68272  0.65724  1.0000
  C   C3051     1.0  0.77991  0.67422  0.70152  1.0000
  C   C3052     1.0  0.78534  0.66998  0.61738  1.0000
  C   C3053     1.0  0.59393  0.72162  0.54518  1.0000
  H   H5430     1.0  0.82430  0.66094  0.62666  1.0000
  H   H5431     1.0  0.80837  0.67859  0.64139  1.0000
  H   H5432     1.0  0.84461  0.65071  0.67596  1.0000
  H   H5433     1.0  0.85425  0.64669  0.65021  1.0000
  H   H5434     1.0  0.83400  0.62513  0.64105  1.0000
  H   H5435     1.0  0.81071  0.62082  0.65852  1.0000
  H   H5436     1.0  0.79157  0.64502  0.67881  1.0000
  H   H5437     1.0  0.81217  0.64135  0.69219  1.0000
  H   H5438     1.0  0.79489  0.68519  0.67130  1.0000
  H   H5439     1.0  0.81178  0.67706  0.69015  1.0000
  H   H5440     1.0  0.79604  0.63979  0.63308  1.0000
  H   H5441     1.0  0.77975  0.65705  0.64953  1.0000
  H   H5442     1.0  0.82945  0.61081  0.68801  1.0000
  H   H5443     1.0  0.85336  0.61537  0.67147  1.0000
  H   H5444     1.0  0.84453  0.68217  0.63519  1.0000
  H   H5445     1.0  0.83004  0.68915  0.65899  1.0000
  H   H5446     1.0  0.86199  0.68037  0.67417  1.0000
  H   H5447     1.0  0.87687  0.67249  0.65053  1.0000
  H   H5448     1.0  0.86463  0.69897  0.65056  1.0000
  H   H5449     1.0  0.77689  0.68930  0.70685  1.0000
  H   H5450     1.0  0.76613  0.67291  0.69560  1.0000
  H   H5451     1.0  0.78224  0.66160  0.71486  1.0000
  H   H5452     1.0  0.77139  0.66534  0.61461  1.0000
  H   H5453     1.0  0.78131  0.68637  0.61962  1.0000
  H   H5454     1.0  0.79758  0.66863  0.60353  1.0000
  H   H5455     1.0  0.83518  0.62561  0.53496  1.0000
  H   H5456     1.0  0.67831  0.75229  0.49906  1.0000
  H   H5457     1.0  0.69239  0.62729  0.74850  1.0000
  H   H5458     1.0  0.60596  0.77790  0.77447  1.0000
  H   H5459     1.0  0.77491  0.60004  0.67509  1.0000
  C   C3054     1.0  0.61413  0.68625  0.92653  1.0000
  C   C3055     1.0  0.93081  0.61028  0.68242  1.0000
  C   C3056     1.0  0.91490  0.71493  0.71190  1.0000
  H   H5460     1.0  0.92458  0.66376  0.73104  1.0000
  H   H5461     1.0  0.92726  0.70757  0.72117  1.0000
  C   C3057     1.0  0.57386  0.71270  0.57965  1.0000
  H   H5462     1.0  0.59336  0.60236  0.89027  1.0000
  C   C3058     1.0  0.60311  0.58988  0.79602  1.0000
  C   C3059     1.0  0.82208  0.74356  0.51187  1.0000
  H   H5463     1.0  0.91127  0.74171  0.68685  1.0000
  C   C3060     1.0  0.58250  0.70983  0.92015  1.0000
  C   C3061     1.0  0.88975  0.78036  0.56980  1.0000
  H   H5464     1.0  0.56161  0.76913  0.69430  1.0000
  C   C3062     1.0  0.87287  0.72178  0.69747  1.0000
  C   C3063     1.0  0.92981  0.74787  0.70604  1.0000
  H   H5465     1.0  0.85001  0.72142  0.50574  1.0000
  H   H5466     1.0  0.56626  0.71563  0.92511  1.0000
  C   C3064     1.0  0.59305  0.69355  0.93287  1.0000
  H   H5467     1.0  0.94245  0.73997  0.71472  1.0000
  C   C3065     1.0  0.78185  0.77893  0.69382  1.0000
  C   C3066     1.0  0.80995  0.76208  0.50399  1.0000
  C   C3067     1.0  0.69230  0.61643  0.76339  1.0000
  C   C3068     1.0  0.58535  0.74695  0.56840  1.0000
  H   H5468     1.0  0.79767  0.76965  0.69278  1.0000
  C   C3069     1.0  0.54808  0.64161  0.84398  1.0000
  H   H5469     1.0  0.91343  0.68340  0.74657  1.0000
  H   H5470     1.0  0.88819  0.62546  0.59919  1.0000
  H   H5471     1.0  0.98697  0.78201  0.68271  1.0000
  H   H5472     1.0  0.84325  0.65963  0.95812  1.0000
  H   H5473     1.0  0.56737  0.72938  0.60593  1.0000
  C   C3070     1.0  0.57325  0.68662  0.86922  1.0000
  H   H5474     1.0  0.82094  0.61194  0.84719  1.0000
  H   H5475     1.0  0.72042  0.61010  0.79236  1.0000
  H   H5476     1.0  0.62429  0.75161  0.59360  1.0000
  H   H5477     1.0  0.67852  0.65537  0.96405  1.0000
  S   S684      1.0  0.86814  0.64413  0.71139  1.0000
  H   H5478     1.0  0.55895  0.62699  0.84155  1.0000
  H   H5479     1.0  0.90692  0.64897  0.76518  1.0000
  H   H5480     1.0  0.90197  0.72205  0.72296  1.0000
  C   C3071     1.0  0.67278  0.60927  0.94086  1.0000
  H   H5481     1.0  0.96941  0.77679  0.60763  1.0000
  H   H5482     1.0  0.87694  0.76920  0.48244  1.0000
  H   H5483     1.0  0.55974  0.77160  0.54116  1.0000
  C   C3072     1.0  0.48999  0.75441  0.86756  1.0000
  C   C3073     1.0  0.68317  0.67084  0.95845  1.0000
  H   H5484     1.0  0.88851  0.59980  0.57184  1.0000
  H   H5485     1.0  0.70018  0.73987  0.96354  1.0000
  H   H5486     1.0  0.49986  0.76648  0.86427  1.0000
  H   H5487     1.0  0.66065  0.60066  0.95047  1.0000
  H   H5488     1.0  0.87109  0.59585  0.60593  1.0000
  H   H5489     1.0  0.64116  0.58559  0.91509  1.0000
  H   H5490     1.0  0.52007  0.77404  0.91118  1.0000
  H   H5491     1.0  0.98418  0.75889  0.59094  1.0000
  S   S685      1.0  0.98234  0.61672  0.56876  1.0000
  H   H5492     1.0  0.98667  0.73648  0.68167  1.0000
  C   C3074     1.0  0.57551  0.65060  0.48391  1.0000
  H   H5493     1.0  0.95948  0.72967  0.48204  1.0000
  H   H5494     1.0  0.73035  0.67129  0.96694  1.0000
  C   C3075     1.0  0.78148  0.58490  0.68261  1.0000
  C   C3076     1.0  0.82475  0.75222  0.97265  1.0000
  H   H5495     1.0  0.85159  0.58865  0.65192  1.0000
  H   H5496     1.0  0.49057  0.75941  0.76066  1.0000
  H   H5497     1.0  0.50139  0.73320  0.83419  1.0000
  H   H5498     1.0  0.82723  0.58411  0.66816  1.0000
  H   H5499     1.0  0.53745  0.74891  0.51984  1.0000
  C   C3077     1.0  0.71113  0.72809  0.97206  1.0000
  H   H5500     1.0  0.62154  0.59986  0.49003  1.0000
  H   H5501     1.0  0.58965  0.78153  0.70626  1.0000
  H   H5502     1.0  0.70284  0.58399  0.77481  1.0000
  H   H5503     1.0  0.56406  0.68357  0.48377  1.0000
  S   S686      1.0  0.78288  0.58643  0.58262  1.0000
  C   C3078     1.0  0.77320  0.77973  0.71653  1.0000
  H   H5504     1.0  0.56839  0.63655  0.48722  1.0000
  C   C3079     1.0  0.55784  0.66910  0.48562  1.0000
  C   C3080     1.0  0.53892  0.76231  0.52630  1.0000
  H   H5505     1.0  0.82381  0.58714  0.86416  1.0000
  H   H5506     1.0  0.78317  0.75286  0.47613  1.0000
  C   C3081     1.0  0.84207  0.58928  0.66744  1.0000
  C   C3082     1.0  0.59868  0.73846  0.47473  1.0000
  C   C3083     1.0  0.78987  0.58298  0.70039  1.0000
  H   H5507     1.0  0.58946  0.61081  0.47516  1.0000
  H   H5508     1.0  0.62363  0.64634  0.47571  1.0000
  C   C3084     1.0  0.73694  0.58326  0.95866  1.0000
  C   C3085     1.0  0.79156  0.78248  0.55684  1.0000
  C   C3086     1.0  0.98844  0.75237  0.67355  1.0000
  H   H5509     1.0  0.77639  0.78170  0.65180  1.0000
  H   H5510     1.0  0.74758  0.74975  0.47501  1.0000
  H   H5511     1.0  0.87989  0.78279  0.58480  1.0000
  H   H5512     1.0  0.53496  0.78281  0.73607  1.0000
  C   C3087     1.0  0.54724  0.78270  0.74485  1.0000
  C   C3088     1.0  0.94012  0.97339  0.19537  1.0000
  H   H5513     1.0  0.93376  0.92898  0.13914  1.0000
  C   C3089     1.0  0.79020  0.90513  0.46554  1.0000
  H   H5514     1.0  0.91488  0.93494  0.08937  1.0000
  H   H5515     1.0  0.86229  0.94359  0.17746  1.0000
  Fe  Fe342     1.0  0.85277  0.81125  0.01785  1.0000
  S   S687      1.0  0.83368  0.84288  0.02132  1.0000
  S   S688      1.0  0.87951  0.80266  0.99273  1.0000
  Fe  Fe343     1.0  0.81201  0.94448  0.10869  1.0000
  S   S689      1.0  0.83187  0.95884  0.08040  1.0000
  H   H5516     1.0  0.81618  0.97888  0.41345  1.0000
  Fe  Fe344     1.0  0.84841  0.91547  0.12441  1.0000
  S   S690      1.0  0.87117  0.92808  0.09778  1.0000
  S   S691      1.0  0.86273  0.88838  0.14573  1.0000
  Fe  Fe345     1.0  0.85271  0.95932  0.10215  1.0000
  Fe  Fe346     1.0  0.84846  0.92627  0.07863  1.0000
  S   S692      1.0  0.86301  0.91386  0.04927  1.0000
  S   S693      1.0  0.83193  0.94688  0.13069  1.0000
  S   S694      1.0  0.82666  0.91173  0.10499  1.0000
  H   H5517     1.0  0.85215  0.88537  0.98876  1.0000
  C   C3090     1.0  0.97557  0.82202  0.15774  1.0000
  S   S695      1.0  0.96073  0.85249  0.04497  1.0000
  Fe  Fe347     1.0  0.80121  0.84989  0.42950  1.0000
  H   H5518     1.0  0.90135  0.95415  0.14209  1.0000
  S   S696      1.0  0.80305  0.88047  0.43660  1.0000
  Fe  Fe348     1.0  0.81197  0.83010  0.39135  1.0000
  S   S697      1.0  0.81967  0.83603  0.35678  1.0000
  H   H5519     1.0  0.84917  0.94630  0.29107  1.0000
  S   S698      1.0  0.74464  0.81138  0.42806  1.0000
  S   S699      1.0  0.78323  0.84952  0.40532  1.0000
  C   C3091     1.0  0.96142  0.96344  0.24565  1.0000
  Fe  Fe349     1.0  0.87767  0.89443  0.24975  1.0000
  S   S700      1.0  0.89833  0.91582  0.23000  1.0000
  S   S701      1.0  0.84828  0.89238  0.24021  1.0000
  Fe  Fe350     1.0  0.90225  0.88397  0.28436  1.0000
  S   S702      1.0  0.92491  0.90475  0.26780  1.0000
  S   S703      1.0  0.90409  0.86680  0.31646  1.0000
  Fe  Fe351     1.0  0.89699  0.92710  0.25919  1.0000
  S   S704      1.0  0.89138  0.96137  0.25773  1.0000
  Fe  Fe352     1.0  0.92434  0.89142  0.24021  1.0000
  S   S705      1.0  0.95520  0.88245  0.22028  1.0000
  S   S706      1.0  0.87425  0.90768  0.27820  1.0000
  S   S707      1.0  0.90378  0.86864  0.25752  1.0000
  Fe  Fe353     1.0  0.51544  0.80102  0.28616  1.0000
  S   S708      1.0  0.51395  0.81243  0.31526  1.0000
  H   H5520     1.0  0.95679  0.94856  0.22269  1.0000
  H   H5521     1.0  0.71659  0.97945  0.30195  1.0000
  H   H5522     1.0  0.87283  0.98117  0.16949  1.0000
  H   H5523     1.0  0.69690  0.97759  0.39296  1.0000
  Fe  Fe354     1.0  0.53043  0.83758  0.29500  1.0000
  S   S709      1.0  0.55983  0.83827  0.30691  1.0000
  H   H5524     1.0  0.96925  0.85020  0.00251  1.0000
  S   S710      1.0  0.53306  0.82492  0.26593  1.0000
  C   C3092     1.0  0.94159  0.78539  0.24228  1.0000
  Fe  Fe355     1.0  0.65036  0.90323  0.37603  1.0000
  S   S711      1.0  0.64535  0.87614  0.36451  1.0000
  S   S712      1.0  0.64003  0.90766  0.40900  1.0000
  Fe  Fe356     1.0  0.67567  0.92070  0.33511  1.0000
  S   S713      1.0  0.67224  0.89500  0.32011  1.0000
  Fe  Fe357     1.0  0.63883  0.89904  0.33606  1.0000
  S   S714      1.0  0.61046  0.90338  0.32085  1.0000
  Fe  Fe358     1.0  0.67888  0.87433  0.34971  1.0000
  S   S715      1.0  0.70142  0.84411  0.35007  1.0000
  S   S716      1.0  0.64171  0.92659  0.34883  1.0000
  S   S717      1.0  0.68443  0.89971  0.36343  1.0000
  H   H5525     1.0  0.50343  0.79993  0.36104  1.0000
  C   C3093     1.0  0.97475  0.93343  0.12007  1.0000
  H   H5526     1.0  0.80761  0.95126  0.27711  1.0000
  C   C3094     1.0  0.94799  0.96193  0.23013  1.0000
  H   H5527     1.0  0.61199  0.86626  0.47384  1.0000
  C   C3095     1.0  0.96047  0.94062  0.10365  1.0000
  C   C3096     1.0  0.57347  0.85678  0.31073  1.0000
  C   C3097     1.0  0.56642  0.87813  0.30629  1.0000
  C   C3098     1.0  0.57791  0.89210  0.30958  1.0000
  C   C3099     1.0  0.59646  0.88496  0.31747  1.0000
  C   C3100     1.0  0.60344  0.86359  0.32204  1.0000
  C   C3101     1.0  0.59207  0.84963  0.31857  1.0000
  H   H5528     1.0  0.55220  0.88390  0.30024  1.0000
  H   H5529     1.0  0.57239  0.90858  0.30594  1.0000
  H   H5530     1.0  0.61776  0.85787  0.32792  1.0000
  H   H5531     1.0  0.59785  0.83319  0.32181  1.0000
  C   C3102     1.0  0.77225  0.98114  0.98497  1.0000
  H   H5532     1.0  0.70506  0.95968  0.13573  1.0000
  H   H5533     1.0  0.83719  0.93035  0.98820  1.0000
  H   H5534     1.0  0.70896  0.93403  0.35696  1.0000
  H   H5535     1.0  0.92193  0.79071  0.07618  1.0000
  C   C3103     1.0  0.88349  0.95611  0.30003  1.0000
  H   H5536     1.0  0.87077  0.80421  0.41671  1.0000
  H   H5537     1.0  0.87546  0.95214  0.33319  1.0000
  H   H5538     1.0  0.89361  0.94122  0.30000  1.0000
  C   C3104     1.0  0.84296  0.84499  0.34577  1.0000
  C   C3105     1.0  0.84864  0.84908  0.32433  1.0000
  C   C3106     1.0  0.86728  0.85612  0.31525  1.0000
  C   C3107     1.0  0.88046  0.85867  0.32764  1.0000
  C   C3108     1.0  0.87475  0.85464  0.34907  1.0000
  C   C3109     1.0  0.85596  0.84792  0.35810  1.0000
  H   H5539     1.0  0.83867  0.84677  0.31470  1.0000
  H   H5540     1.0  0.87157  0.85928  0.29867  1.0000
  H   H5541     1.0  0.88467  0.85717  0.35863  1.0000
  H   H5542     1.0  0.85144  0.84518  0.37455  1.0000
  C   C3110     1.0  0.73442  0.82135  0.40541  1.0000
  C   C3111     1.0  0.72254  0.84123  0.40279  1.0000
  C   C3112     1.0  0.71227  0.84830  0.38588  1.0000
  C   C3113     1.0  0.71416  0.83569  0.37134  1.0000
  C   C3114     1.0  0.72662  0.81604  0.37364  1.0000
  C   C3115     1.0  0.73673  0.80887  0.39065  1.0000
  H   H5543     1.0  0.72056  0.85085  0.41428  1.0000
  H   H5544     1.0  0.70242  0.86323  0.38455  1.0000
  H   H5545     1.0  0.72831  0.80627  0.36235  1.0000
  C   C3116     1.0  0.95846  0.82932  0.24633  1.0000
  C   C3117     1.0  0.95624  0.88193  0.15265  1.0000
  H   H5546     1.0  0.58595  0.80055  0.43551  1.0000
  C   C3118     1.0  0.97418  0.87689  0.18136  1.0000
  C   C3119     1.0  0.95531  0.88240  0.19431  1.0000
  C   C3120     1.0  0.93688  0.88731  0.18648  1.0000
  C   C3121     1.0  0.93740  0.88706  0.16569  1.0000
  H   H5547     1.0  0.79500  0.81471  0.33903  1.0000
  H   H5548     1.0  0.92223  0.89130  0.19640  1.0000
  H   H5549     1.0  0.92317  0.89070  0.15965  1.0000
  N   N171      1.0  0.94786  0.81872  0.21535  1.0000
  S   S718      1.0  0.83682  0.78519  0.01680  1.0000
  C   C3122     1.0  0.96125  0.94490  0.26330  1.0000
  H   H5550     1.0  0.83989  0.93975  0.23404  1.0000
  H   H5551     1.0  0.64163  0.78984  0.44068  1.0000
  H   H5552     1.0  0.90501  0.83088  0.40028  1.0000
  C   C3123     1.0  0.59927  0.86221  0.44860  1.0000
  C   C3124     1.0  0.59917  0.86786  0.42741  1.0000
  C   C3125     1.0  0.61187  0.88158  0.41509  1.0000
  C   C3126     1.0  0.62423  0.89019  0.42403  1.0000
  C   C3127     1.0  0.62394  0.88490  0.44529  1.0000
  H   H5553     1.0  0.80655  0.95682  0.03226  1.0000
  H   H5554     1.0  0.58932  0.86156  0.42050  1.0000
  H   H5555     1.0  0.61160  0.88597  0.39879  1.0000
  H   H5556     1.0  0.84234  0.97256  0.19438  1.0000
  H   H5557     1.0  0.87976  0.81561  0.09241  1.0000
  C   C3128     1.0  0.85860  0.89063  0.17169  1.0000
  C   C3129     1.0  0.83896  0.89836  0.18189  1.0000
  C   C3130     1.0  0.83571  0.89840  0.20312  1.0000
  C   C3131     1.0  0.85226  0.89147  0.21391  1.0000
  C   C3132     1.0  0.87208  0.88459  0.20346  1.0000
  C   C3133     1.0  0.87511  0.88363  0.18251  1.0000
  H   H5558     1.0  0.82617  0.90369  0.17357  1.0000
  H   H5559     1.0  0.82043  0.90400  0.21112  1.0000
  H   H5560     1.0  0.88504  0.87992  0.21154  1.0000
  H   H5561     1.0  0.89031  0.87773  0.17459  1.0000
  C   C3134     1.0  0.84358  0.85913  0.03275  1.0000
  C   C3135     1.0  0.86383  0.86292  0.02584  1.0000
  C   C3136     1.0  0.87002  0.87918  0.03179  1.0000
  C   C3137     1.0  0.85628  0.89119  0.04531  1.0000
  C   C3138     1.0  0.83660  0.88631  0.05351  1.0000
  C   C3139     1.0  0.83015  0.87058  0.04693  1.0000
  H   H5562     1.0  0.87427  0.85425  0.01483  1.0000
  H   H5563     1.0  0.88528  0.88286  0.02540  1.0000
  H   H5564     1.0  0.82590  0.89546  0.06394  1.0000
  H   H5565     1.0  0.81448  0.86767  0.05236  1.0000
  H   H5566     1.0  0.63878  0.80223  0.38426  1.0000
  C   C3140     1.0  0.92689  0.82033  0.02470  1.0000
  C   C3141     1.0  0.93438  0.83628  0.02966  1.0000
  C   C3142     1.0  0.95137  0.83183  0.03990  1.0000
  C   C3143     1.0  0.96115  0.81130  0.04479  1.0000
  H   H5567     1.0  0.98252  0.78287  0.00425  1.0000
  H   H5568     1.0  0.91366  0.82392  0.01698  1.0000
  H   H5569     1.0  0.92698  0.85216  0.02541  1.0000
  C   C3144     1.0  0.67233  0.84955  0.44318  1.0000
  H   H5570     1.0  0.68129  0.86240  0.43790  1.0000
  S   S719      1.0  0.97222  0.83566  0.10157  1.0000
  C   C3145     1.0  0.67686  0.79838  0.41400  1.0000
  C   C3146     1.0  0.71086  0.95586  0.32860  1.0000
  H   H5571     1.0  0.78982  0.95972  0.07246  1.0000
  C   C3147     1.0  0.88334  0.80934  0.40418  1.0000
  H   H5572     1.0  0.92647  0.84695  0.22023  1.0000
  C   C3148     1.0  0.89312  0.92473  0.14470  1.0000
  C   C3149     1.0  0.92661  0.82991  0.22343  1.0000
  H   H5573     1.0  0.97257  0.83629  0.26949  1.0000
  H   H5574     1.0  0.55346  0.80470  0.20331  1.0000
  C   C3150     1.0  0.49657  0.83212  0.16778  1.0000
  C   C3151     1.0  0.52305  0.82314  0.19816  1.0000
  H   H5575     1.0  0.72915  0.95130  0.37302  1.0000
  H   H5576     1.0  0.75167  0.80329  0.46853  1.0000
  H   H5577     1.0  0.64249  0.78500  0.41600  1.0000
  H   H5578     1.0  0.52536  0.79577  0.15729  1.0000
  C   C3152     1.0  0.95182  0.82539  0.19222  1.0000
  C   C3153     1.0  0.52474  0.78792  0.19051  1.0000
  H   H5579     1.0  0.83175  0.93616  0.26723  1.0000
  Fe  Fe359     1.0  0.89457  0.78388  0.01918  1.0000
  Fe  Fe360     1.0  0.77601  0.81959  0.42446  1.0000
  H   H5580     1.0  0.86898  0.89484  0.37044  1.0000
  H   H5581     1.0  0.92277  0.82596  0.24043  1.0000
  C   C3154     1.0  0.89681  0.81163  0.09158  1.0000
  S   S720      1.0  0.83072  0.83275  0.41406  1.0000
  C   C3155     1.0  0.54147  0.81676  0.21002  1.0000
  H   H5582     1.0  0.76800  0.88565  0.36699  1.0000
  C   C3156     1.0  0.65228  0.82417  0.39539  1.0000
  C   C3157     1.0  0.65158  0.81123  0.37913  1.0000
  C   C3158     1.0  0.66905  0.84191  0.42456  1.0000
  C   C3159     1.0  0.64814  0.82499  0.35858  1.0000
  H   H5583     1.0  0.96154  0.81489  0.98670  1.0000
  H   H5584     1.0  0.63785  0.83599  0.39684  1.0000
  H   H5585     1.0  0.66493  0.83332  0.38869  1.0000
  H   H5586     1.0  0.64946  0.97982  0.41720  1.0000
  C   C3160     1.0  0.95404  0.79538  0.03924  1.0000
  H   H5587     1.0  0.66326  0.85548  0.41331  1.0000
  H   H5588     1.0  0.68429  0.83450  0.41737  1.0000
  H   H5589     1.0  0.63362  0.83651  0.36054  1.0000
  Fe  Fe361     1.0  0.98101  0.86415  0.10709  1.0000
  C   C3161     1.0  0.61187  0.87055  0.45749  1.0000
  N   N172      1.0  0.56717  0.78411  0.36483  1.0000
  C   C3162     1.0  0.94619  0.88753  0.99265  1.0000
  C   C3163     1.0  0.54421  0.79202  0.36592  1.0000
  H   H5590     1.0  0.76348  0.97479  0.23388  1.0000
  C   C3164     1.0  0.57771  0.80238  0.36262  1.0000
  C   C3165     1.0  0.57226  0.81375  0.38134  1.0000
  H   H5591     1.0  0.67694  0.78522  0.40638  1.0000
  N   N173      1.0  0.65561  0.81183  0.41622  1.0000
  H   H5592     1.0  0.78121  0.80259  0.32617  1.0000
  H   H5593     1.0  0.89894  0.96625  0.06731  1.0000
  C   C3166     1.0  0.58398  0.83176  0.37743  1.0000
  H   H5594     1.0  0.97881  0.81348  0.22256  1.0000
  H   H5595     1.0  0.76856  0.96059  0.01380  1.0000
  H   H5596     1.0  0.54532  0.80481  0.16553  1.0000
  H   H5597     1.0  0.98478  0.82822  0.18401  1.0000
  C   C3167     1.0  0.88474  0.78814  0.37822  1.0000
  H   H5598     1.0  0.54122  0.80602  0.35390  1.0000
  C   C3168     1.0  0.96421  0.82507  0.22389  1.0000
  H   H5599     1.0  0.84832  0.95132  0.00248  1.0000
  H   H5600     1.0  0.59484  0.79779  0.35886  1.0000
  H   H5601     1.0  0.57349  0.81435  0.34926  1.0000
  H   H5602     1.0  0.57631  0.80325  0.39551  1.0000
  H   H5603     1.0  0.55547  0.82026  0.38430  1.0000
  H   H5604     1.0  0.87030  0.84816  0.41583  1.0000
  H   H5605     1.0  0.94105  0.79046  0.20970  1.0000
  H   H5606     1.0  0.58324  0.79892  0.32173  1.0000
  C   C3169     1.0  0.97733  0.83250  0.25374  1.0000
  H   H5607     1.0  0.68860  0.80694  0.40342  1.0000
  H   H5608     1.0  0.95186  0.81672  0.25734  1.0000
  H   H5609     1.0  0.68048  0.97163  0.10621  1.0000
  C   C3170     1.0  0.79111  0.88549  0.46120  1.0000
  C   C3171     1.0  0.84066  0.89305  0.97865  1.0000
  H   H5610     1.0  0.57959  0.84344  0.36400  1.0000
  H   H5611     1.0  0.58009  0.83947  0.39112  1.0000
  H   H5612     1.0  0.60093  0.82610  0.37450  1.0000
  C   C3172     1.0  0.88028  0.96913  0.28140  1.0000
  H   H5613     1.0  0.69277  0.91898  0.42316  1.0000
  H   H5614     1.0  0.61267  0.82008  0.43613  1.0000
  H   H5615     1.0  0.55790  0.84166  0.19280  1.0000
  S   S721      1.0  0.86874  0.79403  0.04403  1.0000
  H   H5616     1.0  0.79075  0.94053  0.98821  1.0000
  S   S722      1.0  0.50064  0.85967  0.28962  1.0000
  C   C3173     1.0  0.90846  0.82644  0.21439  1.0000
  H   H5617     1.0  0.71479  0.98072  0.06888  1.0000
  H   H5618     1.0  0.81407  0.89321  0.00259  1.0000
  S   S723      1.0  0.77775  0.95657  0.11637  1.0000
  C   C3174     1.0  0.63978  0.79782  0.42484  1.0000
  H   H5619     1.0  0.88963  0.84592  0.43138  1.0000
  C   C3175     1.0  0.88759  0.83158  0.22834  1.0000
  H   H5620     1.0  0.89757  0.92016  0.16016  1.0000
  H   H5621     1.0  0.95216  0.78636  0.25243  1.0000
  C   C3176     1.0  0.71946  0.97314  0.31742  1.0000
  H   H5622     1.0  0.88659  0.82017  0.24293  1.0000
  H   H5623     1.0  0.97816  0.94692  0.12496  1.0000
  N   N174      1.0  0.51104  0.80637  0.19870  1.0000
  C   C3177     1.0  0.96633  0.87832  0.97973  1.0000
  H   H5624     1.0  0.94306  0.82450  0.37228  1.0000
  C   C3178     1.0  0.68909  0.92583  0.40761  1.0000
  H   H5625     1.0  0.68113  0.83682  0.45307  1.0000
  H   H5626     1.0  0.96846  0.95070  0.09039  1.0000
  C   C3179     1.0  0.63853  0.98151  0.33155  1.0000
  C   C3180     1.0  0.57377  0.78654  0.32527  1.0000
  C   C3181     1.0  0.92705  0.93513  0.12490  1.0000
  Fe  Fe362     1.0  0.50160  0.84440  0.26259  1.0000
  C   C3182     1.0  0.93855  0.96786  0.12279  1.0000
  H   H5627     1.0  0.93292  0.88115  0.99065  1.0000
  H   H5628     1.0  0.90038  0.80362  0.10684  1.0000
  C   C3183     1.0  0.83208  0.94845  0.29373  1.0000
  C   C3184     1.0  0.50210  0.79907  0.22099  1.0000
  H   H5629     1.0  0.78629  0.87628  0.29314  1.0000
  C   C3185     1.0  0.78145  0.96704  0.00297  1.0000
  C   C3186     1.0  0.97066  0.85436  0.98558  1.0000
  H   H5630     1.0  0.79697  0.91675  0.45391  1.0000
  C   C3187     1.0  0.92864  0.96102  0.09237  1.0000
  C   C3188     1.0  0.94015  0.81795  0.35961  1.0000
  H   H5631     1.0  0.80963  0.95654  0.98275  1.0000
  C   C3189     1.0  0.53648  0.79204  0.16812  1.0000
  C   C3190     1.0  0.65354  0.82666  0.43076  1.0000
  H   H5632     1.0  0.73736  0.91069  0.37836  1.0000
  H   H5633     1.0  0.72917  0.87966  0.35244  1.0000
  C   C3191     1.0  0.82752  0.92107  0.00071  1.0000
  C   C3192     1.0  0.92431  0.95036  0.17985  1.0000
  H   H5634     1.0  0.62446  0.96316  0.44422  1.0000
  H   H5635     1.0  0.91634  0.80608  0.35155  1.0000
  S   S724      1.0  0.79126  0.82162  0.45038  1.0000
  Fe  Fe363     1.0  0.81959  0.80417  0.43304  1.0000
  H   H5636     1.0  0.87481  0.83110  0.22047  1.0000
  H   H5637     1.0  0.94444  0.96091  0.13736  1.0000
  H   H5638     1.0  0.69200  0.97127  0.06736  1.0000
  H   H5639     1.0  0.73856  0.89330  0.27477  1.0000
  H   H5640     1.0  0.94796  0.84258  0.18805  1.0000
  C   C3193     1.0  0.76652  0.97524  0.24929  1.0000
  H   H5641     1.0  0.74323  0.89004  0.39936  1.0000
  H   H5642     1.0  0.71876  0.91448  0.28228  1.0000
  C   C3194     1.0  0.88065  0.83703  0.42553  1.0000
  H   H5643     1.0  0.78415  0.91808  0.01849  1.0000
  H   H5644     1.0  0.75520  0.96813  0.46231  1.0000
  H   H5645     1.0  0.78603  0.88232  0.33706  1.0000
  H   H5646     1.0  0.96669  0.97915  0.10416  1.0000
  H   H5647     1.0  0.69007  0.95140  0.17311  1.0000
  S   S725      1.0  0.58342  0.84485  0.46372  1.0000
  N   N175      1.0  0.89562  0.79108  0.39456  1.0000
  H   H5648     1.0  0.87522  0.82094  0.39280  1.0000
  H   H5649     1.0  0.72196  0.89036  0.38700  1.0000
  H   H5650     1.0  0.50387  0.78452  0.38645  1.0000
  H   H5651     1.0  0.76674  0.95962  0.25899  1.0000
  H   H5652     1.0  0.77243  0.90107  0.31981  1.0000
  H   H5653     1.0  0.98405  0.84561  0.24344  1.0000
  H   H5654     1.0  0.71482  0.88820  0.29200  1.0000
  H   H5655     1.0  0.93341  0.95686  0.23902  1.0000
  H   H5656     1.0  0.78842  0.96292  0.40767  1.0000
  H   H5657     1.0  0.74828  0.90845  0.30080  1.0000
  H   H5658     1.0  0.79067  0.97671  0.38139  1.0000
  H   H5659     1.0  0.84689  0.97033  0.25783  1.0000
  H   H5660     1.0  0.51453  0.79015  0.22964  1.0000
  H   H5661     1.0  0.81826  0.88953  0.31194  1.0000
  H   H5662     1.0  0.96692  0.93014  0.25729  1.0000
  H   H5663     1.0  0.90600  0.81166  0.42297  1.0000
  C   C3195     1.0  0.85945  0.98119  0.31877  1.0000
  H   H5664     1.0  0.69616  0.97517  0.17700  1.0000
  S   S726      1.0  0.95612  0.88352  0.12644  1.0000
  H   H5665     1.0  0.78775  0.97694  0.01037  1.0000
  H   H5666     1.0  0.74149  0.90173  0.34329  1.0000
  H   H5667     1.0  0.82549  0.96236  0.30093  1.0000
  H   H5668     1.0  0.90789  0.83667  0.19916  1.0000
  H   H5669     1.0  0.90850  0.96573  0.20486  1.0000
  C   C3196     1.0  0.55170  0.83531  0.20899  1.0000
  H   H5670     1.0  0.65477  0.81804  0.44652  1.0000
  H   H5671     1.0  0.72407  0.90502  0.31773  1.0000
  C   C3197     1.0  0.84305  0.95664  0.20326  1.0000
  H   H5672     1.0  0.60458  0.78499  0.45067  1.0000
  H   H5673     1.0  0.63796  0.83656  0.43227  1.0000
  H   H5674     1.0  0.56471  0.83042  0.21773  1.0000
  H   H5675     1.0  0.81075  0.91230  0.97987  1.0000
  H   H5676     1.0  0.85837  0.95591  0.22900  1.0000
  N   N176      1.0  0.90252  0.84664  0.09818  1.0000
  C   C3198     1.0  0.91205  0.83610  0.11690  1.0000
  C   C3199     1.0  0.90641  0.83151  0.08356  1.0000
  C   C3200     1.0  0.91379  0.86434  0.08749  1.0000
  C   C3201     1.0  0.87963  0.85518  0.10341  1.0000
  C   C3202     1.0  0.86690  0.84310  0.12238  1.0000
  C   C3203     1.0  0.91361  0.85063  0.13129  1.0000
  C   C3204     1.0  0.90746  0.87638  0.06688  1.0000
  C   C3205     1.0  0.84365  0.85088  0.12334  1.0000
  C   C3206     1.0  0.91695  0.83874  0.15255  1.0000
  C   C3207     1.0  0.91685  0.89607  0.05950  1.0000
  H   H5677     1.0  0.92808  0.82785  0.11210  1.0000
  H   H5678     1.0  0.90365  0.82381  0.12631  1.0000
  H   H5679     1.0  0.90010  0.83891  0.06928  1.0000
  H   H5680     1.0  0.92343  0.82679  0.07856  1.0000
  H   H5681     1.0  0.93085  0.85872  0.08449  1.0000
  H   H5682     1.0  0.91115  0.87615  0.09754  1.0000
  H   H5683     1.0  0.87716  0.87129  0.10646  1.0000
  H   H5684     1.0  0.87205  0.85667  0.08987  1.0000
  H   H5685     1.0  0.87095  0.84524  0.13679  1.0000
  H   H5686     1.0  0.86981  0.82630  0.12233  1.0000
  H   H5687     1.0  0.92699  0.85865  0.12457  1.0000
  H   H5688     1.0  0.89952  0.86257  0.13311  1.0000
  H   H5689     1.0  0.89043  0.88088  0.06857  1.0000
  H   H5690     1.0  0.91299  0.86684  0.05469  1.0000
  H   H5691     1.0  0.83864  0.84860  0.10947  1.0000
  H   H5692     1.0  0.83497  0.84220  0.13718  1.0000
  H   H5693     1.0  0.83974  0.86756  0.12447  1.0000
  H   H5694     1.0  0.91997  0.84947  0.16155  1.0000
  H   H5695     1.0  0.90289  0.83233  0.16083  1.0000
  H   H5696     1.0  0.93046  0.82599  0.15117  1.0000
  H   H5697     1.0  0.91079  0.90686  0.07062  1.0000
  H   H5698     1.0  0.93402  0.89230  0.05765  1.0000
  H   H5699     1.0  0.91257  0.90395  0.04440  1.0000
  H   H5700     1.0  0.72870  0.96429  0.46696  1.0000
  C   C3208     1.0  0.97466  0.87661  0.16053  1.0000
  H   H5701     1.0  0.90701  0.82540  0.36755  1.0000
  C   C3209     1.0  0.71495  0.94769  0.34846  1.0000
  H   H5702     1.0  0.91374  0.93892  0.18333  1.0000
  H   H5703     1.0  0.80374  0.90546  0.29267  1.0000
  H   H5704     1.0  0.77933  0.83998  0.31169  1.0000
  H   H5705     1.0  0.82214  0.88281  0.28683  1.0000
  H   H5706     1.0  0.66132  0.83329  0.35184  1.0000
  C   C3210     1.0  0.60233  0.79258  0.43480  1.0000
  C   C3211     1.0  0.49323  0.81500  0.18705  1.0000
  H   H5707     1.0  0.92867  0.94428  0.21102  1.0000
  H   H5708     1.0  0.51153  0.82847  0.15750  1.0000
  C   C3212     1.0  0.86295  0.94379  0.19366  1.0000
  H   H5709     1.0  0.64697  0.81536  0.34756  1.0000
  H   H5710     1.0  0.97149  0.94590  0.27383  1.0000
  H   H5711     1.0  0.63342  0.89157  0.45228  1.0000
  H   H5712     1.0  0.80112  0.86007  0.31200  1.0000
  C   C3213     1.0  0.91735  0.79404  0.38431  1.0000
  H   H5713     1.0  0.61323  0.81612  0.41057  1.0000
  C   C3214     1.0  0.83429  0.96069  0.01020  1.0000
  C   C3215     1.0  0.92454  0.95813  0.19942  1.0000
  H   H5714     1.0  0.96570  0.78765  0.21596  1.0000
  H   H5715     1.0  0.87605  0.92971  0.14676  1.0000
  N   N177      1.0  0.65516  0.97735  0.38486  1.0000
  H   H5716     1.0  0.63079  0.97003  0.37255  1.0000
  H   H5717     1.0  0.94136  0.81934  0.18515  1.0000
  H   H5718     1.0  0.96005  0.92657  0.09756  1.0000
  H   H5719     1.0  0.65894  0.94101  0.42005  1.0000
  H   H5720     1.0  0.94002  0.94254  0.17360  1.0000
  H   H5721     1.0  0.53634  0.81078  0.22651  1.0000
  C   C3216     1.0  0.61296  0.97130  0.43423  1.0000
  H   H5722     1.0  0.49627  0.84697  0.17273  1.0000
  S   S727      1.0  0.69484  0.94523  0.31738  1.0000
  H   H5723     1.0  0.64729  0.97805  0.31639  1.0000
  H   H5724     1.0  0.87656  0.95049  0.19407  1.0000
  H   H5725     1.0  0.76982  0.80856  0.35138  1.0000
  H   H5726     1.0  0.86495  0.92771  0.20213  1.0000
  S   S728      1.0  0.49101  0.86195  0.23254  1.0000
  H   H5727     1.0  0.96871  0.83815  0.15163  1.0000
  C   C3217     1.0  0.70056  0.96294  0.16731  1.0000
  H   H5728     1.0  0.75433  0.83339  0.32272  1.0000
  C   C3218     1.0  0.67264  0.94537  0.40877  1.0000
  C   C3219     1.0  0.86250  0.78317  0.38567  1.0000
  N   N178      1.0  0.80974  0.93504  0.01166  1.0000
  H   H5729     1.0  0.94068  0.83007  0.34552  1.0000
  C   C3220     1.0  0.79562  0.92148  0.02646  1.0000
  C   C3221     1.0  0.91888  0.81151  0.36510  1.0000
  C   C3222     1.0  0.66629  0.95511  0.38745  1.0000
  C   C3223     1.0  0.76752  0.97344  0.09588  1.0000
  H   H5730     1.0  0.92557  0.79262  0.24821  1.0000
  H   H5731     1.0  0.95529  0.96558  0.18769  1.0000
  C   C3224     1.0  0.78385  0.92908  0.04667  1.0000
  C   C3225     1.0  0.76849  0.91510  0.05866  1.0000
  C   C3226     1.0  0.98234  0.78584  0.98748  1.0000
  H   H5732     1.0  0.75388  0.86466  0.37678  1.0000
  C   C3227     1.0  0.87321  0.96227  0.31878  1.0000
  H   H5733     1.0  0.85179  0.79854  0.35694  1.0000
  C   C3228     1.0  0.82465  0.95051  0.27349  1.0000
  H   H5734     1.0  0.66299  0.96263  0.34679  1.0000
  H   H5735     1.0  0.80468  0.90612  0.03193  1.0000
  H   H5736     1.0  0.83807  0.91233  0.01155  1.0000
  H   H5737     1.0  0.49504  0.81258  0.22880  1.0000
  H   H5738     1.0  0.82973  0.95039  0.20117  1.0000
  H   H5739     1.0  0.65672  0.94472  0.38457  1.0000
  H   H5740     1.0  0.89551  0.94929  0.11890  1.0000
  H   H5741     1.0  0.53740  0.79739  0.38080  1.0000
  H   H5742     1.0  0.82691  0.93560  0.03501  1.0000
  C   C3229     1.0  0.93679  0.79981  0.02935  1.0000
  H   H5743     1.0  0.97892  0.88528  0.98227  1.0000
  C   C3230     1.0  0.90498  0.79605  0.07700  1.0000
  H   H5744     1.0  0.79502  0.92862  0.05684  1.0000
  H   H5745     1.0  0.77519  0.94505  0.04378  1.0000
  H   H5746     1.0  0.77666  0.89890  0.06253  1.0000
  H   H5747     1.0  0.76077  0.92064  0.07325  1.0000
  H   H5748     1.0  0.75643  0.91542  0.04956  1.0000
  H   H5749     1.0  0.94676  0.84369  0.24713  1.0000
  H   H5750     1.0  0.95755  0.84891  0.98196  1.0000
  H   H5751     1.0  0.91190  0.94607  0.05293  1.0000
  H   H5752     1.0  0.78336  0.85520  0.47316  1.0000
  C   C3231     1.0  0.65363  0.97837  0.34645  1.0000
  C   C3232     1.0  0.85235  0.78333  0.36741  1.0000
  H   H5753     1.0  0.67888  0.95603  0.41520  1.0000
  H   H5754     1.0  0.80285  0.96955  0.22048  1.0000
  C   C3233     1.0  0.62236  0.97072  0.41163  1.0000
  N   N179      1.0  0.81074  0.93474  0.37935  1.0000
  C   C3234     1.0  0.80227  0.94443  0.35985  1.0000
  C   C3235     1.0  0.81684  0.95134  0.38758  1.0000
  C   C3236     1.0  0.83028  0.91952  0.37368  1.0000
  C   C3237     1.0  0.79578  0.92337  0.39554  1.0000
  C   C3238     1.0  0.77225  0.93180  0.39606  1.0000
  C   C3239     1.0  0.79913  0.92891  0.34723  1.0000
  C   C3240     1.0  0.84328  0.91005  0.39096  1.0000
  C   C3241     1.0  0.81883  0.94674  0.02329  1.0000
  H   H5755     1.0  0.68337  0.91413  0.40198  1.0000
  C   C3242     1.0  0.75941  0.92192  0.41582  1.0000
  C   C3243     1.0  0.78528  0.93955  0.33139  1.0000
  C   C3244     1.0  0.85907  0.89105  0.38569  1.0000
  H   H5756     1.0  0.81289  0.95448  0.34940  1.0000
  H   H5757     1.0  0.78737  0.95515  0.36295  1.0000
  H   H5758     1.0  0.82378  0.94460  0.40161  1.0000
  H   H5759     1.0  0.82909  0.95840  0.37604  1.0000
  H   H5760     1.0  0.84074  0.92697  0.36028  1.0000
  H   H5761     1.0  0.82649  0.90625  0.36861  1.0000
  H   H5762     1.0  0.79807  0.90682  0.39390  1.0000
  H   H5763     1.0  0.79916  0.92271  0.41113  1.0000
  H   H5764     1.0  0.76718  0.92810  0.38289  1.0000
  H   H5765     1.0  0.76827  0.94879  0.39509  1.0000
  H   H5766     1.0  0.81435  0.92224  0.33881  1.0000
  H   H5767     1.0  0.79219  0.91587  0.35728  1.0000
  H   H5768     1.0  0.83330  0.90530  0.40587  1.0000
  H   H5769     1.0  0.85206  0.92157  0.39292  1.0000
  C   C3245     1.0  0.77645  0.97154  0.07557  1.0000
  H   H5770     1.0  0.70350  0.92959  0.39721  1.0000
  H   H5771     1.0  0.68952  0.80137  0.44052  1.0000
  C   C3246     1.0  0.84256  0.95561  0.22651  1.0000
  H   H5772     1.0  0.88316  0.80244  0.36635  1.0000
  H   H5773     1.0  0.76279  0.92653  0.42943  1.0000
  H   H5774     1.0  0.74265  0.92713  0.41528  1.0000
  H   H5775     1.0  0.76301  0.90476  0.41762  1.0000
  H   H5776     1.0  0.79023  0.95415  0.32262  1.0000
  H   H5777     1.0  0.78623  0.92932  0.32025  1.0000
  H   H5778     1.0  0.76896  0.94308  0.33918  1.0000
  H   H5779     1.0  0.86915  0.88562  0.39753  1.0000
  H   H5780     1.0  0.85097  0.87834  0.38548  1.0000
  N   N180      1.0  0.75846  0.87383  0.33195  1.0000
  C   C3247     1.0  0.74607  0.87590  0.31516  1.0000
  C   C3248     1.0  0.76464  0.85123  0.34104  1.0000
  C   C3249     1.0  0.74456  0.88466  0.34868  1.0000
  C   C3250     1.0  0.77724  0.88413  0.32440  1.0000
  C   C3251     1.0  0.79339  0.87605  0.30657  1.0000
  C   C3252     1.0  0.73649  0.89827  0.30607  1.0000
  C   C3253     1.0  0.75262  0.88115  0.36928  1.0000
  C   C3254     1.0  0.76914  0.83524  0.32638  1.0000
  C   C3255     1.0  0.77940  0.81399  0.33642  1.0000
  C   C3256     1.0  0.81035  0.88934  0.29913  1.0000
  C   C3257     1.0  0.72659  0.89848  0.28764  1.0000
  C   C3258     1.0  0.73783  0.89390  0.38435  1.0000
  H   H5781     1.0  0.73297  0.86720  0.32118  1.0000
  H   H5782     1.0  0.75542  0.86861  0.30211  1.0000
  H   H5783     1.0  0.77821  0.84910  0.34878  1.0000
  H   H5784     1.0  0.75206  0.84600  0.35339  1.0000
  C   C3259     1.0  0.72649  0.95741  0.35747  1.0000
  H   H5785     1.0  0.96850  0.83980  0.21449  1.0000
  H   H5786     1.0  0.62701  0.95427  0.40973  1.0000
  H   H5787     1.0  0.51235  0.83635  0.20439  1.0000
  H   H5788     1.0  0.54036  0.84768  0.21601  1.0000
  H   H5789     1.0  0.80404  0.95148  0.24353  1.0000
  H   H5790     1.0  0.98053  0.80228  0.18620  1.0000
  H   H5791     1.0  0.82697  0.97238  0.99837  1.0000
  C   C3260     1.0  0.79846  0.94939  0.99554  1.0000
  H   H5792     1.0  0.95610  0.97762  0.25249  1.0000
  H   H5793     1.0  0.94304  0.90461  0.98779  1.0000
  H   H5794     1.0  0.74604  0.79354  0.39254  1.0000
  C   C3261     1.0  0.69951  0.97242  0.14481  1.0000
  H   H5795     1.0  0.88536  0.84728  0.23210  1.0000
  C   C3262     1.0  0.92494  0.94575  0.07977  1.0000
  C   C3263     1.0  0.74287  0.96140  0.47390  1.0000
  H   H5796     1.0  0.92879  0.92144  0.11749  1.0000
  H   H5797     1.0  0.89727  0.91116  0.13674  1.0000
  C   C3264     1.0  0.84161  0.97230  0.02367  1.0000
  H   H5798     1.0  0.71664  0.95496  0.16867  1.0000
  H   H5799     1.0  0.66820  0.97032  0.14337  1.0000
  C   C3265     1.0  0.90363  0.94253  0.13208  1.0000
  H   H5800     1.0  0.93983  0.93651  0.07346  1.0000
  H   H5801     1.0  0.96730  0.81116  0.15378  1.0000
  H   H5802     1.0  0.92242  0.97582  0.12756  1.0000
  H   H5803     1.0  0.92601  0.79703  0.39529  1.0000
  H   H5804     1.0  0.91018  0.81023  0.21227  1.0000
  H   H5805     1.0  0.52948  0.82983  0.18222  1.0000
  C   C3266     1.0  0.91432  0.95733  0.06169  1.0000
  H   H5806     1.0  0.68032  0.95356  0.37544  1.0000
  C   C3267     1.0  0.89546  0.82175  0.41297  1.0000
  H   H5807     1.0  0.87104  0.82868  0.43889  1.0000
  H   H5808     1.0  0.96755  0.92356  0.13391  1.0000
  H   H5809     1.0  0.55743  0.79372  0.32453  1.0000
  N   N181      1.0  0.93868  0.95121  0.11091  1.0000
  H   H5810     1.0  0.65732  0.85519  0.45258  1.0000
  C   C3268     1.0  0.79930  0.96903  0.39403  1.0000
  H   H5811     1.0  0.59938  0.96329  0.43865  1.0000
  H   H5812     1.0  0.90172  0.80317  0.06139  1.0000
  H   H5813     1.0  0.82745  0.93457  0.30439  1.0000
  Fe  Fe364     1.0  0.98169  0.84833  0.06820  1.0000
  C   C3269     1.0  0.94937  0.79544  0.21987  1.0000
  H   H5814     1.0  0.94746  0.88408  0.00921  1.0000
  H   H5815     1.0  0.82824  0.98146  0.03254  1.0000
  C   C3270     1.0  0.61671  0.80838  0.42597  1.0000
  H   H5816     1.0  0.97442  0.80772  0.05243  1.0000
  H   H5817     1.0  0.91861  0.96349  0.16819  1.0000
  S   S729      1.0  0.80347  0.79986  0.40875  1.0000
  H   H5818     1.0  0.93834  0.97154  0.08143  1.0000
  H   H5819     1.0  0.94530  0.94478  0.27224  1.0000
  H   H5820     1.0  0.57932  0.78353  0.29317  1.0000
  C   C3271     1.0  0.97435  0.81881  0.18103  1.0000
  H   H5821     1.0  0.91362  0.97126  0.09683  1.0000
  C   C3272     1.0  0.97755  0.80909  0.97929  1.0000
  C   C3273     1.0  0.83032  0.97011  0.25813  1.0000
  N   N182      1.0  0.82667  0.97176  0.23652  1.0000
  H   H5822     1.0  0.85982  0.97255  0.14113  1.0000
  H   H5823     1.0  0.97774  0.96344  0.23773  1.0000
  H   H5824     1.0  0.70328  0.98159  0.10528  1.0000
  C   C3274     1.0  0.80539  0.96784  0.23654  1.0000
  C   C3275     1.0  0.50801  0.78414  0.36970  1.0000
  C   C3276     1.0  0.73473  0.97495  0.34643  1.0000
  H   H5825     1.0  0.60997  0.97799  0.40241  1.0000
  H   H5826     1.0  0.95253  0.80449  0.35657  1.0000
  C   C3277     1.0  0.82153  0.90486  0.99073  1.0000
  H   H5827     1.0  0.66640  0.80031  0.37622  1.0000
  C   C3278     1.0  0.64194  0.98101  0.36843  1.0000
  H   H5828     1.0  0.62699  0.97105  0.33729  1.0000
  C   C3279     1.0  0.68532  0.78908  0.43433  1.0000
  H   H5829     1.0  0.76563  0.97217  0.97673  1.0000
  H   H5830     1.0  0.85257  0.79471  0.39476  1.0000
  H   H5831     1.0  0.92398  0.96809  0.05115  1.0000
  H   H5832     1.0  0.85071  0.96118  0.03457  1.0000
  N   N183      1.0  0.94302  0.98086  0.21399  1.0000
  H   H5833     1.0  0.97531  0.98190  0.20191  1.0000
  C   C3280     1.0  0.64091  0.98254  0.40429  1.0000
  H   H5834     1.0  0.98847  0.87301  0.18742  1.0000
  C   C3281     1.0  0.78706  0.98247  0.24733  1.0000
  C   C3282     1.0  0.73146  0.98257  0.32622  1.0000
  H   H5835     1.0  0.73709  0.88733  0.80004  1.0000
  C   C3283     1.0  0.62542  0.84033  0.74464  1.0000
  H   H5836     1.0  0.59264  0.84129  0.75044  1.0000
  H   H5837     1.0  0.78515  0.78845  0.54243  1.0000
  H   H5838     1.0  0.82137  0.78973  0.52363  1.0000
  S   S730      1.0  0.62143  0.81127  0.80292  1.0000
  H   H5839     1.0  0.72397  0.83434  0.88720  1.0000
  Fe  Fe365     1.0  0.67240  0.95124  0.80634  1.0000
  S   S731      1.0  0.64702  0.94418  0.83290  1.0000
  S   S732      1.0  0.70256  0.96093  0.80866  1.0000
  Fe  Fe366     1.0  0.64733  0.94435  0.77567  1.0000
  S   S733      1.0  0.62012  0.93781  0.80009  1.0000
  S   S734      1.0  0.64399  0.94682  0.74274  1.0000
  Fe  Fe367     1.0  0.62553  0.96430  0.81244  1.0000
  H   H5840     1.0  0.59110  0.90215  0.75600  1.0000
  Fe  Fe368     1.0  0.64428  0.91804  0.81782  1.0000
  S   S735      1.0  0.64023  0.88624  0.83699  1.0000
  C   C3284     1.0  0.48858  0.83333  0.85093  1.0000
  S   S736      1.0  0.67149  0.92346  0.79257  1.0000
  Fe  Fe369     1.0  0.60354  0.87782  0.68619  1.0000
  S   S737      1.0  0.57047  0.89004  0.69825  1.0000
  S   S738      1.0  0.63168  0.87788  0.69920  1.0000
  Fe  Fe370     1.0  0.59240  0.85639  0.65509  1.0000
  S   S739      1.0  0.55815  0.86608  0.66530  1.0000
  S   S740      1.0  0.61062  0.84069  0.62851  1.0000
  Fe  Fe371     1.0  0.56642  0.89679  0.66526  1.0000
  S   S741      1.0  0.54619  0.92489  0.65103  1.0000
  Fe  Fe372     1.0  0.56512  0.85846  0.69737  1.0000
  S   S742      1.0  0.54823  0.84387  0.72734  1.0000
  S   S743      1.0  0.60018  0.88775  0.65307  1.0000
  S   S744      1.0  0.59851  0.84567  0.68745  1.0000
  Fe  Fe373     1.0  0.59512  0.80260  0.53430  1.0000
  S   S745      1.0  0.57631  0.80268  0.56650  1.0000
  Fe  Fe374     1.0  0.59759  0.82337  0.48941  1.0000
  H   H5841     1.0  0.55740  0.97800  0.59013  1.0000
  H   H5842     1.0  0.61543  0.81586  0.56426  1.0000
  H   H5843     1.0  0.85757  0.79705  0.64986  1.0000
  S   S746      1.0  0.60779  0.83066  0.51616  1.0000
  Fe  Fe375     1.0  0.78068  0.84482  0.58063  1.0000
  S   S747      1.0  0.76888  0.87897  0.57828  1.0000
  S   S748      1.0  0.81255  0.82799  0.58677  1.0000
  Fe  Fe376     1.0  0.74062  0.83646  0.57096  1.0000
  S   S749      1.0  0.72586  0.86991  0.56778  1.0000
  S   S750      1.0  0.72313  0.81113  0.57078  1.0000
  Fe  Fe377     1.0  0.75700  0.87597  0.55058  1.0000
  S   S751      1.0  0.75873  0.90191  0.52359  1.0000
  Fe  Fe378     1.0  0.73885  0.86988  0.59559  1.0000
  S   S752      1.0  0.71739  0.88429  0.62105  1.0000
  S   S753      1.0  0.77104  0.84242  0.55128  1.0000
  S   S754      1.0  0.75143  0.83583  0.60041  1.0000
  Fe  Fe379     1.0  0.90085  0.83015  0.64481  1.0000
  S   S755      1.0  0.90896  0.80374  0.67032  1.0000
  S   S756      1.0  0.86759  0.84702  0.64415  1.0000
  Fe  Fe380     1.0  0.94550  0.82660  0.62260  1.0000
  S   S757      1.0  0.95674  0.79939  0.64545  1.0000
  S   S758      1.0  0.96699  0.84161  0.59602  1.0000
  C   C3285     1.0  0.56463  0.98141  0.69914  1.0000
  Fe  Fe381     1.0  0.93724  0.81760  0.66935  1.0000
  S   S759      1.0  0.95210  0.81568  0.69760  1.0000
  S   S760      1.0  0.91851  0.81369  0.61909  1.0000
  S   S761      1.0  0.92725  0.84557  0.64630  1.0000
  H   H5844     1.0  0.69039  0.84721  0.51136  1.0000
  C   C3286     1.0  0.96548  0.83350  0.70330  1.0000
  C   C3287     1.0  0.96219  0.85462  0.69485  1.0000
  C   C3288     1.0  0.97176  0.86844  0.70116  1.0000
  H   H5845     1.0  0.73991  0.94698  0.63163  1.0000
  H   H5846     1.0  0.64775  0.93218  0.87887  1.0000
  C   C3289     1.0  0.98516  0.86135  0.71563  1.0000
  H   H5847     1.0  0.95181  0.86040  0.68384  1.0000
  H   H5848     1.0  0.85239  0.79391  0.50235  1.0000
  H   H5849     1.0  0.71200  0.78766  0.64396  1.0000
  C   C3290     1.0  0.56136  0.84295  0.78852  1.0000
  C   C3291     1.0  0.71069  0.91121  0.61400  1.0000
  C   C3292     1.0  0.72548  0.92274  0.60219  1.0000
  C   C3293     1.0  0.82895  0.78930  0.66905  1.0000
  H   H5850     1.0  0.74108  0.91508  0.59715  1.0000
  H   H5851     1.0  0.83612  0.88086  0.97260  1.0000
  C   C3294     1.0  0.82815  0.83498  0.60134  1.0000
  C   C3295     1.0  0.82116  0.85134  0.61232  1.0000
  C   C3296     1.0  0.83350  0.85507  0.62517  1.0000
  C   C3297     1.0  0.85309  0.84279  0.62679  1.0000
  C   C3298     1.0  0.86027  0.82687  0.61526  1.0000
  C   C3299     1.0  0.84778  0.82289  0.60280  1.0000
  H   H5852     1.0  0.80620  0.86096  0.61111  1.0000
  H   H5853     1.0  0.82787  0.86753  0.63389  1.0000
  H   H5854     1.0  0.87523  0.81724  0.61635  1.0000
  H   H5855     1.0  0.85325  0.81015  0.59448  1.0000
  C   C3300     1.0  0.77171  0.89494  0.50001  1.0000
  H   H5856     1.0  0.50911  0.86370  0.68032  1.0000
  C   C3301     1.0  0.77285  0.87513  0.49587  1.0000
  H   H5857     1.0  0.57234  0.93799  0.74702  1.0000
  H   H5858     1.0  0.76599  0.86362  0.50752  1.0000
  H   H5859     1.0  0.98143  0.81017  0.72459  1.0000
  C   C3302     1.0  0.85778  0.78655  0.55333  1.0000
  H   H5860     1.0  0.61932  0.93228  0.57833  1.0000
  H   H5861     1.0  0.97112  0.84715  0.55242  1.0000
  H   H5862     1.0  0.58276  0.79317  0.66996  1.0000
  C   C3303     1.0  0.73502  0.96951  0.53944  1.0000
  C   C3304     1.0  0.69054  0.83438  0.52415  1.0000
  C   C3305     1.0  0.70321  0.83282  0.53874  1.0000
  C   C3306     1.0  0.70479  0.81545  0.55435  1.0000
  H   H5863     1.0  0.94023  0.78467  0.54246  1.0000
  H   H5864     1.0  0.54638  0.82853  0.77129  1.0000
  C   C3307     1.0  0.51436  0.80104  0.83273  1.0000
  H   H5865     1.0  0.71264  0.84446  0.53719  1.0000
  H   H5866     1.0  0.52862  0.84310  0.78966  1.0000
  H   H5867     1.0  0.61209  0.87119  0.76655  1.0000
  H   H5868     1.0  0.53074  0.83089  0.69708  1.0000
  C   C3308     1.0  0.60038  0.83056  0.61147  1.0000
  C   C3309     1.0  0.58043  0.82574  0.61631  1.0000
  C   C3310     1.0  0.57315  0.81728  0.60240  1.0000
  C   C3311     1.0  0.58566  0.81375  0.58350  1.0000
  C   C3312     1.0  0.60558  0.81864  0.57868  1.0000
  C   C3313     1.0  0.61294  0.82683  0.59268  1.0000
  H   H5869     1.0  0.57068  0.82834  0.63081  1.0000
  H   H5870     1.0  0.55775  0.81349  0.60626  1.0000
  H   H5871     1.0  0.67049  0.79032  0.54304  1.0000
  H   H5872     1.0  0.62848  0.83028  0.58889  1.0000
  C   C3314     1.0  0.98072  0.83258  0.55750  1.0000
  H   H5873     1.0  0.49831  0.81678  0.70108  1.0000
  C   C3315     1.0  0.65372  0.81005  0.65558  1.0000
  H   H5874     1.0  0.57608  0.83200  0.78534  1.0000
  Fe  Fe382     1.0  0.92776  0.78808  0.64443  1.0000
  H   H5875     1.0  0.81887  0.78624  0.62394  1.0000
  C   C3316     1.0  0.87905  0.79282  0.55203  1.0000
  H   H5876     1.0  0.58341  0.93904  0.65338  1.0000
  H   H5877     1.0  0.62767  0.83350  0.73057  1.0000
  H   H5878     1.0  0.58636  0.91040  0.78824  1.0000
  H   H5879     1.0  0.56182  0.92788  0.72944  1.0000
  H   H5880     1.0  0.60097  0.86429  0.73509  1.0000
  H   H5881     1.0  0.67916  0.91244  0.62997  1.0000
  H   H5882     1.0  0.68918  0.90766  0.56125  1.0000
  C   C3317     1.0  0.59005  0.89476  0.79750  1.0000
  H   H5883     1.0  0.69144  0.97705  0.69424  1.0000
  H   H5884     1.0  0.57557  0.93570  0.57520  1.0000
  H   H5885     1.0  0.57431  0.91006  0.60498  1.0000
  H   H5886     1.0  0.52315  0.79983  0.77844  1.0000
  C   C3318     1.0  0.63706  0.92570  0.73582  1.0000
  C   C3319     1.0  0.65059  0.90670  0.73668  1.0000
  C   C3320     1.0  0.64826  0.89183  0.72599  1.0000
  C   C3321     1.0  0.63199  0.89555  0.71494  1.0000
  C   C3322     1.0  0.61744  0.91385  0.71541  1.0000
  C   C3323     1.0  0.62016  0.92904  0.72561  1.0000
  H   H5887     1.0  0.66365  0.90395  0.74449  1.0000
  H   H5888     1.0  0.65953  0.87767  0.72573  1.0000
  H   H5889     1.0  0.60490  0.91679  0.70689  1.0000
  H   H5890     1.0  0.60983  0.94383  0.72469  1.0000
  C   C3324     1.0  0.62661  0.83183  0.81292  1.0000
  C   C3325     1.0  0.63721  0.84683  0.79947  1.0000
  C   C3326     1.0  0.64111  0.86372  0.80650  1.0000
  C   C3327     1.0  0.63489  0.86562  0.82724  1.0000
  C   C3328     1.0  0.62469  0.85041  0.84079  1.0000
  C   C3329     1.0  0.62031  0.83378  0.83365  1.0000
  H   H5891     1.0  0.64238  0.84542  0.78346  1.0000
  H   H5892     1.0  0.64916  0.87515  0.79590  1.0000
  H   H5893     1.0  0.61990  0.85161  0.85688  1.0000
  H   H5894     1.0  0.61220  0.82239  0.84423  1.0000
  C   C3330     1.0  0.51644  0.80356  0.85219  1.0000
  H   H5895     1.0  0.71717  0.90955  0.79461  1.0000
  H   H5896     1.0  0.65021  0.81059  0.64017  1.0000
  H   H5897     1.0  0.60667  0.88864  0.79267  1.0000
  H   H5898     1.0  0.61672  0.93323  0.54550  1.0000
  H   H5899     1.0  0.96891  0.93552  0.74425  1.0000
  C   C3331     1.0  0.67894  0.81892  0.52539  1.0000
  C   C3332     1.0  0.78130  0.82159  0.64610  1.0000
  C   C3333     1.0  0.81444  0.80669  0.65731  1.0000
  H   H5900     1.0  0.67450  0.95847  0.65185  1.0000
  C   C3334     1.0  0.77746  0.84248  0.65398  1.0000
  H   H5901     1.0  0.64141  0.94371  0.65059  1.0000
  C   C3335     1.0  0.76285  0.85907  0.64211  1.0000
  H   H5902     1.0  0.76002  0.82923  0.49917  1.0000
  H   H5903     1.0  0.92591  0.82450  0.76021  1.0000
  H   H5904     1.0  0.93031  0.88573  0.83743  1.0000
  H   H5905     1.0  0.76601  0.81844  0.64482  1.0000
  H   H5906     1.0  0.78992  0.82459  0.63009  1.0000
  H   H5907     1.0  0.82216  0.80985  0.64099  1.0000
  H   H5908     1.0  0.81406  0.82092  0.66338  1.0000
  C   C3336     1.0  0.98253  0.89439  0.57830  1.0000
  H   H5909     1.0  0.58022  0.86537  0.80595  1.0000
  H   H5910     1.0  0.79221  0.84825  0.65181  1.0000
  H   H5911     1.0  0.77040  0.84111  0.67050  1.0000
  C   C3337     1.0  0.57634  0.87996  0.79495  1.0000
  C   C3338     1.0  0.57735  0.89473  0.75765  1.0000
  H   H5912     1.0  0.74740  0.85453  0.64466  1.0000
  H   H5913     1.0  0.76083  0.87403  0.64745  1.0000
  H   H5914     1.0  0.76921  0.86142  0.62537  1.0000
  H   H5915     1.0  0.70872  0.96133  0.50378  1.0000
  H   H5916     1.0  0.81533  0.85681  0.53087  1.0000
  H   H5917     1.0  0.92230  0.85377  0.81489  1.0000
  H   H5918     1.0  0.54476  0.94257  0.74780  1.0000
  C   C3339     1.0  0.69058  0.92132  0.62071  1.0000
  H   H5919     1.0  0.55457  0.91533  0.77666  1.0000
  C   C3340     1.0  0.55927  0.93110  0.74534  1.0000
  H   H5920     1.0  0.80696  0.78723  0.47844  1.0000
  C   C3341     1.0  0.60331  0.85229  0.74883  1.0000
  C   C3342     1.0  0.72615  0.94076  0.87562  1.0000
  C   C3343     1.0  0.71618  0.79818  0.62923  1.0000
  H   H5921     1.0  0.70188  0.82398  0.60921  1.0000
  C   C3344     1.0  0.79265  0.78414  0.64996  1.0000
  H   H5922     1.0  0.57810  0.89098  0.74224  1.0000
  H   H5923     1.0  0.83678  0.82706  0.50067  1.0000
  C   C3345     1.0  0.55748  0.91122  0.76113  1.0000
  H   H5924     1.0  0.96870  0.88478  0.69480  1.0000
  H   H5925     1.0  0.59745  0.90644  0.82225  1.0000
  C   C3346     1.0  0.74180  0.93497  0.64555  1.0000
  C   C3347     1.0  0.58654  0.89719  0.82006  1.0000
  H   H5926     1.0  0.72642  0.86930  0.89280  1.0000
  H   H5927     1.0  0.62343  0.89305  0.61135  1.0000
  H   H5928     1.0  0.58926  0.88186  0.83020  1.0000
  N   N184      1.0  0.60019  0.90940  0.57955  1.0000
  C   C3348     1.0  0.58744  0.92547  0.56578  1.0000
  C   C3349     1.0  0.58559  0.89850  0.59661  1.0000
  C   C3350     1.0  0.61588  0.89408  0.56816  1.0000
  C   C3351     1.0  0.61001  0.88835  0.54931  1.0000
  C   C3352     1.0  0.59979  0.93913  0.54773  1.0000
  C   C3353     1.0  0.57310  0.88467  0.59034  1.0000
  C   C3354     1.0  0.55703  0.87709  0.60849  1.0000
  C   C3355     1.0  0.62561  0.87013  0.54182  1.0000
  C   C3356     1.0  0.59577  0.96182  0.55031  1.0000
  H   H5929     1.0  0.57809  0.91820  0.55864  1.0000
  H   H5930     1.0  0.63066  0.90005  0.56204  1.0000
  H   H5931     1.0  0.61991  0.87945  0.57908  1.0000
  H   H5932     1.0  0.61017  0.90158  0.53629  1.0000
  H   H5933     1.0  0.59443  0.88417  0.55263  1.0000
  H   H5934     1.0  0.59487  0.93879  0.53312  1.0000
  H   H5935     1.0  0.56459  0.89299  0.57780  1.0000
  H   H5936     1.0  0.58366  0.87074  0.58548  1.0000
  H   H5937     1.0  0.54858  0.86685  0.60378  1.0000
  H   H5938     1.0  0.56480  0.86809  0.62135  1.0000
  H   H5939     1.0  0.64159  0.87359  0.53801  1.0000
  H   H5940     1.0  0.62515  0.85592  0.55374  1.0000
  H   H5941     1.0  0.62172  0.86700  0.52774  1.0000
  H   H5942     1.0  0.84925  0.80954  0.67209  1.0000
  C   C3357     1.0  0.58500  0.79344  0.75297  1.0000
  H   H5943     1.0  0.60050  0.96333  0.56458  1.0000
  H   H5944     1.0  0.57906  0.96858  0.55095  1.0000
  H   H5945     1.0  0.97172  0.90025  0.59155  1.0000
  H   H5946     1.0  0.63897  0.91272  0.89981  1.0000
  H   H5947     1.0  0.69191  0.89209  0.82285  1.0000
  C   C3358     1.0  0.49461  0.88096  0.77656  1.0000
  H   H5948     1.0  0.77927  0.93613  0.55373  1.0000
  H   H5949     1.0  0.72108  0.82060  0.48771  1.0000
  H   H5950     1.0  0.73782  0.97961  0.80703  1.0000
  C   C3359     1.0  0.84215  0.81838  0.53274  1.0000
  H   H5951     1.0  0.57128  0.79695  0.76496  1.0000
  C   C3360     1.0  0.60423  0.79184  0.76227  1.0000
  H   H5952     1.0  0.58748  0.96919  0.67449  1.0000
  H   H5953     1.0  0.50755  0.78661  0.76849  1.0000
  H   H5954     1.0  0.96242  0.82928  0.77338  1.0000
  C   C3361     1.0  0.69241  0.80050  0.55621  1.0000
  H   H5955     1.0  0.75702  0.78837  0.71848  1.0000
  H   H5956     1.0  0.82280  0.78714  0.68578  1.0000
  H   H5957     1.0  0.72079  0.78894  0.61664  1.0000
  H   H5958     1.0  0.56257  0.97915  0.71620  1.0000
  H   H5959     1.0  0.57114  0.80254  0.71435  1.0000
  H   H5960     1.0  0.91926  0.86285  0.84889  1.0000
  S   S762      1.0  0.53395  0.78592  0.86618  1.0000
  C   C3362     1.0  0.72279  0.96075  0.51031  1.0000
  H   H5961     1.0  0.56480  0.81510  0.67861  1.0000
  H   H5962     1.0  0.85658  0.82508  0.52885  1.0000
  C   C3363     1.0  0.98116  0.82572  0.57846  1.0000
  C   C3364     1.0  0.93193  0.86470  0.81631  1.0000
  H   H5963     1.0  0.49072  0.92157  0.69504  1.0000
  C   C3365     1.0  0.74592  0.83371  0.49200  1.0000
  H   H5964     1.0  0.87684  0.80949  0.55297  1.0000
  H   H5965     1.0  0.58784  0.97671  0.79224  1.0000
  H   H5966     1.0  0.66873  0.89173  0.67451  1.0000
  H   H5967     1.0  0.50013  0.88498  0.71323  1.0000
  H   H5968     1.0  0.70131  0.95922  0.56122  1.0000
  C   C3366     1.0  0.85035  0.79496  0.66632  1.0000
  C   C3367     1.0  0.52025  0.78449  0.77732  1.0000
  H   H5969     1.0  0.63682  0.78497  0.66977  1.0000
  S   S763      1.0  0.58168  0.79760  0.50818  1.0000
  H   H5970     1.0  0.54689  0.79925  0.74507  1.0000
  H   H5971     1.0  0.80593  0.80851  0.55444  1.0000
  H   H5972     1.0  0.69343  0.78710  0.56836  1.0000
  C   C3368     1.0  0.56311  0.96956  0.60392  1.0000
  C   C3369     1.0  0.50184  0.82188  0.71387  1.0000
  C   C3370     1.0  0.78254  0.87042  0.47639  1.0000
  H   H5973     1.0  0.57048  0.90517  0.82493  1.0000
  N   N185      1.0  0.68821  0.95288  0.67919  1.0000
  C   C3371     1.0  0.70705  0.97759  0.82411  1.0000
  C   C3372     1.0  0.68980  0.93619  0.69801  1.0000
  H   H5974     1.0  0.69500  0.82086  0.65605  1.0000
  C   C3373     1.0  0.67371  0.94826  0.66720  1.0000
  C   C3374     1.0  0.65050  0.95047  0.67740  1.0000
  H   H5975     1.0  0.68834  0.87827  0.68942  1.0000
  H   H5976     1.0  0.72985  0.97440  0.55472  1.0000
  C   C3375     1.0  0.70654  0.93655  0.71059  1.0000
  C   C3376     1.0  0.70587  0.91969  0.72979  1.0000
  C   C3377     1.0  0.63870  0.93916  0.66757  1.0000
  H   H5977     1.0  0.68501  0.96447  0.54266  1.0000
  H   H5978     1.0  0.78686  0.81072  0.68928  1.0000
  H   H5979     1.0  0.83898  0.85936  0.51242  1.0000
  H   H5980     1.0  0.74418  0.98128  0.52985  1.0000
  H   H5981     1.0  0.67490  0.93727  0.70892  1.0000
  H   H5982     1.0  0.69237  0.92052  0.69392  1.0000
  H   H5983     1.0  0.62108  0.81027  0.66848  1.0000
  Fe  Fe383     1.0  0.60326  0.78558  0.82014  1.0000
  H   H5984     1.0  0.54317  0.79063  0.70264  1.0000
  H   H5985     1.0  0.67871  0.93218  0.66402  1.0000
  H   H5986     1.0  0.64306  0.96702  0.67576  1.0000
  H   H5987     1.0  0.64850  0.94402  0.69396  1.0000
  H   H5988     1.0  0.90363  0.84423  0.75494  1.0000
  C   C3378     1.0  0.67937  0.80231  0.54190  1.0000
  N   N186      1.0  0.79274  0.80302  0.65871  1.0000
  H   H5989     1.0  0.72356  0.92035  0.67251  1.0000
  H   H5990     1.0  0.72234  0.93399  0.70137  1.0000
  H   H5991     1.0  0.70406  0.95152  0.71596  1.0000
  H   H5992     1.0  0.69105  0.92295  0.74059  1.0000
  H   H5993     1.0  0.70745  0.90421  0.72565  1.0000
  H   H5994     1.0  0.71874  0.91945  0.73783  1.0000
  H   H5995     1.0  0.62186  0.94290  0.67345  1.0000
  H   H5996     1.0  0.49720  0.81232  0.80772  1.0000
  H   H5997     1.0  0.72962  0.80495  0.63003  1.0000
  H   H5998     1.0  0.98163  0.89047  0.64626  1.0000
  H   H5999     1.0  0.97400  0.88632  0.57097  1.0000
  C   C3379     1.0  0.72076  0.93257  0.65903  1.0000
  C   C3380     1.0  0.58063  0.97413  0.60887  1.0000
  C   C3381     1.0  0.68521  0.94293  0.61527  1.0000
  C   C3382     1.0  0.57775  0.94753  0.63958  1.0000
  C   C3383     1.0  0.68787  0.92417  0.56234  1.0000
  H   H6000     1.0  0.97373  0.86684  0.78538  1.0000
  S   S764      1.0  0.65096  0.97248  0.78654  1.0000
  C   C3384     1.0  0.96499  0.86055  0.77655  1.0000
  H   H6001     1.0  0.64638  0.90923  0.62391  1.0000
  H   H6002     1.0  0.76421  0.95760  0.56544  1.0000
  H   H6003     1.0  0.64100  0.93303  0.60600  1.0000
  H   H6004     1.0  0.72993  0.81047  0.51170  1.0000
  C   C3385     1.0  0.49250  0.88956  0.75409  1.0000
  H   H6005     1.0  0.76496  0.79496  0.48971  1.0000
  C   C3386     1.0  0.70112  0.95762  0.54522  1.0000
  C   C3387     1.0  0.55983  0.78509  0.69725  1.0000
  H   H6006     1.0  0.65950  0.82910  0.67446  1.0000
  C   C3388     1.0  0.95931  0.92468  0.74244  1.0000
  H   H6007     1.0  0.96463  0.88314  0.96333  1.0000
  C   C3389     1.0  0.78051  0.90984  0.48488  1.0000
  C   C3390     1.0  0.58496  0.96780  0.69149  1.0000
  H   H6008     1.0  0.50633  0.88210  0.74430  1.0000
  H   H6009     1.0  0.49937  0.91756  0.71893  1.0000
  H   H6010     1.0  0.58438  0.95138  0.69852  1.0000
  C   C3391     1.0  0.86131  0.78987  0.51524  1.0000
  C   C3392     1.0  0.68022  0.97348  0.68616  1.0000
  C   C3393     1.0  0.69769  0.81520  0.62490  1.0000
  H   H6011     1.0  0.55175  0.97588  0.69527  1.0000
  H   H6012     1.0  0.75198  0.93934  0.65428  1.0000
  H   H6013     1.0  0.70420  0.84024  0.63604  1.0000
  C   C3394     1.0  0.49271  0.82714  0.74922  1.0000
  C   C3395     1.0  0.66253  0.84943  0.62312  1.0000
  H   H6014     1.0  0.90464  0.78549  0.56891  1.0000
  C   C3396     1.0  0.67115  0.86261  0.65057  1.0000
  H   H6015     1.0  0.50929  0.88382  0.77949  1.0000
  H   H6016     1.0  0.81506  0.86106  0.50369  1.0000
  C   C3397     1.0  0.67532  0.86287  0.60540  1.0000
  H   H6017     1.0  0.95042  0.91572  0.77477  1.0000
  C   C3398     1.0  0.96660  0.83687  0.78461  1.0000
  H   H6018     1.0  0.64363  0.92216  0.67157  1.0000
  C   C3399     1.0  0.67166  0.86090  0.58437  1.0000
  H   H6019     1.0  0.71181  0.92698  0.65004  1.0000
  H   H6020     1.0  0.64654  0.85854  0.62572  1.0000
  H   H6021     1.0  0.66069  0.83578  0.61736  1.0000
  C   C3400     1.0  0.82431  0.85316  0.51584  1.0000
  H   H6022     1.0  0.81354  0.82463  0.51940  1.0000
  H   H6023     1.0  0.65519  0.87178  0.65351  1.0000
  H   H6024     1.0  0.68005  0.87284  0.63851  1.0000
  C   C3401     1.0  0.80241  0.78435  0.62695  1.0000
  C   C3402     1.0  0.68083  0.85975  0.67022  1.0000
  H   H6025     1.0  0.51160  0.89071  0.67587  1.0000
  H   H6026     1.0  0.71938  0.95961  0.67263  1.0000
  H   H6027     1.0  0.67065  0.87941  0.60703  1.0000
  H   H6028     1.0  0.69216  0.85867  0.60559  1.0000
  H   H6029     1.0  0.78000  0.92502  0.48819  1.0000
  H   H6030     1.0  0.83429  0.82299  0.54770  1.0000
  C   C3403     1.0  0.65551  0.83170  0.65890  1.0000
  H   H6031     1.0  0.95252  0.78386  0.56414  1.0000
  C   C3404     1.0  0.97888  0.82641  0.71779  1.0000
  N   N187      1.0  0.71656  0.96942  0.53005  1.0000
  C   C3405     1.0  0.68349  0.88052  0.67427  1.0000
  H   H6032     1.0  0.65486  0.86415  0.58384  1.0000
  H   H6033     1.0  0.67937  0.87201  0.57209  1.0000
  H   H6034     1.0  0.67823  0.84500  0.58123  1.0000
  C   C3406     1.0  0.50113  0.87986  0.67607  1.0000
  H   H6035     1.0  0.49718  0.95386  0.70143  1.0000
  H   H6036     1.0  0.71097  0.78824  0.50521  1.0000
  H   H6037     1.0  0.54329  0.81833  0.79835  1.0000
  C   C3407     1.0  0.51096  0.83478  0.74702  1.0000
  H   H6038     1.0  0.97420  0.86192  0.76073  1.0000
  H   H6039     1.0  0.69908  0.93983  0.86412  1.0000
  C   C3408     1.0  0.69222  0.83009  0.64080  1.0000
  H   H6040     1.0  0.66565  0.97289  0.69773  1.0000
  C   C3409     1.0  0.62825  0.90727  0.60164  1.0000
  H   H6041     1.0  0.69637  0.84983  0.66883  1.0000
  C   C3410     1.0  0.49894  0.81433  0.82266  1.0000
  H   H6042     1.0  0.56148  0.86169  0.75774  1.0000
  C   C3411     1.0  0.94456  0.89206  0.75951  1.0000
  H   H6043     1.0  0.60272  0.80562  0.76936  1.0000
  C   C3412     1.0  0.78129  0.80108  0.68078  1.0000
  H   H6044     1.0  0.71266  0.87123  0.82845  1.0000
  H   H6045     1.0  0.66957  0.95059  0.61994  1.0000
  C   C3413     1.0  0.56145  0.86404  0.77355  1.0000
  H   H6046     1.0  0.66921  0.88710  0.88988  1.0000
  S   S765      1.0  0.66695  0.81912  0.50443  1.0000
  C   C3414     1.0  0.70907  0.95346  0.66543  1.0000
  C   C3415     1.0  0.57307  0.78592  0.71318  1.0000
  H   H6047     1.0  0.76444  0.80742  0.68127  1.0000
  H   H6048     1.0  0.71370  0.79080  0.47824  1.0000
  H   H6049     1.0  0.55894  0.84509  0.80474  1.0000
  H   H6050     1.0  0.97704  0.84459  0.94900  1.0000
  H   H6051     1.0  0.71884  0.92550  0.54609  1.0000
  C   C3416     1.0  0.92105  0.87492  0.83487  1.0000
  H   H6052     1.0  0.61837  0.79109  0.75022  1.0000
  C   C3417     1.0  0.75018  0.94877  0.54296  1.0000
  H   H6053     1.0  0.74943  0.92005  0.64047  1.0000
  H   H6054     1.0  0.67527  0.89780  0.85304  1.0000
  H   H6055     1.0  0.96301  0.79607  0.53876  1.0000
  H   H6056     1.0  0.68022  0.92222  0.85411  1.0000
  H   H6057     1.0  0.69154  0.92480  0.57739  1.0000
  H   H6058     1.0  0.97797  0.81101  0.96252  1.0000
  C   C3418     1.0  0.70308  0.93421  0.54480  1.0000
  H   H6059     1.0  0.52436  0.78862  0.82566  1.0000
  H   H6060     1.0  0.97355  0.89978  0.76357  1.0000
  H   H6061     1.0  0.67082  0.85264  0.68400  1.0000
  S   S766      1.0  0.69464  0.98166  0.59764  1.0000
  C   C3419     1.0  0.70023  0.95452  0.60403  1.0000
  H   H6062     1.0  0.54566  0.89035  0.61386  1.0000
  H   H6063     1.0  0.69891  0.87476  0.90071  1.0000
  C   C3420     1.0  0.72034  0.94437  0.59759  1.0000
  H   H6064     1.0  0.59404  0.88814  0.60842  1.0000
  C   C3421     1.0  0.52010  0.82992  0.71158  1.0000
  H   H6065     1.0  0.64023  0.90966  0.87371  1.0000
  C   C3422     1.0  0.74945  0.79711  0.48533  1.0000
  C   C3423     1.0  0.61122  0.92081  0.58973  1.0000
  N   N188      1.0  0.67073  0.84303  0.64308  1.0000
  H   H6066     1.0  0.73205  0.95328  0.58914  1.0000
  H   H6067     1.0  0.64235  0.90235  0.59059  1.0000
  H   H6068     1.0  0.67703  0.90991  0.89400  1.0000
  H   H6069     1.0  0.60478  0.97089  0.53705  1.0000
  C   C3424     1.0  0.81081  0.79156  0.55600  1.0000
  C   C3425     1.0  0.55992  0.94340  0.63480  1.0000
  C   C3426     1.0  0.52473  0.83611  0.72832  1.0000
  H   H6070     1.0  0.63679  0.85081  0.74218  1.0000
  H   H6071     1.0  0.62854  0.82768  0.75774  1.0000
  H   H6072     1.0  0.51440  0.83954  0.75997  1.0000
  H   H6073     1.0  0.69613  0.83989  0.89540  1.0000
  H   H6074     1.0  0.59971  0.93016  0.60027  1.0000
  H   H6075     1.0  0.94910  0.85037  0.74586  1.0000
  H   H6076     1.0  0.67168  0.93212  0.56153  1.0000
  N   N189      1.0  0.94348  0.87333  0.77652  1.0000
  C   C3427     1.0  0.92821  0.86161  0.77268  1.0000
  C   C3428     1.0  0.93526  0.88117  0.79659  1.0000
  H   H6077     1.0  0.49775  0.88189  0.66030  1.0000
  H   H6078     1.0  0.58484  0.80665  0.73993  1.0000
  H   H6079     1.0  0.72551  0.95759  0.86968  1.0000
  C   C3429     1.0  0.93242  0.85595  0.75088  1.0000
  H   H6080     1.0  0.63975  0.84144  0.65997  1.0000
  S   S767      1.0  0.62722  0.80245  0.48007  1.0000
  H   H6081     1.0  0.63817  0.80132  0.68728  1.0000
  Fe  Fe384     1.0  0.63662  0.80775  0.50823  1.0000
  N   N190      1.0  0.84736  0.79511  0.53482  1.0000
  H   H6082     1.0  0.50494  0.82155  0.87638  1.0000
  H   H6083     1.0  0.91224  0.87086  0.77494  1.0000
  H   H6084     1.0  0.92731  0.84712  0.78406  1.0000
  H   H6085     1.0  0.72989  0.94409  0.51321  1.0000
  H   H6086     1.0  0.92032  0.89215  0.79555  1.0000
  H   H6087     1.0  0.92867  0.90080  0.75803  1.0000
  H   H6088     1.0  0.69551  0.88717  0.66224  1.0000
  H   H6089     1.0  0.75619  0.94268  0.52846  1.0000
  C   C3430     1.0  0.50342  0.81961  0.86131  1.0000
  C   C3431     1.0  0.55259  0.95449  0.61701  1.0000
  H   H6090     1.0  0.87370  0.79947  0.51029  1.0000
  H   H6091     1.0  0.92746  0.86980  0.73952  1.0000
  H   H6092     1.0  0.95133  0.88714  0.74440  1.0000
  H   H6093     1.0  0.60140  0.96647  0.63072  1.0000
  H   H6094     1.0  0.71832  0.93874  0.89197  1.0000
  H   H6095     1.0  0.94715  0.85600  0.81987  1.0000
  H   H6096     1.0  0.68480  0.80755  0.62452  1.0000
  H   H6097     1.0  0.75338  0.96982  0.49837  1.0000
  C   C3432     1.0  0.63639  0.80119  0.67135  1.0000
  H   H6098     1.0  0.70738  0.96443  0.65074  1.0000
  C   C3433     1.0  0.76902  0.95142  0.55083  1.0000
  H   H6099     1.0  0.54616  0.87370  0.77804  1.0000
  H   H6100     1.0  0.59820  0.97240  0.69579  1.0000
  H   H6101     1.0  0.61324  0.98271  0.72838  1.0000
  H   H6102     1.0  0.96676  0.91793  0.72845  1.0000
  H   H6103     1.0  0.74254  0.93723  0.55468  1.0000
  H   H6104     1.0  0.72325  0.93510  0.84656  1.0000
  H   H6105     1.0  0.81617  0.78561  0.57092  1.0000
  N   N191      1.0  0.70572  0.89709  0.85941  1.0000
  C   C3434     1.0  0.71660  0.90793  0.87024  1.0000
  C   C3435     1.0  0.70952  0.87396  0.86725  1.0000
  C   C3436     1.0  0.71500  0.90086  0.83676  1.0000
  C   C3437     1.0  0.68283  0.90567  0.86154  1.0000
  C   C3438     1.0  0.67019  0.90361  0.88366  1.0000
  C   C3439     1.0  0.71538  0.93163  0.86278  1.0000
  C   C3440     1.0  0.70877  0.88815  0.82304  1.0000
  C   C3441     1.0  0.71146  0.86656  0.89029  1.0000
  C   C3442     1.0  0.71116  0.84336  0.89683  1.0000
  C   C3443     1.0  0.64795  0.91529  0.88393  1.0000
  H   H6106     1.0  0.71318  0.83837  0.91316  1.0000
  C   C3444     1.0  0.72014  0.89268  0.80084  1.0000
  H   H6107     1.0  0.73335  0.90083  0.86863  1.0000
  H   H6108     1.0  0.71065  0.90570  0.88703  1.0000
  H   H6109     1.0  0.69722  0.86683  0.86407  1.0000
  H   H6110     1.0  0.72441  0.86647  0.85875  1.0000
  H   H6111     1.0  0.73226  0.89773  0.83469  1.0000
  H   H6112     1.0  0.71056  0.91742  0.82982  1.0000
  C   C3445     1.0  0.95766  0.90773  0.76155  1.0000
  N   N192      1.0  0.57863  0.87524  0.77363  1.0000
  C   C3446     1.0  0.59958  0.86203  0.76848  1.0000
  H   H6113     1.0  0.54379  0.90543  0.75933  1.0000
  H   H6114     1.0  0.84777  0.79181  0.56732  1.0000
  C   C3447     1.0  0.82817  0.78571  0.53791  1.0000
  H   H6115     1.0  0.92337  0.83618  0.73410  1.0000
  H   H6116     1.0  0.69936  0.93218  0.53018  1.0000
  C   C3448     1.0  0.63449  0.91940  0.61538  1.0000
  C   C3449     1.0  0.54380  0.83270  0.78675  1.0000
  H   H6117     1.0  0.60245  0.84916  0.78144  1.0000
  H   H6118     1.0  0.55992  0.88635  0.80085  1.0000
  H   H6119     1.0  0.53880  0.95135  0.61330  1.0000
  H   H6120     1.0  0.71460  0.88442  0.79106  1.0000
  H   H6121     1.0  0.74270  0.93329  0.87462  1.0000
  H   H6122     1.0  0.62094  0.92476  0.62682  1.0000
  C   C3450     1.0  0.58792  0.96312  0.62676  1.0000
  C   C3451     1.0  0.73508  0.81520  0.49506  1.0000
  H   H6123     1.0  0.94611  0.89005  0.79969  1.0000
  H   H6124     1.0  0.90540  0.88355  0.83256  1.0000
  H   H6125     1.0  0.95620  0.83323  0.79942  1.0000
  C   C3452     1.0  0.82872  0.82979  0.51624  1.0000
  H   H6126     1.0  0.60855  0.98233  0.75570  1.0000
  C   C3453     1.0  0.92054  0.83919  0.75011  1.0000
  C   C3454     1.0  0.73846  0.97135  0.49311  1.0000
  H   H6127     1.0  0.77800  0.96207  0.53919  1.0000
  H   H6128     1.0  0.94372  0.93357  0.74028  1.0000
  H   H6129     1.0  0.79371  0.79690  0.61689  1.0000
  H   H6130     1.0  0.98423  0.97738  0.82768  1.0000
  H   H6131     1.0  0.67764  0.97857  0.84451  1.0000
  H   H6132     1.0  0.84799  0.90368  0.96551  1.0000
  H   H6133     1.0  0.98767  0.90779  0.56706  1.0000
  H   H6134     1.0  0.55641  0.79842  0.66562  1.0000
  H   H6135     1.0  0.73530  0.84625  0.49933  1.0000
  H   H6136     1.0  0.74814  0.94443  0.47773  1.0000
  H   H6137     1.0  0.66837  0.79905  0.65751  1.0000
  H   H6138     1.0  0.49466  0.86403  0.78019  1.0000
  C   C3455     1.0  0.56640  0.79879  0.67665  1.0000
  H   H6139     1.0  0.74952  0.78490  0.52820  1.0000
  S   S768      1.0  0.57257  0.78288  0.81311  1.0000
  H   H6140     1.0  0.49235  0.90642  0.75178  1.0000
  H   H6141     1.0  0.78293  0.78732  0.72298  1.0000
  H   H6142     1.0  0.88977  0.79016  0.53756  1.0000
  H   H6143     1.0  0.77946  0.78706  0.56989  1.0000
  C   C3456     1.0  0.95529  0.78297  0.54751  1.0000
  H   H6144     1.0  0.75020  0.83985  0.47534  1.0000
