data_image0
_chemical_formula_structural       HCH4SCFeSFeSHFeHSCHS2H3SH3SCFeHCFeS2FeSHSCHCFe2H2CHCHC5H3C4H6FeNSH2C6H5CH3CH2CH6C3SCH5C2HC2HC3HCH2C2H4SH2SHCH2C2SHCH4CSCH2SCHCH3NSH6FeHCHCHCHCH5FeH5C2SHCH3FeH4SH5CSFe2SHSFeS2C2HCFeHS2H2CHSH2CSCHSH3SCSCHC6H4C6H5CHFeCHC6H4CH2C3HSH3FeH3CHFeHSCHCHSCH7CHC4NC11H29NH6C2H2CH2CHNHCHC2H8C2H3NCH2CH2CHC3FeHC2H2CH4C2HCHSHCHSH4FeS2FeS2FeSFeS3NSCH3SHSH2CH6C3HC4H2C6H4C6H4CH3C6H4FeH2C7H3CH2SHCH2FeH2SH3CH4CSFeCH3C3H2NHCHCHCH3C2HCH9CHC2H3CHSHCH2C4H2C2H14NHCH7CH6NC10HCH20CH3CH4CHC2SH2CHC2H2FeSCSC4H5CHCHFeH6CH4CH4SNCHC5H3C2HCH7NH4FeCSFeSH5CH2SHS2H2NHCH2CHCHFeHC2H2FeHC7H2CH7FeCHSHCH5CHCH2CSH4C2HCH2CFeCH3CH4SH6CH8CHC6H2FeSCHSCH2SFeS2FeS2FeSFeS3HSCHNHSFeH2FeS2H2C6H4C6H4C3HC2H4C2H3C2H2FeHC6H5C2H3C6S2C2FeCHC2H9CHCHCH2CH3SHSH2CHCHCH4NC10HCH25CH2NC3H2C4HCH3CH9CH2SH3C2HFeH3SH4CH4C2H5CHFeCH3C2H2CHC2H2NH3CHNH2CH2NC11H25NC2HC3HC3H4C3H11FeH4C2H2CNC11H29SH3C2SH2SCH3CFeCHC3HCHCHC2H2CSCSCH6SH3CH3CHFeNCH2CH2CH4SH2CHCSHSCH2CSHC2H2C3HCH3C3NHFeSCHC2HFe2H4CH2CSCSC6FeHC2FeS2FeS2FeSFeS3H5CH2SC2H3C5HCH4C3H4CHC6H4C6H4C2H3N2CH2C7H2CHCHCH2CH2C2HCH2SH3NH2CHCH9CH2CH8C2HCHCHFe2SCHCH2NH3C2H3CH4CH4CHCHCNC8HC3H3SH18SC2H2NC2H6CH5CHC4H6CH3CH3NC2H3CSCHCH2CHCSH10CH3CNCHC4HCH14CH9CH2CH4C2HC2H6CHCHCHCHC2H2CH2C2H2CH3SH7CH2CH3FeH3C2HCH2C2S3H4CHSHCFeS2FeS2FeSFeS3FeHSH2C2HSNS2HC6H3C6H4CHC2HC6H8FeHC6H4C2HFeH2CHC2HFeC2HSH4C2H3CHC2HC3H6S2H3SH5NSH10CH2C2H2CH6CHNC3H2C2H3C2H2SCH8CH2CFeH4C3HC2HCFeNHNC4SC3HC3H19CH2C2H6CH4C3H2CHSH3CH3C2H3CHSH6CH3C3H4FeCH4SCSNC10HCHCH12C3H4NHCH5CHCFeH2CH5C2FeC3H2FeH5CHC3H3CH4FeH4CH2SHCSH3C2NHCH5SHSH8CH3C2HC2HC2H3SCHCH2CH2C2H2C2H3FeHFeS2FeSFeHS2H4SH4FeSHFeSFeSH3S2HCFeSFeH2SHCH2C6H8C8H4C6H6C3HCHC3HC2HCHSC2H4CNH6CH2CH4CHFeNC3HC2H2SHCH3C2HS2C2SH4NC12H31CSH3FeHCH2C2H5C2HCHCH2SH4FeSHFeS2FeSFeSC2SH2SHFeSCFeCSHCFeCSFeHSCH3S2HCH2C6H4CHC6H4C6H5CH2C6H8CH2SCH2CSCHC2HCHNC2H3CH3CH2FeHC4HCH3CSCFeH9C3H3CH2CH9SNC12H29CNH2C3H3NC5HC2NH10CH10SHCH3NHCHCH3CH6CHCH3CH2CH4C2HSH2SHSNC2H2CH3CH4FeCH2CHCH2CHC2H5FeH3CSH2C2H2C4H3CSFeS2FeS2FeSFeS3CH2SCFeH2SCHFeHC3H5C6H4C6H4C6H5C3SCHC7HCHCH2C3H12FeHCH4C2H2CHCHCSFeHCHSH4CHCH4C2H14C2H2CSHCH3C2H2SNHC4HC2HC2HCHCHCH5C3H3SCH6CH2CNCHC8HCH2SH4CH6SH6CH3CH3CH2FeC2SH5CH4C2NCH6C2HC4H3CHCHNH2FeCH4C2H7FeH6C2SCSH5FeNC2NCHCH7C2HCHCH2SC2HFeH2CHC3H4CH7C3H10NHCNH7FeC4HCH3SC3HCH4SCH5CHC2HCHNH3CSH2CSFeS2FeS2FeSFeS3C2H4CH2SH3SCH2CHC2HCHCHC8H4C6H6C2H2SH2C3H4C4H6C7H9C2H2C2NC2HC3HSHC2HCH2FeH2C3HFeH2C3H3CH2CHCH3CHCH2CH3CH2CH2CH6C2H9CH4CH2NH4C6HCH8CH3CH2SFeHSH5CSC2SCSH2CSC2H2CH3CHCH5NCH3CHCH6CH2CH6CH2SHCH3C2HCH3CH5CNH3FeCSH2CH2CHC2HCHNSH2C2H3NSH2SH6SH5CH4CHCH3CHSHSH2SCFeSFeSCHCSFeSHFeSHSFeSHFeS2FeHFeHFeS3HC2H3CH3C7H4C6H4C7H3C6H11NCHCH10CH3C2HC2H6CH5C2H3CH3CH3CHFeH6CH2CH2SH5CH2NH2NC7H2SC2H14CH5CHCH4NC7HC2H11CHCHC3HCH2C4H4CH2CHCH2CH4CH2CH2NCHCFeHC4H7C3HCH2SCHSCH4C2FeS2FeSFeHFeS3FeS2FeHSHFeCHSH3SHFeCHSHSHCFeHCHC6H9C6H4C5H4CH2C5H2CH3NHCNC12H12CH12CHC4HCH7CSH4SCHFeHCSHFeHCH2CHCH2CSH3CSH4CH3NHCH3CNH9NH4CH2CH5CHC2HCH2CHC2H2CHSC3H3SHCH3CH4CHCH2C2H2CHFeS2FeHSCFeSHS2HFeSFeH2SCH2SCH2CH3C6H5CSC2HC7H5C4HSH3FeH3C6H4CHCH2CSH2CH2CH7C2H3CH6CH4C2H5SH11CH2C2HSHCHNHNC2HC8H10CHSH10SHCHC2NH2FeH3CH5CHCHSH2CH2CHC2HCHSCH4CH2SH2CH2C4HC4NH4SFeS2HFeS3H2SFeCHFeCSHFeHCSFeCSFeCSH2FeHSH5C6H4C2H2SHNH2CHC6H2C3SC6H4FeHCH4C2H2C2H4CH2SC2H2FeH2S2H6C2HCHCNH3CH3CH2CH3SH2FeH2SH3SHCNC11H13FeCH8CH2CHCH2CHNCNSHCH7FeH3C4HCH3CH3CH5CH2CH2SH2CHSH3CHCHCH2CHC3HC5HCSH2CFeSFeHCFeS2FeS2FeSFeS4HCH3FeS2H2SHC2S2CHCH2CH2C2HCH2CHC3HCHNHC6H4C6H6C6H6CH2C7H4NC2HCHCH16C2H2C2NC8H17CH5NH8FeHC2HC2H5CSCHSCS2CH3C2H2CHC2SCH4CH2C2H9FeCHCH5CH2C2H2C2H3CFeHCSH3CSC2H8SH3FeC2H3CNCH2FeH3C2H2NHC2HC2H3CSHC2H2CHCH2CHNHCSH3CH7C4H3CH3C2HCH3CHCH2FeH2CH4C2HCH3SHC2H4CHCHCHNSCHC2HCSC4HC2HC2FeSH3C2HSCHFeHSH2CH2CH5CH8CSHCH2FeCH4CHCSH6SCHCHSHSFeHC2HFe2HSCH2SFeS2FeS2FeSFeS4CSHCSH2C2H5C7H5SHC7H4C2H2C6H4CHC5H3C6H6CH2C3SNH2SFeH3C2H4SCSH4CFeHCHCH7SH2CH3CFeH3C2HCHCNC3HCH2CHNCH17CHCH5CFeH3CHCFeSCH6CHCHCH3NC2HCHCH5CH2SH3SH5CHCH2FeCH3CH2CHFeHCSH3CH2CH3C2H4CH5NC5H2C2H14CH7CH2CH2SH3CH2SH2C3H4CH2CHCHCH
_chemical_formula_sum              "H3072 C1728 S384 Fe192 N96"
_cell_length_a       56.4777
_cell_length_b       56.459
_cell_length_c       56.2786
_cell_angle_alpha    84.5151
_cell_angle_beta     84.5484
_cell_angle_gamma    84.5799

_space_group_name_H-M_alt    "P 1"
_space_group_IT_number       1

loop_
  _space_group_symop_operation_xyz
  'x, y, z'

loop_
  _atom_site_type_symbol
  _atom_site_label
  _atom_site_symmetry_multiplicity
  _atom_site_fract_x
  _atom_site_fract_y
  _atom_site_fract_z
  _atom_site_occupancy
  H   H1        1.0  0.18729  0.20181  0.42611  1.0000
  C   C1        1.0  0.45686  0.05121  0.39823  1.0000
  H   H2        1.0  0.41576  0.99457  0.26121  1.0000
  H   H3        1.0  0.46820  0.14233  0.24897  1.0000
  H   H4        1.0  0.32397  0.18683  0.18279  1.0000
  H   H5        1.0  0.16285  0.16936  0.44830  1.0000
  S   S1        1.0  0.03307  0.12836  0.41453  1.0000
  C   C2        1.0  0.35617  0.15208  0.35661  1.0000
  Fe  Fe1       1.0  0.01899  0.09365  0.43041  1.0000
  S   S2        1.0  0.00421  0.06702  0.40860  1.0000
  Fe  Fe2       1.0  0.06201  0.12102  0.43978  1.0000
  S   S3        1.0  0.10183  0.12620  0.42998  1.0000
  H   H6        1.0  0.30769  0.21071  0.36256  1.0000
  Fe  Fe3       1.0  0.42917  0.21402  0.20541  1.0000
  H   H7        1.0  0.33228  0.18142  0.34291  1.0000
  S   S4        1.0  0.41286  0.19955  0.17545  1.0000
  C   C3        1.0  0.30614  0.21476  0.31271  1.0000
  H   H8        1.0  0.44581  0.03029  0.20902  1.0000
  S   S5        1.0  0.47457  0.07644  0.11167  1.0000
  S   S6        1.0  0.26536  0.19024  0.31634  1.0000
  H   H9        1.0  0.43535  0.07539  0.26267  1.0000
  H   H10       1.0  0.10572  0.20933  0.39331  1.0000
  H   H11       1.0  0.97912  0.13507  0.35729  1.0000
  S   S7        1.0  0.22743  0.19766  0.37938  1.0000
  H   H12       1.0  0.25530  0.21143  0.23298  1.0000
  H   H13       1.0  0.13289  0.14213  0.46084  1.0000
  H   H14       1.0  0.42182  0.03090  0.24105  1.0000
  S   S8        1.0  0.46071  0.00673  0.11704  1.0000
  C   C4        1.0  0.45323  0.99958  0.26550  1.0000
  Fe  Fe4       1.0  0.47493  0.11019  0.43018  1.0000
  H   H15       1.0  0.35668  0.14357  0.40495  1.0000
  C   C5        1.0  0.47330  0.13208  0.21230  1.0000
  Fe  Fe5       1.0  0.40611  0.16811  0.20213  1.0000
  S   S9        1.0  0.42455  0.18176  0.23140  1.0000
  S   S10       1.0  0.41321  0.12830  0.19653  1.0000
  Fe  Fe6       1.0  0.38848  0.20003  0.24262  1.0000
  S   S11       1.0  0.15518  0.21688  0.38271  1.0000
  H   H16       1.0  0.43308  0.14884  0.36715  1.0000
  S   S12       1.0  0.36957  0.18416  0.21556  1.0000
  C   C6        1.0  0.47194  0.01607  0.37706  1.0000
  H   H17       1.0  0.17708  0.13467  0.46968  1.0000
  C   C7        1.0  0.40433  0.07613  0.24370  1.0000
  Fe  Fe7       1.0  0.37821  0.21700  0.19147  1.0000
  Fe  Fe8       1.0  0.24322  0.21273  0.34334  1.0000
  H   H18       1.0  0.46759  0.16138  0.17061  1.0000
  H   H19       1.0  0.30253  0.16499  0.18384  1.0000
  C   C8        1.0  0.37217  0.15958  0.43219  1.0000
  H   H20       1.0  0.45802  0.14438  0.20663  1.0000
  C   C9        1.0  0.45633  0.09046  0.13483  1.0000
  H   H21       1.0  0.26459  0.15333  0.39684  1.0000
  C   C10       1.0  0.43897  0.12745  0.15169  1.0000
  C   C11       1.0  0.42942  0.11434  0.17215  1.0000
  C   C12       1.0  0.43304  0.08925  0.17359  1.0000
  C   C13       1.0  0.44624  0.07737  0.15500  1.0000
  C   C14       1.0  0.34414  0.17774  0.35773  1.0000
  H   H22       1.0  0.43591  0.14670  0.15004  1.0000
  H   H23       1.0  0.42542  0.07889  0.18910  1.0000
  H   H24       1.0  0.44856  0.05809  0.15618  1.0000
  C   C15       1.0  0.29503  0.19578  0.30561  1.0000
  C   C16       1.0  0.30789  0.18062  0.28964  1.0000
  C   C17       1.0  0.33169  0.18416  0.28116  1.0000
  C   C18       1.0  0.34302  0.20260  0.28900  1.0000
  H   H25       1.0  0.47276  0.20307  0.23779  1.0000
  H   H26       1.0  0.30963  0.19852  0.23810  1.0000
  H   H27       1.0  0.29945  0.16596  0.28391  1.0000
  H   H28       1.0  0.34149  0.17217  0.26909  1.0000
  H   H29       1.0  0.39819  0.06866  0.22800  1.0000
  H   H30       1.0  0.46807  0.05564  0.27344  1.0000
  Fe  Fe9       1.0  0.01141  0.14456  0.44548  1.0000
  N   N1        1.0  0.33067  0.18362  0.38119  1.0000
  S   S13       1.0  0.46146  0.14877  0.43406  1.0000
  H   H31       1.0  0.35069  0.14865  0.31927  1.0000
  H   H32       1.0  0.36500  0.18889  0.39323  1.0000
  C   C19       1.0  0.11610  0.15110  0.41501  1.0000
  C   C20       1.0  0.10341  0.17289  0.40855  1.0000
  C   C21       1.0  0.11569  0.19260  0.39830  1.0000
  C   C22       1.0  0.14077  0.19087  0.39432  1.0000
  C   C23       1.0  0.15345  0.16897  0.40040  1.0000
  C   C24       1.0  0.14118  0.14925  0.41066  1.0000
  H   H33       1.0  0.08415  0.17454  0.41159  1.0000
  H   H34       1.0  0.46763  0.21255  0.14828  1.0000
  H   H35       1.0  0.17271  0.16724  0.39735  1.0000
  H   H36       1.0  0.15122  0.13247  0.41544  1.0000
  H   H37       1.0  0.44907  0.99657  0.28530  1.0000
  C   C25       1.0  0.00828  0.20458  0.46504  1.0000
  H   H38       1.0  0.30687  0.21290  0.39382  1.0000
  H   H39       1.0  0.23144  0.21564  0.28471  1.0000
  H   H40       1.0  0.14435  0.20893  0.44072  1.0000
  C   C26       1.0  0.31094  0.16742  0.38869  1.0000
  H   H41       1.0  0.01737  0.18800  0.47187  1.0000
  H   H42       1.0  0.40388  0.09583  0.23994  1.0000
  C   C27       1.0  0.45402  0.02828  0.39150  1.0000
  H   H43       1.0  0.19580  0.21187  0.45348  1.0000
  H   H44       1.0  0.27030  0.20801  0.25970  1.0000
  H   H45       1.0  0.44250  0.06063  0.40861  1.0000
  H   H46       1.0  0.43751  0.02020  0.39696  1.0000
  H   H47       1.0  0.15263  0.21868  0.46789  1.0000
  H   H48       1.0  0.28315  0.13033  0.38174  1.0000
  C   C28       1.0  0.45246  0.11556  0.13323  1.0000
  C   C29       1.0  0.99204  0.20444  0.44783  1.0000
  C   C30       1.0  0.18159  0.21333  0.44093  1.0000
  S   S14       1.0  0.46613  0.98835  0.36696  1.0000
  C   C31       1.0  0.46503  0.03656  0.27838  1.0000
  H   H49       1.0  0.26068  0.14880  0.36622  1.0000
  H   H50       1.0  0.45184  0.03624  0.29448  1.0000
  H   H51       1.0  0.34358  0.13843  0.36287  1.0000
  H   H52       1.0  0.44134  0.07016  0.23144  1.0000
  H   H53       1.0  0.35870  0.18968  0.35278  1.0000
  C   C32       1.0  0.46424  0.02301  0.21217  1.0000
  C   C33       1.0  0.31907  0.20881  0.37774  1.0000
  H   H54       1.0  0.30114  0.17277  0.40580  1.0000
  C   C34       1.0  0.31098  0.17665  0.19479  1.0000
  C   C35       1.0  0.30289  0.21004  0.22256  1.0000
  H   H55       1.0  0.37826  0.16098  0.32346  1.0000
  C   C36       1.0  0.46888  0.12598  0.23930  1.0000
  C   C37       1.0  0.34740  0.18285  0.40082  1.0000
  C   C38       1.0  0.16013  0.17968  0.46440  1.0000
  H   H56       1.0  0.37463  0.14231  0.44330  1.0000
  C   C39       1.0  0.42975  0.06591  0.24805  1.0000
  H   H57       1.0  0.45649  0.22039  0.44780  1.0000
  H   H58       1.0  0.36788  0.17398  0.44447  1.0000
  C   C40       1.0  0.46237  0.15908  0.34118  1.0000
  C   C41       1.0  0.36567  0.14761  0.33091  1.0000
  H   H59       1.0  0.37522  0.12951  0.33059  1.0000
  H   H60       1.0  0.21672  0.21630  0.25746  1.0000
  H   H61       1.0  0.29136  0.21435  0.46595  1.0000
  H   H62       1.0  0.33567  0.15483  0.42797  1.0000
  S   S15       1.0  0.45604  0.09781  0.46537  1.0000
  H   H63       1.0  0.39182  0.07214  0.25973  1.0000
  H   H64       1.0  0.37167  0.14960  0.36758  1.0000
  S   S16       1.0  0.98656  0.17759  0.43661  1.0000
  H   H65       1.0  0.45993  0.12585  0.11757  1.0000
  C   C42       1.0  0.43868  0.14798  0.34776  1.0000
  H   H66       1.0  0.99985  0.11591  0.37442  1.0000
  H   H67       1.0  0.07513  0.21597  0.42841  1.0000
  C   C43       1.0  0.35199  0.15871  0.41609  1.0000
  C   C44       1.0  0.29210  0.16673  0.37046  1.0000
  S   S17       1.0  0.99554  0.11051  0.45951  1.0000
  H   H68       1.0  0.45372  0.18908  0.13643  1.0000
  C   C45       1.0  0.27409  0.14863  0.37949  1.0000
  H   H69       1.0  0.15452  0.10242  0.45795  1.0000
  H   H70       1.0  0.01194  0.04359  0.45427  1.0000
  H   H71       1.0  0.30057  0.16148  0.35293  1.0000
  H   H72       1.0  0.28180  0.18433  0.36767  1.0000
  C   C46       1.0  0.29181  0.19367  0.20673  1.0000
  S   S18       1.0  0.05022  0.08429  0.45285  1.0000
  C   C47       1.0  0.47222  0.02960  0.23607  1.0000
  H   H73       1.0  0.41884  0.03558  0.27179  1.0000
  H   H74       1.0  0.99457  0.14705  0.37966  1.0000
  S   S19       1.0  0.26537  0.22069  0.42434  1.0000
  C   C48       1.0  0.33015  0.21786  0.30484  1.0000
  H   H75       1.0  0.31818  0.14868  0.39267  1.0000
  C   C49       1.0  0.43069  0.03856  0.25494  1.0000
  H   H76       1.0  0.34027  0.19567  0.41423  1.0000
  H   H77       1.0  0.45957  0.17802  0.34521  1.0000
  H   H78       1.0  0.38925  0.16258  0.42130  1.0000
  N   N2        1.0  0.45513  0.02592  0.25814  1.0000
  S   S20       1.0  0.37357  0.20604  0.28070  1.0000
  H   H79       1.0  0.43631  0.20763  0.43072  1.0000
  H   H80       1.0  0.27908  0.18247  0.21785  1.0000
  H   H81       1.0  0.47106  0.18140  0.38433  1.0000
  H   H82       1.0  0.47074  0.98927  0.26164  1.0000
  H   H83       1.0  0.32062  0.16514  0.20853  1.0000
  H   H84       1.0  0.11393  0.18073  0.45509  1.0000
  Fe  Fe10      1.0  0.19482  0.22274  0.37287  1.0000
  H   H85       1.0  0.45144  0.11819  0.24326  1.0000
  C   C50       1.0  0.43895  0.21284  0.44875  1.0000
  H   H86       1.0  0.98018  0.03016  0.39065  1.0000
  C   C51       1.0  0.98604  0.13127  0.37520  1.0000
  H   H87       1.0  0.98368  0.97821  0.44344  1.0000
  C   C52       1.0  0.15798  0.20622  0.45396  1.0000
  H   H88       1.0  0.42459  0.15789  0.33730  1.0000
  C   C53       1.0  0.47053  0.19788  0.13623  1.0000
  H   H89       1.0  0.06822  0.18682  0.46243  1.0000
  H   H90       1.0  0.43904  0.19654  0.46152  1.0000
  H   H91       1.0  0.47326  0.11529  0.20359  1.0000
  H   H92       1.0  0.47012  0.02625  0.45087  1.0000
  H   H93       1.0  0.46559  0.00333  0.21192  1.0000
  Fe  Fe11      1.0  0.44547  0.13663  0.47104  1.0000
  H   H94       1.0  0.05723  0.21590  0.40354  1.0000
  H   H95       1.0  0.28228  0.20430  0.19238  1.0000
  H   H96       1.0  0.47530  0.05686  0.44194  1.0000
  H   H97       1.0  0.31900  0.21640  0.21181  1.0000
  H   H98       1.0  0.40183  0.22353  0.45516  1.0000
  C   C54       1.0  0.97914  0.01210  0.47235  1.0000
  C   C55       1.0  0.43387  0.98715  0.25465  1.0000
  S   S21       1.0  0.04084  0.13880  0.47026  1.0000
  H   H99       1.0  0.44036  0.12900  0.34361  1.0000
  C   C56       1.0  0.26489  0.22125  0.24474  1.0000
  H   H100      1.0  0.43549  0.98954  0.23485  1.0000
  H   H101      1.0  0.99573  0.99972  0.47211  1.0000
  H   H102      1.0  0.47514  0.20571  0.11770  1.0000
  Fe  Fe12      1.0  0.47675  0.99170  0.08274  1.0000
  H   H103      1.0  0.46663  0.15850  0.32157  1.0000
  H   H104      1.0  0.17716  0.17622  0.47315  1.0000
  H   H105      1.0  0.47632  0.02573  0.17425  1.0000
  H   H106      1.0  0.47585  0.14269  0.37435  1.0000
  S   S22       1.0  0.45482  0.97527  0.05749  1.0000
  H   H107      1.0  0.04345  0.22478  0.43178  1.0000
  H   H108      1.0  0.47689  0.04846  0.23353  1.0000
  H   H109      1.0  0.41830  0.97524  0.10346  1.0000
  H   H110      1.0  0.03285  0.99735  0.91032  1.0000
  H   H111      1.0  0.11866  0.06375  0.71290  1.0000
  C   C57       1.0  0.01193  0.17615  0.78149  1.0000
  S   S23       1.0  0.15272  0.19499  0.73995  1.0000
  Fe  Fe13      1.0  0.14120  0.22391  0.76457  1.0000
  Fe  Fe14      1.0  0.11747  0.17977  0.75264  1.0000
  S   S24       1.0  0.11486  0.13921  0.75751  1.0000
  H   H112      1.0  0.36991  0.15210  0.56351  1.0000
  S   S25       1.0  0.09825  0.20131  0.72337  1.0000
  Fe  Fe15      1.0  0.03284  0.03635  0.82550  1.0000
  S   S26       1.0  0.00225  0.02467  0.80751  1.0000
  S   S27       1.0  0.03960  0.07625  0.82194  1.0000
  C   C58       1.0  0.42406  0.08855  0.52540  1.0000
  C   C59       1.0  0.15892  0.10285  0.47675  1.0000
  H   H113      1.0  0.45281  0.07661  0.54718  1.0000
  C   C60       1.0  0.99324  0.98589  0.74528  1.0000
  Fe  Fe16      1.0  0.99251  0.00364  0.84284  1.0000
  H   H114      1.0  0.42637  0.08954  0.59850  1.0000
  S   S28       1.0  0.05851  0.00496  0.81608  1.0000
  S   S29       1.0  0.02077  0.01772  0.86150  1.0000
  H   H115      1.0  0.01215  0.05940  0.48053  1.0000
  H   H116      1.0  0.09396  0.08565  0.71959  1.0000
  C   C61       1.0  0.00531  0.19686  0.79714  1.0000
  H   H117      1.0  0.98692  0.98142  0.56042  1.0000
  S   S30       1.0  0.10799  0.20655  0.77993  1.0000
  H   H118      1.0  0.46620  0.16951  0.53561  1.0000
  H   H119      1.0  0.46652  0.11312  0.53995  1.0000
  C   C62       1.0  0.99082  0.17182  0.76705  1.0000
  S   S31       1.0  0.28668  0.21927  0.56350  1.0000
  C   C63       1.0  0.01738  0.00204  0.92324  1.0000
  H   H120      1.0  0.12481  0.13694  0.49197  1.0000
  S   S32       1.0  0.25264  0.20272  0.62873  1.0000
  H   H121      1.0  0.40380  0.12559  0.54620  1.0000
  H   H122      1.0  0.01775  0.16034  0.79333  1.0000
  H   H123      1.0  0.39621  0.10588  0.57192  1.0000
  S   S33       1.0  0.01705  0.08837  0.52018  1.0000
  C   C64       1.0  0.40898  0.11919  0.56449  1.0000
  S   S34       1.0  0.40685  0.14909  0.48389  1.0000
  C   C65       1.0  0.97994  0.10083  0.80991  1.0000
  H   H124      1.0  0.02885  0.13686  0.76347  1.0000
  C   C66       1.0  0.39408  0.16904  0.50533  1.0000
  C   C67       1.0  0.36913  0.17436  0.50769  1.0000
  C   C68       1.0  0.35814  0.19001  0.52445  1.0000
  C   C69       1.0  0.37199  0.20053  0.53918  1.0000
  C   C70       1.0  0.39694  0.19515  0.53686  1.0000
  C   C71       1.0  0.40793  0.17954  0.52007  1.0000
  H   H125      1.0  0.35816  0.16628  0.49650  1.0000
  H   H126      1.0  0.33894  0.19386  0.52600  1.0000
  H   H127      1.0  0.40785  0.20307  0.54822  1.0000
  H   H128      1.0  0.42709  0.17579  0.51842  1.0000
  C   C72       1.0  0.02899  0.01159  0.55592  1.0000
  C   C73       1.0  0.04397  0.01931  0.53581  1.0000
  C   C74       1.0  0.04007  0.04243  0.52414  1.0000
  C   C75       1.0  0.02130  0.05826  0.53268  1.0000
  C   C76       1.0  0.00619  0.05043  0.55265  1.0000
  C   C77       1.0  0.00983  0.02718  0.56406  1.0000
  H   H129      1.0  0.05895  0.00752  0.52946  1.0000
  H   H130      1.0  0.05202  0.04828  0.50899  1.0000
  H   H131      1.0  0.99175  0.06257  0.55954  1.0000
  H   H132      1.0  0.99822  0.02160  0.57958  1.0000
  H   H133      1.0  0.41861  0.22074  0.49423  1.0000
  C   C78       1.0  0.00473  0.97981  0.93257  1.0000
  H   H134      1.0  0.10706  0.17971  0.63966  1.0000
  Fe  Fe17      1.0  0.13269  0.21855  0.71304  1.0000
  C   C79       1.0  0.46335  0.14059  0.56417  1.0000
  H   H135      1.0  0.12706  0.21078  0.50881  1.0000
  C   C80       1.0  0.09345  0.12216  0.77530  1.0000
  C   C81       1.0  0.07562  0.13255  0.79104  1.0000
  C   C82       1.0  0.05941  0.11821  0.80509  1.0000
  C   C83       1.0  0.06054  0.09335  0.80349  1.0000
  C   C84       1.0  0.07811  0.08304  0.78744  1.0000
  C   C85       1.0  0.09449  0.09734  0.77356  1.0000
  H   H136      1.0  0.07456  0.15156  0.79270  1.0000
  H   H137      1.0  0.04603  0.12640  0.81753  1.0000
  H   H138      1.0  0.07930  0.06398  0.78599  1.0000
  H   H139      1.0  0.10824  0.08903  0.76160  1.0000
  C   C86       1.0  0.01732  0.97765  0.74146  1.0000
  H   H140      1.0  0.06628  0.15920  0.71068  1.0000
  H   H141      1.0  0.16097  0.16468  0.51139  1.0000
  C   C87       1.0  0.22319  0.21046  0.64123  1.0000
  C   C88       1.0  0.21447  0.19795  0.66261  1.0000
  C   C89       1.0  0.19137  0.20403  0.67333  1.0000
  H   H142      1.0  0.02376  0.01044  0.93824  1.0000
  S   S35       1.0  0.35937  0.22091  0.56029  1.0000
  H   H143      1.0  0.22582  0.18373  0.67107  1.0000
  H   H144      1.0  0.18505  0.19467  0.69002  1.0000
  H   H145      1.0  0.12804  0.19256  0.55074  1.0000
  Fe  Fe18      1.0  0.02753  0.99267  0.79944  1.0000
  H   H146      1.0  0.98250  0.08477  0.79966  1.0000
  H   H147      1.0  0.43245  0.10306  0.51386  1.0000
  H   H148      1.0  0.05516  0.18592  0.49290  1.0000
  C   C90       1.0  0.14329  0.19958  0.51388  1.0000
  H   H149      1.0  0.15941  0.20772  0.50518  1.0000
  Fe  Fe19      1.0  0.04356  0.98512  0.85015  1.0000
  H   H150      1.0  0.14440  0.09530  0.48906  1.0000
  S   S36       1.0  0.03534  0.98271  0.57073  1.0000
  C   C91       1.0  0.42838  0.06551  0.51277  1.0000
  H   H151      1.0  0.16039  0.18939  0.54701  1.0000
  C   C92       1.0  0.43426  0.08511  0.55023  1.0000
  H   H152      1.0  0.37382  0.16613  0.59009  1.0000
  S   S37       1.0  0.03724  0.97681  0.76391  1.0000
  C   C93       1.0  0.13853  0.14467  0.47874  1.0000
  H   H153      1.0  0.05025  0.21990  0.72007  1.0000
  H   H154      1.0  0.41276  0.15655  0.56945  1.0000
  H   H155      1.0  0.14453  0.21863  0.54542  1.0000
  H   H156      1.0  0.42395  0.07153  0.56140  1.0000
  H   H157      1.0  0.40445  0.09308  0.52730  1.0000
  H   H158      1.0  0.21712  0.19371  0.74662  1.0000
  H   H159      1.0  0.98647  0.99245  0.76229  1.0000
  C   C94       1.0  0.14340  0.17373  0.50691  1.0000
  H   H160      1.0  0.44783  0.06060  0.50916  1.0000
  C   C95       1.0  0.05772  0.14928  0.72670  1.0000
  C   C96       1.0  0.98646  0.97679  0.70496  1.0000
  C   C97       1.0  0.98447  0.03526  0.48295  1.0000
  C   C98       1.0  0.09328  0.17616  0.48940  1.0000
  N   N3        1.0  0.14510  0.12946  0.68474  1.0000
  C   C99       1.0  0.15869  0.14186  0.70107  1.0000
  C   C100      1.0  0.12497  0.14628  0.67526  1.0000
  C   C101      1.0  0.13406  0.10891  0.69966  1.0000
  C   C102      1.0  0.16120  0.11933  0.66455  1.0000
  C   C103      1.0  0.17608  0.13714  0.64819  1.0000
  C   C104      1.0  0.17982  0.12671  0.71239  1.0000
  C   C105      1.0  0.11669  0.09532  0.68722  1.0000
  C   C106      1.0  0.12942  0.17302  0.66959  1.0000
  C   C107      1.0  0.10875  0.18677  0.65712  1.0000
  C   C108      1.0  0.19501  0.12402  0.63181  1.0000
  C   C109      1.0  0.19239  0.14139  0.72803  1.0000
  H   H161      1.0  0.36708  0.13536  0.59253  1.0000
  H   H162      1.0  0.14621  0.14865  0.71592  1.0000
  H   H163      1.0  0.16612  0.15801  0.69169  1.0000
  H   H164      1.0  0.11912  0.13984  0.65883  1.0000
  H   H165      1.0  0.10902  0.14643  0.68862  1.0000
  H   H166      1.0  0.12409  0.11535  0.71617  1.0000
  H   H167      1.0  0.14803  0.09514  0.70591  1.0000
  H   H168      1.0  0.17359  0.10439  0.67169  1.0000
  H   H169      1.0  0.15057  0.11106  0.65241  1.0000
  H   H170      1.0  0.18555  0.14846  0.65852  1.0000
  H   H171      1.0  0.16427  0.14870  0.63640  1.0000
  H   H172      1.0  0.17362  0.11121  0.72412  1.0000
  H   H173      1.0  0.19330  0.12023  0.69830  1.0000
  H   H174      1.0  0.12642  0.08573  0.67242  1.0000
  H   H175      1.0  0.10210  0.10753  0.67984  1.0000
  H   H176      1.0  0.13077  0.18124  0.68647  1.0000
  H   H177      1.0  0.14609  0.17574  0.65812  1.0000
  H   H178      1.0  0.11207  0.20592  0.65368  1.0000
  H   H179      1.0  0.42018  0.06809  0.49543  1.0000
  H   H180      1.0  0.09171  0.18551  0.66860  1.0000
  H   H181      1.0  0.20502  0.13725  0.61994  1.0000
  H   H182      1.0  0.20794  0.11261  0.64256  1.0000
  H   H183      1.0  0.18658  0.11277  0.62041  1.0000
  H   H184      1.0  0.20795  0.13043  0.73517  1.0000
  H   H185      1.0  0.19891  0.15751  0.71749  1.0000
  H   H186      1.0  0.18002  0.14688  0.74348  1.0000
  H   H187      1.0  0.02761  0.18077  0.76904  1.0000
  H   H188      1.0  0.09308  0.06686  0.69562  1.0000
  H   H189      1.0  0.99870  0.21310  0.78622  1.0000
  N   N4        1.0  0.99229  0.14844  0.75566  1.0000
  H   H190      1.0  0.06290  0.12987  0.72584  1.0000
  H   H191      1.0  0.98629  0.16638  0.72060  1.0000
  H   H192      1.0  0.02314  0.02838  0.48115  1.0000
  H   H193      1.0  0.06443  0.15527  0.74285  1.0000
  H   H194      1.0  0.99362  0.99824  0.51955  1.0000
  H   H195      1.0  0.98326  0.03391  0.50271  1.0000
  C   C110      1.0  0.37702  0.14911  0.58139  1.0000
  C   C111      1.0  0.40377  0.14134  0.57899  1.0000
  H   H196      1.0  0.99128  0.19210  0.81154  1.0000
  H   H197      1.0  0.42015  0.05061  0.52391  1.0000
  C   C112      1.0  0.98064  0.12953  0.77242  1.0000
  H   H198      1.0  0.44224  0.11488  0.59865  1.0000
  H   H199      1.0  0.40951  0.13794  0.59736  1.0000
  C   C113      1.0  0.17659  0.22239  0.66251  1.0000
  H   H200      1.0  0.98789  0.09612  0.82725  1.0000
  N   N5        1.0  0.13953  0.17098  0.48120  1.0000
  H   H201      1.0  0.22022  0.19642  0.71437  1.0000
  C   C114      1.0  0.10495  0.07678  0.70497  1.0000
  H   H202      1.0  0.02132  0.20092  0.80554  1.0000
  C   C115      1.0  0.03063  0.15454  0.72752  1.0000
  C   C116      1.0  0.44085  0.09941  0.58829  1.0000
  H   H203      1.0  0.24421  0.20362  0.73079  1.0000
  H   H204      1.0  0.17576  0.09142  0.47925  1.0000
  H   H205      1.0  0.02636  0.17384  0.72941  1.0000
  H   H206      1.0  0.16692  0.12776  0.50066  1.0000
  H   H207      1.0  0.98957  0.98582  0.94521  1.0000
  H   H208      1.0  0.01501  0.21060  0.70080  1.0000
  H   H209      1.0  0.44251  0.13483  0.53491  1.0000
  H   H210      1.0  0.99049  0.13637  0.80774  1.0000
  C   C117      1.0  0.01761  0.13916  0.74816  1.0000
  C   C118      1.0  0.07104  0.19080  0.48086  1.0000
  H   H211      1.0  0.02488  0.15066  0.71004  1.0000
  H   H212      1.0  0.13004  0.16437  0.51929  1.0000
  H   H213      1.0  0.01795  0.12082  0.74224  1.0000
  N   N6        1.0  0.43418  0.10737  0.56325  1.0000
  C   C119      1.0  0.99230  0.12151  0.79598  1.0000
  H   H214      1.0  0.09414  0.17909  0.50849  1.0000
  H   H215      1.0  0.45016  0.15095  0.57574  1.0000
  C   C120      1.0  0.14411  0.19995  0.54092  1.0000
  H   H216      1.0  0.98949  0.18726  0.75319  1.0000
  H   H217      1.0  0.00475  0.01530  0.91407  1.0000
  C   C121      1.0  0.45146  0.12370  0.54946  1.0000
  H   H218      1.0  0.01136  0.11522  0.79258  1.0000
  C   C122      1.0  0.22452  0.20442  0.73049  1.0000
  C   C123      1.0  0.47351  0.08149  0.61461  1.0000
  C   C124      1.0  0.16198  0.12841  0.48199  1.0000
  Fe  Fe20      1.0  0.02700  0.10267  0.48148  1.0000
  H   H219      1.0  0.09061  0.15713  0.48803  1.0000
  C   C125      1.0  0.01271  0.22194  0.71544  1.0000
  C   C126      1.0  0.00948  0.04201  0.47409  1.0000
  H   H220      1.0  0.11592  0.20319  0.47436  1.0000
  H   H221      1.0  0.07255  0.21024  0.48116  1.0000
  C   C127      1.0  0.97784  0.98538  0.72708  1.0000
  H   H222      1.0  0.97963  0.11328  0.76285  1.0000
  H   H223      1.0  0.46124  0.06444  0.58620  1.0000
  H   H224      1.0  0.45983  0.07488  0.62854  1.0000
  H   H225      1.0  0.98086  0.13560  0.72383  1.0000
  C   C128      1.0  0.97877  0.15217  0.73344  1.0000
  C   C129      1.0  0.46438  0.08287  0.58976  1.0000
  H   H226      1.0  0.05731  0.97513  0.49822  1.0000
  C   C130      1.0  0.11613  0.18359  0.47405  1.0000
  H   H227      1.0  0.47595  0.13015  0.57597  1.0000
  S   S38       1.0  0.12488  0.39236  0.42947  1.0000
  H   H228      1.0  0.11759  0.25594  0.41991  1.0000
  C   C131      1.0  0.26582  0.46299  0.22092  1.0000
  H   H229      1.0  0.23787  0.25157  0.24063  1.0000
  S   S39       1.0  0.15476  0.45692  0.05764  1.0000
  H   H230      1.0  0.40510  0.46110  0.20550  1.0000
  H   H231      1.0  0.13728  0.27153  0.38094  1.0000
  H   H232      1.0  0.99250  0.32207  0.27759  1.0000
  H   H233      1.0  0.14654  0.29631  0.39506  1.0000
  Fe  Fe21      1.0  0.24619  0.38863  0.15309  1.0000
  S   S40       1.0  0.27830  0.40432  0.16456  1.0000
  S   S41       1.0  0.23649  0.39540  0.11405  1.0000
  Fe  Fe22      1.0  0.23995  0.35746  0.20141  1.0000
  S   S42       1.0  0.27111  0.37118  0.21564  1.0000
  S   S43       1.0  0.21968  0.32877  0.22357  1.0000
  Fe  Fe23      1.0  0.25663  0.40703  0.19999  1.0000
  S   S44       1.0  0.25149  0.43637  0.22519  1.0000
  Fe  Fe24      1.0  0.28988  0.36684  0.17918  1.0000
  S   S45       1.0  0.32862  0.35126  0.17742  1.0000
  S   S46       1.0  0.22375  0.39370  0.18787  1.0000
  S   S47       1.0  0.25954  0.35088  0.16548  1.0000
  N   N7        1.0  0.44408  0.31366  0.20520  1.0000
  S   S48       1.0  0.22695  0.30212  0.33550  1.0000
  C   C132      1.0  0.41444  0.37082  0.08573  1.0000
  H   H234      1.0  0.21258  0.45370  0.16580  1.0000
  H   H235      1.0  0.46064  0.37774  0.09744  1.0000
  H   H236      1.0  0.37245  0.29943  0.13635  1.0000
  S   S49       1.0  0.01485  0.38344  0.41748  1.0000
  H   H237      1.0  0.31587  0.42030  0.01971  1.0000
  S   S50       1.0  0.41711  0.44009  0.08374  1.0000
  H   H238      1.0  0.28471  0.40080  0.03462  1.0000
  H   H239      1.0  0.21542  0.32690  0.47289  1.0000
  C   C133      1.0  0.33370  0.45213  0.01145  1.0000
  H   H240      1.0  0.38997  0.36240  0.17807  1.0000
  H   H241      1.0  0.08018  0.25080  0.39773  1.0000
  H   H242      1.0  0.06927  0.32090  0.38189  1.0000
  H   H243      1.0  0.26372  0.41167  0.44550  1.0000
  H   H244      1.0  0.15762  0.26608  0.40391  1.0000
  H   H245      1.0  0.35474  0.30772  0.11146  1.0000
  C   C134      1.0  0.47149  0.43307  0.46783  1.0000
  C   C135      1.0  0.41003  0.43900  0.00295  1.0000
  C   C136      1.0  0.39524  0.45488  0.01659  1.0000
  H   H246      1.0  0.17926  0.23212  0.43311  1.0000
  C   C137      1.0  0.41630  0.44109  0.05215  1.0000
  C   C138      1.0  0.43198  0.42622  0.03821  1.0000
  C   C139      1.0  0.42862  0.42495  0.01384  1.0000
  C   C140      1.0  0.47305  0.45704  0.42984  1.0000
  H   H247      1.0  0.44718  0.27814  0.22406  1.0000
  H   H248      1.0  0.44028  0.41273  0.00344  1.0000
  C   C141      1.0  0.33389  0.31993  0.17649  1.0000
  C   C142      1.0  0.35436  0.30788  0.18581  1.0000
  C   C143      1.0  0.35936  0.28309  0.18446  1.0000
  C   C144      1.0  0.34417  0.27022  0.17334  1.0000
  C   C145      1.0  0.32392  0.28237  0.16376  1.0000
  C   C146      1.0  0.31866  0.30705  0.16553  1.0000
  H   H249      1.0  0.36625  0.31772  0.19424  1.0000
  H   H250      1.0  0.37510  0.27403  0.19166  1.0000
  H   H251      1.0  0.31221  0.27264  0.15492  1.0000
  H   H252      1.0  0.30305  0.31616  0.15794  1.0000
  C   C147      1.0  0.22348  0.32106  0.25437  1.0000
  C   C148      1.0  0.21568  0.29941  0.26531  1.0000
  C   C149      1.0  0.21751  0.29305  0.28993  1.0000
  C   C150      1.0  0.22666  0.30852  0.30402  1.0000
  C   C151      1.0  0.23458  0.33014  0.29309  1.0000
  C   C152      1.0  0.23317  0.33633  0.26834  1.0000
  H   H253      1.0  0.20795  0.28761  0.25472  1.0000
  H   H254      1.0  0.21107  0.27653  0.29816  1.0000
  H   H255      1.0  0.24187  0.34215  0.30376  1.0000
  H   H256      1.0  0.23910  0.35311  0.26018  1.0000
  C   C153      1.0  0.41180  0.29338  0.23533  1.0000
  H   H257      1.0  0.42098  0.38890  0.08158  1.0000
  H   H258      1.0  0.08930  0.42339  0.40394  1.0000
  H   H259      1.0  0.44749  0.26606  0.15096  1.0000
  C   C154      1.0  0.21197  0.41112  0.09983  1.0000
  C   C155      1.0  0.19741  0.42952  0.11020  1.0000
  C   C156      1.0  0.17978  0.44296  0.09713  1.0000
  C   C157      1.0  0.17648  0.43838  0.07355  1.0000
  C   C158      1.0  0.19053  0.41952  0.06348  1.0000
  C   C159      1.0  0.20809  0.40598  0.07657  1.0000
  H   H260      1.0  0.19991  0.43356  0.12813  1.0000
  H   H261      1.0  0.16872  0.45721  0.10518  1.0000
  H   H262      1.0  0.46244  0.28572  0.18494  1.0000
  H   H263      1.0  0.21882  0.39144  0.06856  1.0000
  Fe  Fe25      1.0  0.14289  0.42694  0.42956  1.0000
  H   H264      1.0  0.40233  0.28030  0.45856  1.0000
  H   H265      1.0  0.47256  0.33657  0.19298  1.0000
  C   C160      1.0  0.09354  0.39186  0.42836  1.0000
  C   C161      1.0  0.08051  0.40880  0.41382  1.0000
  C   C162      1.0  0.05634  0.40620  0.41105  1.0000
  C   C163      1.0  0.04471  0.38705  0.42325  1.0000
  C   C164      1.0  0.05739  0.37083  0.43881  1.0000
  C   C165      1.0  0.08178  0.37300  0.44098  1.0000
  C   C166      1.0  0.37239  0.30902  0.11822  1.0000
  H   H266      1.0  0.04669  0.41895  0.39910  1.0000
  H   H267      1.0  0.04855  0.35633  0.44869  1.0000
  H   H268      1.0  0.09168  0.36000  0.45245  1.0000
  C   C167      1.0  0.47183  0.46912  0.20683  1.0000
  H   H269      1.0  0.43238  0.43867  0.23494  1.0000
  H   H270      1.0  0.36199  0.34317  0.13138  1.0000
  S   S51       1.0  0.21961  0.43157  0.46825  1.0000
  H   H271      1.0  0.09641  0.28765  0.45852  1.0000
  C   C168      1.0  0.25084  0.45134  0.05018  1.0000
  H   H272      1.0  0.26383  0.27796  0.22996  1.0000
  H   H273      1.0  0.39521  0.46300  0.24760  1.0000
  Fe  Fe26      1.0  0.18704  0.44470  0.44848  1.0000
  H   H274      1.0  0.28182  0.28069  0.44795  1.0000
  H   H275      1.0  0.46680  0.34801  0.11134  1.0000
  S   S52       1.0  0.15714  0.43678  0.98891  1.0000
  H   H276      1.0  0.28941  0.25891  0.25461  1.0000
  H   H277      1.0  0.22407  0.34687  0.44814  1.0000
  H   H278      1.0  0.28248  0.32465  0.46754  1.0000
  C   C169      1.0  0.06107  0.30097  0.47002  1.0000
  H   H279      1.0  0.29273  0.39513  0.44471  1.0000
  H   H280      1.0  0.16923  0.45105  0.20944  1.0000
  H   H281      1.0  0.32746  0.46342  0.44325  1.0000
  H   H282      1.0  0.29174  0.28284  0.21342  1.0000
  C   C170      1.0  0.44840  0.30078  0.18270  1.0000
  S   S53       1.0  0.20915  0.23494  0.33516  1.0000
  Fe  Fe27      1.0  0.24179  0.22887  0.39358  1.0000
  C   C171      1.0  0.34552  0.42326  0.21090  1.0000
  H   H283      1.0  0.23281  0.46371  0.18375  1.0000
  H   H284      1.0  0.41940  0.25747  0.25279  1.0000
  H   H285      1.0  0.45599  0.31264  0.16750  1.0000
  C   C172      1.0  0.36671  0.46298  0.17922  1.0000
  C   C173      1.0  0.32421  0.41144  0.22418  1.0000
  C   C174      1.0  0.06946  0.26462  0.43298  1.0000
  H   H286      1.0  0.41610  0.41229  0.23781  1.0000
  H   H287      1.0  0.45328  0.45643  0.43061  1.0000
  N   N8        1.0  0.36672  0.46260  0.20614  1.0000
  H   H288      1.0  0.42139  0.27497  0.18781  1.0000
  C   C175      1.0  0.42796  0.35297  0.18169  1.0000
  H   H289      1.0  0.45487  0.41087  0.42998  1.0000
  C   C176      1.0  0.32993  0.47191  0.42464  1.0000
  H   H290      1.0  0.44591  0.39467  0.45817  1.0000
  C   C177      1.0  0.24568  0.23970  0.25527  1.0000
  H   H291      1.0  0.24558  0.37638  0.43443  1.0000
  H   H292      1.0  0.45168  0.31945  0.45946  1.0000
  H   H293      1.0  0.36200  0.41232  0.21576  1.0000
  C   C178      1.0  0.46127  0.39852  0.44500  1.0000
  C   C179      1.0  0.13990  0.43586  0.34963  1.0000
  H   H294      1.0  0.02132  0.42187  0.45695  1.0000
  C   C180      1.0  0.24078  0.45185  0.47158  1.0000
  H   H295      1.0  0.33488  0.26205  0.27107  1.0000
  H   H296      1.0  0.33456  0.26779  0.36784  1.0000
  H   H297      1.0  0.25689  0.32870  0.42902  1.0000
  H   H298      1.0  0.32889  0.45928  0.21198  1.0000
  H   H299      1.0  0.33986  0.45868  0.41318  1.0000
  H   H300      1.0  0.43655  0.29444  0.13629  1.0000
  H   H301      1.0  0.32504  0.41071  0.24388  1.0000
  H   H302      1.0  0.41102  0.30340  0.17308  1.0000
  H   H303      1.0  0.32431  0.39290  0.21905  1.0000
  C   C181      1.0  0.06471  0.25123  0.41141  1.0000
  H   H304      1.0  0.38815  0.37613  0.12969  1.0000
  C   C182      1.0  0.31122  0.43891  0.01249  1.0000
  C   C183      1.0  0.97991  0.22603  0.43940  1.0000
  H   H305      1.0  0.40212  0.28778  0.22090  1.0000
  H   H306      1.0  0.26016  0.30696  0.19461  1.0000
  H   H307      1.0  0.42676  0.33781  0.10629  1.0000
  C   C184      1.0  0.03116  0.32194  0.38280  1.0000
  H   H308      1.0  0.27119  0.28428  0.17497  1.0000
  S   S54       1.0  0.13083  0.46378  0.41407  1.0000
  H   H309      1.0  0.20915  0.40960  0.99221  1.0000
  C   C185      1.0  0.24033  0.45586  0.40050  1.0000
  H   H310      1.0  0.18136  0.42646  0.24554  1.0000
  H   H311      1.0  0.03830  0.29945  0.42532  1.0000
  C   C186      1.0  0.27527  0.41340  0.04714  1.0000
  C   C187      1.0  0.25862  0.31371  0.44306  1.0000
  C   C188      1.0  0.25857  0.43340  0.01105  1.0000
  C   C189      1.0  0.23398  0.42287  0.01385  1.0000
  H   H312      1.0  0.36081  0.42106  0.14338  1.0000
  H   H313      1.0  0.42023  0.32744  0.46581  1.0000
  C   C190      1.0  0.29044  0.41356  0.06874  1.0000
  C   C191      1.0  0.29686  0.38816  0.07961  1.0000
  H   H314      1.0  0.43073  0.30983  0.44095  1.0000
  H   H315      1.0  0.27486  0.35997  0.43304  1.0000
  H   H316      1.0  0.24623  0.45220  0.41884  1.0000
  H   H317      1.0  0.20406  0.44595  0.24870  1.0000
  H   H318      1.0  0.23569  0.44062  0.05681  1.0000
  H   H319      1.0  0.25887  0.40478  0.05441  1.0000
  H   H320      1.0  0.47388  0.43169  0.31347  1.0000
  H   H321      1.0  0.12716  0.28037  0.43406  1.0000
  H   H322      1.0  0.23699  0.43864  0.39396  1.0000
  H   H323      1.0  0.25695  0.45025  0.99912  1.0000
  H   H324      1.0  0.27114  0.42109  0.00059  1.0000
  H   H325      1.0  0.21980  0.43608  0.02071  1.0000
  H   H326      1.0  0.23410  0.40645  0.02629  1.0000
  H   H327      1.0  0.01658  0.31037  0.38901  1.0000
  N   N9        1.0  0.26874  0.43743  0.03404  1.0000
  H   H328      1.0  0.10329  0.30976  0.40659  1.0000
  C   C192      1.0  0.33373  0.26894  0.25202  1.0000
  H   H329      1.0  0.30748  0.42167  0.06337  1.0000
  H   H330      1.0  0.28034  0.42360  0.08302  1.0000
  H   H331      1.0  0.30639  0.38880  0.09588  1.0000
  H   H332      1.0  0.28050  0.37876  0.08496  1.0000
  H   H333      1.0  0.30860  0.37784  0.06657  1.0000
  H   H334      1.0  0.22848  0.25564  0.44301  1.0000
  H   H335      1.0  0.36926  0.41230  0.02690  1.0000
  C   C193      1.0  0.22320  0.34434  0.46794  1.0000
  H   H336      1.0  0.00542  0.47302  0.98503  1.0000
  H   H337      1.0  0.38576  0.46705  0.05175  1.0000
  H   H338      1.0  0.34947  0.38850  0.03103  1.0000
  H   H339      1.0  0.08866  0.31726  0.44607  1.0000
  H   H340      1.0  0.40705  0.32692  0.20186  1.0000
  H   H341      1.0  0.31134  0.25510  0.35474  1.0000
  N   N10       1.0  0.17707  0.37448  0.34361  1.0000
  C   C194      1.0  0.15647  0.39349  0.34185  1.0000
  C   C195      1.0  0.17165  0.35326  0.33123  1.0000
  C   C196      1.0  0.17852  0.36634  0.36989  1.0000
  C   C197      1.0  0.20075  0.38334  0.33346  1.0000
  C   C198      1.0  0.20032  0.40280  0.31192  1.0000
  C   C199      1.0  0.15705  0.41461  0.35752  1.0000
  C   C200      1.0  0.19650  0.34445  0.37567  1.0000
  C   C201      1.0  0.16948  0.35729  0.30390  1.0000
  C   C202      1.0  0.16080  0.33541  0.29445  1.0000
  C   C203      1.0  0.22548  0.40615  0.30022  1.0000
  H   H342      1.0  0.04276  0.45099  0.97844  1.0000
  C   C204      1.0  0.20089  0.34152  0.40220  1.0000
  H   H343      1.0  0.13924  0.38549  0.34731  1.0000
  H   H344      1.0  0.15491  0.40099  0.32309  1.0000
  H   H345      1.0  0.18599  0.33848  0.33315  1.0000
  H   H346      1.0  0.15496  0.34601  0.33995  1.0000
  H   H347      1.0  0.16063  0.36191  0.37844  1.0000
  H   H348      1.0  0.18359  0.38111  0.37964  1.0000
  H   H349      1.0  0.20954  0.39111  0.34747  1.0000
  H   H350      1.0  0.21335  0.36801  0.32804  1.0000
  H   H351      1.0  0.19271  0.42026  0.31805  1.0000
  H   H352      1.0  0.18945  0.39853  0.29783  1.0000
  H   H353      1.0  0.15139  0.40895  0.37652  1.0000
  H   H354      1.0  0.17522  0.42073  0.35681  1.0000
  H   H355      1.0  0.21396  0.34616  0.36510  1.0000
  H   H356      1.0  0.18931  0.32777  0.37158  1.0000
  H   H357      1.0  0.15674  0.37275  0.29912  1.0000
  H   H358      1.0  0.18728  0.36001  0.29438  1.0000
  H   H359      1.0  0.14221  0.33278  0.30188  1.0000
  H   H360      1.0  0.16125  0.33794  0.27459  1.0000
  H   H361      1.0  0.17251  0.31910  0.29934  1.0000
  H   H362      1.0  0.19994  0.43890  0.20566  1.0000
  C   C205      1.0  0.12103  0.27510  0.41736  1.0000
  H   H363      1.0  0.30993  0.25633  0.38690  1.0000
  H   H364      1.0  0.21120  0.24082  0.27599  1.0000
  H   H365      1.0  0.26412  0.45430  0.14846  1.0000
  C   C206      1.0  0.41673  0.43016  0.24434  1.0000
  H   H366      1.0  0.18381  0.33968  0.41351  1.0000
  H   H367      1.0  0.21306  0.32520  0.40587  1.0000
  H   H368      1.0  0.20936  0.35718  0.40702  1.0000
  H   H369      1.0  0.14025  0.45031  0.36162  1.0000
  C   C207      1.0  0.45625  0.35893  0.09791  1.0000
  H   H370      1.0  0.25897  0.45488  0.06658  1.0000
  C   C208      1.0  0.39800  0.45547  0.04116  1.0000
  C   C209      1.0  0.46683  0.32445  0.20884  1.0000
  S   S55       1.0  0.97972  0.32361  0.42791  1.0000
  H   H371      1.0  0.38123  0.46620  0.00838  1.0000
  H   H372      1.0  0.32144  0.28551  0.25097  1.0000
  C   C210      1.0  0.98431  0.24771  0.44789  1.0000
  H   H373      1.0  0.10011  0.41303  0.47134  1.0000
  C   C211      1.0  0.24106  0.25072  0.45635  1.0000
  C   C212      1.0  0.26299  0.37356  0.44234  1.0000
  H   H374      1.0  0.22471  0.42057  0.28535  1.0000
  H   H375      1.0  0.05776  0.29241  0.38125  1.0000
  Fe  Fe28      1.0  0.45135  0.43646  0.10284  1.0000
  S   S56       1.0  0.45243  0.46294  0.18580  1.0000
  C   C213      1.0  0.27998  0.24748  0.20951  1.0000
  S   S57       1.0  0.46173  0.23452  0.19539  1.0000
  C   C214      1.0  0.18641  0.44508  0.24180  1.0000
  C   C215      1.0  0.26154  0.28756  0.19262  1.0000
  C   C216      1.0  0.39363  0.44581  0.24011  1.0000
  C   C217      1.0  0.98322  0.42429  0.46106  1.0000
  H   H376      1.0  0.37113  0.44470  0.17341  1.0000
  H   H377      1.0  0.29629  0.22705  0.32427  1.0000
  H   H378      1.0  0.29442  0.24651  0.19458  1.0000
  H   H379      1.0  0.18597  0.37252  0.44507  1.0000
  H   H380      1.0  0.42004  0.24745  0.44360  1.0000
  C   C218      1.0  0.32207  0.25353  0.37047  1.0000
  H   H381      1.0  0.39331  0.33541  0.12853  1.0000
  C   C219      1.0  0.22716  0.41632  0.98983  1.0000
  H   H382      1.0  0.24318  0.28184  0.19328  1.0000
  Fe  Fe29      1.0  0.12130  0.44976  0.97533  1.0000
  H   H383      1.0  0.08315  0.25367  0.44322  1.0000
  H   H384      1.0  0.25307  0.25057  0.26775  1.0000
  H   H385      1.0  0.35661  0.39160  0.15810  1.0000
  H   H386      1.0  0.46704  0.43005  0.28300  1.0000
  H   H387      1.0  0.34851  0.46900  0.17361  1.0000
  H   H388      1.0  0.17295  0.45711  0.25154  1.0000
  C   C220      1.0  0.33617  0.22906  0.37278  1.0000
  H   H389      1.0  0.27637  0.45593  0.38414  1.0000
  H   H390      1.0  0.42238  0.34325  0.21988  1.0000
  H   H391      1.0  0.27389  0.28846  0.41778  1.0000
  H   H392      1.0  0.34755  0.22723  0.35578  1.0000
  C   C221      1.0  0.27875  0.29580  0.43413  1.0000
  H   H393      1.0  0.29688  0.45700  0.04424  1.0000
  H   H394      1.0  0.39053  0.27180  0.26182  1.0000
  H   H395      1.0  0.34430  0.44884  0.23709  1.0000
  H   H396      1.0  0.46363  0.33581  0.22419  1.0000
  S   S58       1.0  0.25950  0.24212  0.35807  1.0000
  N   N11       1.0  0.38768  0.37312  0.09154  1.0000
  C   C222      1.0  0.38183  0.38663  0.11353  1.0000
  H   H397      1.0  0.43025  0.34472  0.16442  1.0000
  C   C223      1.0  0.37689  0.38806  0.07083  1.0000
  C   C224      1.0  0.37781  0.34892  0.09419  1.0000
  C   C225      1.0  0.34580  0.44938  0.21728  1.0000
  C   C226      1.0  0.35503  0.39467  0.11933  1.0000
  C   C227      1.0  0.38399  0.37944  0.04554  1.0000
  H   H398      1.0  0.26073  0.47106  0.11996  1.0000
  H   H399      1.0  0.04859  0.25976  0.40320  1.0000
  H   H400      1.0  0.46158  0.35222  0.08008  1.0000
  C   C228      1.0  0.35082  0.40502  0.14360  1.0000
  C   C229      1.0  0.36831  0.39275  0.02703  1.0000
  H   H401      1.0  0.39163  0.40305  0.11167  1.0000
  C   C230      1.0  0.39030  0.45031  0.21305  1.0000
  H   H402      1.0  0.05486  0.42643  0.47236  1.0000
  H   H403      1.0  0.41934  0.36128  0.06934  1.0000
  H   H404      1.0  0.38165  0.40687  0.07015  1.0000
  H   H405      1.0  0.35705  0.38896  0.07341  1.0000
  H   H406      1.0  0.35912  0.35044  0.08899  1.0000
  H   H407      1.0  0.38806  0.33712  0.08135  1.0000
  H   H408      1.0  0.05277  0.26444  0.44519  1.0000
  N   N12       1.0  0.28672  0.23102  0.23109  1.0000
  H   H409      1.0  0.34889  0.40901  0.10581  1.0000
  H   H410      1.0  0.34376  0.37958  0.11950  1.0000
  H   H411      1.0  0.38227  0.36004  0.04545  1.0000
  H   H412      1.0  0.40271  0.38308  0.03952  1.0000
  Fe  Fe30      1.0  0.16972  0.46754  0.40126  1.0000
  C   C231      1.0  0.00683  0.43207  0.46737  1.0000
  S   S59       1.0  0.46228  0.47014  0.11534  1.0000
  Fe  Fe31      1.0  0.14782  0.46221  0.01768  1.0000
  S   S60       1.0  0.34976  0.23906  0.17104  1.0000
  H   H413      1.0  0.23706  0.41121  0.31347  1.0000
  H   H414      1.0  0.38665  0.29999  0.10644  1.0000
  H   H415      1.0  0.98341  0.37278  0.38007  1.0000
  H   H416      1.0  0.18775  0.41531  0.04566  1.0000
  H   H417      1.0  0.33151  0.41029  0.14750  1.0000
  C   C232      1.0  0.43361  0.31314  0.45956  1.0000
  H   H418      1.0  0.04460  0.31026  0.46316  1.0000
  H   H419      1.0  0.44368  0.36298  0.18314  1.0000
  S   S61       1.0  0.20858  0.25346  0.38907  1.0000
  H   H420      1.0  0.44609  0.41496  0.04640  1.0000
  S   S62       1.0  0.45341  0.41637  0.13926  1.0000
  S   S63       1.0  0.18102  0.42953  0.41439  1.0000
  H   H421      1.0  0.28456  0.45592  0.18687  1.0000
  H   H422      1.0  0.12136  0.43056  0.35065  1.0000
  N   N13       1.0  0.07635  0.28982  0.42715  1.0000
  H   H423      1.0  0.32508  0.25725  0.21897  1.0000
  C   C233      1.0  0.40959  0.27480  0.25692  1.0000
  H   H424      1.0  0.26418  0.24135  0.20218  1.0000
  H   H425      1.0  0.40267  0.31042  0.24118  1.0000
  C   C234      1.0  0.29025  0.45144  0.02780  1.0000
  H   H426      1.0  0.27752  0.40167  0.41776  1.0000
  C   C235      1.0  0.43843  0.29633  0.22692  1.0000
  H   H427      1.0  0.98142  0.40536  0.46779  1.0000
  Fe  Fe32      1.0  0.46773  0.44889  0.15056  1.0000
  H   H428      1.0  0.24013  0.40215  0.98269  1.0000
  C   C236      1.0  0.37681  0.33514  0.11953  1.0000
  C   C237      1.0  0.42458  0.33382  0.20318  1.0000
  H   H429      1.0  0.14537  0.44305  0.33106  1.0000
  H   H430      1.0  0.05557  0.32424  0.42294  1.0000
  Fe  Fe33      1.0  0.22493  0.26373  0.35176  1.0000
  H   H431      1.0  0.41692  0.28106  0.27262  1.0000
  C   C238      1.0  0.09850  0.29093  0.40987  1.0000
  C   C239      1.0  0.00081  0.24780  0.46489  1.0000
  C   C240      1.0  0.27475  0.27449  0.21308  1.0000
  C   C241      1.0  0.27500  0.39691  0.43739  1.0000
  C   C242      1.0  0.42964  0.35708  0.10490  1.0000
  C   C243      1.0  0.14180  0.27754  0.39807  1.0000
  C   C244      1.0  0.25950  0.46769  0.38374  1.0000
  H   H432      1.0  0.44628  0.27708  0.46957  1.0000
  H   H433      1.0  0.42557  0.36417  0.12265  1.0000
  C   C245      1.0  0.05570  0.30581  0.41739  1.0000
  H   H434      1.0  0.00722  0.45130  0.46129  1.0000
  H   H435      1.0  0.23198  0.47410  0.02251  1.0000
  H   H436      1.0  0.38882  0.45794  0.13286  1.0000
  H   H437      1.0  0.37475  0.38743  0.00886  1.0000
  H   H438      1.0  0.34380  0.42268  0.19152  1.0000
  H   H439      1.0  0.09532  0.28562  0.39207  1.0000
  H   H440      1.0  0.98263  0.42598  0.44129  1.0000
  Fe  Fe34      1.0  0.99035  0.35808  0.43947  1.0000
  C   C246      1.0  0.05501  0.30946  0.38973  1.0000
  H   H441      1.0  0.03161  0.32544  0.36302  1.0000
  S   S64       1.0  0.11048  0.47242  0.00620  1.0000
  H   H442      1.0  0.02748  0.33927  0.39087  1.0000
  C   C247      1.0  0.43221  0.27997  0.15039  1.0000
  H   H443      1.0  0.23352  0.38946  0.29263  1.0000
  H   H444      1.0  0.28529  0.46851  0.01716  1.0000
  H   H445      1.0  0.44609  0.30167  0.24298  1.0000
  H   H446      1.0  0.30715  0.42139  0.21937  1.0000
  H   H447      1.0  0.47670  0.46325  0.38022  1.0000
  C   C248      1.0  0.08195  0.29922  0.45007  1.0000
  H   H448      1.0  0.29555  0.30463  0.42966  1.0000
  C   C249      1.0  0.18745  0.45216  0.21481  1.0000
  H   H449      1.0  0.34789  0.22909  0.38751  1.0000
  H   H450      1.0  0.41644  0.27163  0.14562  1.0000
  C   C250      1.0  0.21951  0.47025  0.17075  1.0000
  S   S65       1.0  0.15016  0.43850  0.46511  1.0000
  H   H451      1.0  0.41914  0.42777  0.26381  1.0000
  H   H452      1.0  0.25361  0.46896  0.36531  1.0000
  H   H453      1.0  0.33871  0.23229  0.31085  1.0000
  H   H454      1.0  0.34034  0.45125  0.02949  1.0000
  C   C251      1.0  0.42652  0.28998  0.17476  1.0000
  C   C252      1.0  0.32508  0.25010  0.23794  1.0000
  H   H455      1.0  0.98387  0.32171  0.32134  1.0000
  C   C253      1.0  0.29998  0.24293  0.24804  1.0000
  H   H456      1.0  0.35172  0.27339  0.24419  1.0000
  H   H457      1.0  0.16863  0.37963  0.47226  1.0000
  C   C254      1.0  0.25091  0.46261  0.13612  1.0000
  Fe  Fe35      1.0  0.98586  0.30898  0.46555  1.0000
  C   C255      1.0  0.40617  0.37123  0.18079  1.0000
  H   H458      1.0  0.98950  0.26970  0.38230  1.0000
  H   H459      1.0  0.46881  0.38153  0.43771  1.0000
  H   H460      1.0  0.40925  0.38505  0.16567  1.0000
  C   C256      1.0  0.28105  0.46842  0.20045  1.0000
  H   H461      1.0  0.30641  0.43864  0.99383  1.0000
  H   H462      1.0  0.33014  0.47114  0.00472  1.0000
  H   H463      1.0  0.40305  0.38025  0.19766  1.0000
  H   H464      1.0  0.34783  0.44374  0.99905  1.0000
  S   S66       1.0  0.39506  0.23358  0.21924  1.0000
  H   H465      1.0  0.39412  0.43303  0.20485  1.0000
  H   H466      1.0  0.17207  0.46534  0.17239  1.0000
  H   H467      1.0  0.33826  0.23418  0.23895  1.0000
  H   H468      1.0  0.37878  0.43663  0.25014  1.0000
  H   H469      1.0  0.30253  0.23084  0.26452  1.0000
  H   H470      1.0  0.29505  0.46416  0.41748  1.0000
  C   C257      1.0  0.26032  0.23383  0.45181  1.0000
  H   H471      1.0  0.45156  0.43493  0.46964  1.0000
  H   H472      1.0  0.24073  0.44853  0.13043  1.0000
  H   H473      1.0  0.22667  0.43221  0.97664  1.0000
  H   H474      1.0  0.17401  0.34890  0.46553  1.0000
  H   H475      1.0  0.98170  0.31161  0.36646  1.0000
  H   H476      1.0  0.24172  0.30483  0.44478  1.0000
  H   H477      1.0  0.22332  0.46751  0.40109  1.0000
  H   H478      1.0  0.37550  0.25100  0.46977  1.0000
  C   C258      1.0  0.05986  0.22540  0.41937  1.0000
  H   H479      1.0  0.44808  0.46910  0.98147  1.0000
  C   C259      1.0  0.18199  0.36627  0.46422  1.0000
  C   C260      1.0  0.25976  0.36590  0.46952  1.0000
  C   C261      1.0  0.26320  0.32179  0.46779  1.0000
  C   C262      1.0  0.41890  0.23139  0.45648  1.0000
  C   C263      1.0  0.22506  0.22727  0.26918  1.0000
  C   C264      1.0  0.27651  0.22752  0.46929  1.0000
  H   H480      1.0  0.40321  0.47356  0.16811  1.0000
  H   H481      1.0  0.05249  0.40204  0.89733  1.0000
  Fe  Fe36      1.0  0.03383  0.43072  0.83833  1.0000
  S   S67       1.0  0.07022  0.42877  0.85332  1.0000
  C   C265      1.0  0.98843  0.45616  0.73280  1.0000
  H   H482      1.0  0.29436  0.45359  0.49490  1.0000
  S   S68       1.0  0.12269  0.24809  0.73704  1.0000
  C   C266      1.0  0.26820  0.33503  0.51675  1.0000
  H   H483      1.0  0.98817  0.46451  0.91447  1.0000
  H   H484      1.0  0.19924  0.35973  0.49678  1.0000
  S   S69       1.0  0.38587  0.41921  0.51291  1.0000
  Fe  Fe37      1.0  0.24495  0.40580  0.74895  1.0000
  S   S70       1.0  0.28221  0.39131  0.75639  1.0000
  S   S71       1.0  0.23508  0.44169  0.72983  1.0000
  Fe  Fe38      1.0  0.22213  0.36199  0.77321  1.0000
  S   S72       1.0  0.25749  0.34452  0.78343  1.0000
  S   S73       1.0  0.18545  0.34799  0.78031  1.0000
  Fe  Fe39      1.0  0.26537  0.38071  0.79335  1.0000
  S   S74       1.0  0.27975  0.38373  0.82970  1.0000
  Fe  Fe40      1.0  0.27112  0.35666  0.74556  1.0000
  S   S75       1.0  0.29473  0.32996  0.72378  1.0000
  S   S76       1.0  0.22863  0.39709  0.78620  1.0000
  S   S77       1.0  0.23530  0.37226  0.73507  1.0000
  H   H485      1.0  0.29919  0.44062  0.66015  1.0000
  S   S78       1.0  0.34286  0.45023  0.94173  1.0000
  C   C267      1.0  0.29908  0.44768  0.67789  1.0000
  H   H486      1.0  0.41475  0.33798  0.56780  1.0000
  N   N14       1.0  0.40360  0.25731  0.49161  1.0000
  H   H487      1.0  0.08354  0.30561  0.49844  1.0000
  S   S79       1.0  0.34298  0.45839  0.86725  1.0000
  Fe  Fe41      1.0  0.37919  0.45921  0.95045  1.0000
  H   H488      1.0  0.22844  0.39190  0.84031  1.0000
  H   H489      1.0  0.42462  0.34955  0.76988  1.0000
  Fe  Fe42      1.0  0.29225  0.27661  0.59668  1.0000
  S   S80       1.0  0.29162  0.31209  0.61373  1.0000
  S   S81       1.0  0.25697  0.26446  0.58982  1.0000
  H   H490      1.0  0.06385  0.40074  0.93919  1.0000
  H   H491      1.0  0.43445  0.36078  0.55735  1.0000
  C   C268      1.0  0.29494  0.40625  0.84059  1.0000
  C   C269      1.0  0.30125  0.42670  0.82622  1.0000
  C   C270      1.0  0.31550  0.44271  0.83486  1.0000
  C   C271      1.0  0.32295  0.43898  0.85824  1.0000
  C   C272      1.0  0.31565  0.41913  0.87298  1.0000
  C   C273      1.0  0.30199  0.40276  0.86409  1.0000
  H   H492      1.0  0.29558  0.42990  0.80830  1.0000
  H   H493      1.0  0.32091  0.45803  0.82329  1.0000
  H   H494      1.0  0.32128  0.41593  0.89095  1.0000
  H   H495      1.0  0.29728  0.38702  0.87540  1.0000
  C   C274      1.0  0.29066  0.32389  0.69398  1.0000
  C   C275      1.0  0.30154  0.30259  0.68524  1.0000
  C   C276      1.0  0.30072  0.29808  0.66108  1.0000
  C   C277      1.0  0.28959  0.31517  0.64513  1.0000
  C   C278      1.0  0.27830  0.33627  0.65398  1.0000
  C   C279      1.0  0.27848  0.34046  0.67832  1.0000
  H   H496      1.0  0.31106  0.28965  0.69711  1.0000
  H   H497      1.0  0.30963  0.28184  0.65457  1.0000
  H   H498      1.0  0.26967  0.34964  0.64184  1.0000
  H   H499      1.0  0.27010  0.35697  0.68469  1.0000
  C   C280      1.0  0.41649  0.41051  0.51603  1.0000
  C   C281      1.0  0.43080  0.42467  0.52668  1.0000
  C   C282      1.0  0.45473  0.41670  0.53003  1.0000
  H   H500      1.0  0.97986  0.45012  0.75004  1.0000
  C   C283      1.0  0.45064  0.38082  0.51115  1.0000
  C   C284      1.0  0.42645  0.38841  0.50858  1.0000
  H   H501      1.0  0.42345  0.44172  0.53250  1.0000
  H   H502      1.0  0.26368  0.42561  0.49093  1.0000
  H   H503      1.0  0.02585  0.33064  0.79567  1.0000
  H   H504      1.0  0.19853  0.28282  0.66141  1.0000
  C   C285      1.0  0.04944  0.30143  0.80910  1.0000
  C   C286      1.0  0.24725  0.46632  0.73936  1.0000
  H   H505      1.0  0.37658  0.23213  0.49692  1.0000
  H   H506      1.0  0.27220  0.44559  0.76135  1.0000
  H   H507      1.0  0.21834  0.23705  0.74725  1.0000
  C   C287      1.0  0.25477  0.25547  0.49543  1.0000
  C   C288      1.0  0.07714  0.42674  0.50091  1.0000
  H   H508      1.0  0.18323  0.31263  0.72095  1.0000
  H   H509      1.0  0.97846  0.41499  0.61970  1.0000
  Fe  Fe43      1.0  0.99271  0.40679  0.81891  1.0000
  H   H510      1.0  0.05688  0.28332  0.80451  1.0000
  C   C289      1.0  0.17381  0.26834  0.78291  1.0000
  C   C290      1.0  0.15710  0.28576  0.77354  1.0000
  C   C291      1.0  0.16113  0.31008  0.77230  1.0000
  C   C292      1.0  0.18206  0.31721  0.78007  1.0000
  C   C293      1.0  0.19889  0.29981  0.78927  1.0000
  C   C294      1.0  0.19456  0.27550  0.79105  1.0000
  H   H511      1.0  0.14086  0.28050  0.76767  1.0000
  H   H512      1.0  0.14800  0.32339  0.76521  1.0000
  H   H513      1.0  0.21486  0.30513  0.79573  1.0000
  H   H514      1.0  0.20748  0.26215  0.79852  1.0000
  H   H515      1.0  0.00396  0.31060  0.75501  1.0000
  C   C295      1.0  0.99420  0.38097  0.63305  1.0000
  C   C296      1.0  0.22831  0.46873  0.81954  1.0000
  H   H516      1.0  0.17370  0.24860  0.63223  1.0000
  H   H517      1.0  0.36690  0.45678  0.57089  1.0000
  H   H518      1.0  0.03296  0.38488  0.57562  1.0000
  C   C297      1.0  0.07503  0.42985  0.88387  1.0000
  C   C298      1.0  0.09158  0.44491  0.88991  1.0000
  C   C299      1.0  0.09757  0.44456  0.91371  1.0000
  C   C300      1.0  0.08763  0.42859  0.93163  1.0000
  C   C301      1.0  0.07126  0.41340  0.92551  1.0000
  C   C302      1.0  0.06479  0.41414  0.90183  1.0000
  S   S82       1.0  0.09510  0.42675  0.96177  1.0000
  S   S83       1.0  0.16939  0.23758  0.78480  1.0000
  C   C303      1.0  0.22431  0.28205  0.72902  1.0000
  C   C304      1.0  0.25103  0.27565  0.73310  1.0000
  Fe  Fe44      1.0  0.98345  0.45503  0.84201  1.0000
  C   C305      1.0  0.25750  0.28660  0.75512  1.0000
  H   H519      1.0  0.01379  0.32612  0.70135  1.0000
  C   C306      1.0  0.40588  0.25926  0.51796  1.0000
  C   C307      1.0  0.98872  0.46165  0.68926  1.0000
  H   H520      1.0  0.24689  0.27949  0.68364  1.0000
  H   H521      1.0  0.26268  0.28259  0.71752  1.0000
  H   H522      1.0  0.25528  0.25607  0.73608  1.0000
  H   H523      1.0  0.15371  0.41509  0.93080  1.0000
  H   H524      1.0  0.41770  0.24974  0.56500  1.0000
  H   H525      1.0  0.26414  0.46481  0.67415  1.0000
  H   H526      1.0  0.17174  0.30987  0.83260  1.0000
  H   H527      1.0  0.24773  0.27873  0.77160  1.0000
  H   H528      1.0  0.27698  0.28309  0.75685  1.0000
  C   C308      1.0  0.08541  0.31480  0.69249  1.0000
  H   H529      1.0  0.25252  0.34684  0.55112  1.0000
  C   C309      1.0  0.13880  0.42194  0.82676  1.0000
  H   H530      1.0  0.18559  0.31194  0.68891  1.0000
  C   C310      1.0  0.01725  0.31292  0.73929  1.0000
  H   H531      1.0  0.44910  0.25394  0.55936  1.0000
  H   H532      1.0  0.99967  0.38706  0.96001  1.0000
  C   C311      1.0  0.31196  0.47278  0.60048  1.0000
  H   H533      1.0  0.22360  0.27481  0.48144  1.0000
  H   H534      1.0  0.22174  0.29096  0.62364  1.0000
  H   H535      1.0  0.19265  0.34003  0.85258  1.0000
  S   S84       1.0  0.99908  0.41825  0.85529  1.0000
  H   H536      1.0  0.18446  0.44350  0.54480  1.0000
  S   S85       1.0  0.20340  0.46562  0.94043  1.0000
  H   H537      1.0  0.18084  0.26878  0.72672  1.0000
  H   H538      1.0  0.47616  0.43088  0.48655  1.0000
  C   C312      1.0  0.00234  0.32177  0.71799  1.0000
  H   H539      1.0  0.44505  0.26218  0.51614  1.0000
  C   C313      1.0  0.43199  0.29024  0.47626  1.0000
  H   H540      1.0  0.15785  0.47182  0.52195  1.0000
  C   C314      1.0  0.98647  0.30278  0.71268  1.0000
  H   H541      1.0  0.04305  0.44169  0.53783  1.0000
  H   H542      1.0  0.00689  0.35027  0.76192  1.0000
  H   H543      1.0  0.21407  0.43544  0.81791  1.0000
  H   H544      1.0  0.99301  0.43483  0.50452  1.0000
  N   N15       1.0  0.11322  0.35997  0.82682  1.0000
  C   C315      1.0  0.11524  0.38526  0.83256  1.0000
  C   C316      1.0  0.08990  0.35181  0.83870  1.0000
  C   C317      1.0  0.13318  0.34425  0.83796  1.0000
  C   C318      1.0  0.11539  0.35732  0.80019  1.0000
  C   C319      1.0  0.10561  0.37886  0.78355  1.0000
  C   C320      1.0  0.14011  0.39485  0.82607  1.0000
  C   C321      1.0  0.13296  0.31693  0.83639  1.0000
  C   C322      1.0  0.06673  0.36537  0.83007  1.0000
  C   C323      1.0  0.04488  0.35847  0.84652  1.0000
  C   C324      1.0  0.10603  0.37223  0.75780  1.0000
  H   H545      1.0  0.01213  0.43983  0.53808  1.0000
  C   C325      1.0  0.21815  0.27914  0.66147  1.0000
  H   H546      1.0  0.11068  0.38696  0.85209  1.0000
  H   H547      1.0  0.10194  0.39794  0.82368  1.0000
  H   H548      1.0  0.08826  0.33288  0.83585  1.0000
  H   H549      1.0  0.08944  0.35260  0.85848  1.0000
  H   H550      1.0  0.13332  0.34728  0.85724  1.0000
  H   H551      1.0  0.15078  0.34904  0.82912  1.0000
  H   H552      1.0  0.13446  0.35381  0.79346  1.0000
  H   H553      1.0  0.10672  0.34127  0.79657  1.0000
  H   H554      1.0  0.11686  0.39400  0.78319  1.0000
  H   H555      1.0  0.08712  0.38542  0.78940  1.0000
  H   H556      1.0  0.27045  0.39348  0.91605  1.0000
  H   H557      1.0  0.14779  0.39022  0.80803  1.0000
  H   H558      1.0  0.13080  0.31284  0.81787  1.0000
  H   H559      1.0  0.11824  0.30967  0.84858  1.0000
  H   H560      1.0  0.06702  0.38493  0.82980  1.0000
  H   H561      1.0  0.06408  0.36068  0.81184  1.0000
  H   H562      1.0  0.04342  0.33892  0.84759  1.0000
  H   H563      1.0  0.04593  0.36402  0.86479  1.0000
  H   H564      1.0  0.02846  0.36770  0.83937  1.0000
  H   H565      1.0  0.12458  0.36663  0.75077  1.0000
  H   H566      1.0  0.09454  0.35750  0.75692  1.0000
  H   H567      1.0  0.09923  0.38798  0.74622  1.0000
  H   H568      1.0  0.99600  0.38274  0.92928  1.0000
  H   H569      1.0  0.21993  0.35026  0.83765  1.0000
  H   H570      1.0  0.98661  0.38824  0.74649  1.0000
  C   C326      1.0  0.26119  0.44398  0.48356  1.0000
  H   H571      1.0  0.02300  0.40405  0.62234  1.0000
  H   H572      1.0  0.14457  0.32384  0.70403  1.0000
  N   N16       1.0  0.03597  0.32865  0.74447  1.0000
  C   C327      1.0  0.05442  0.33209  0.72342  1.0000
  C   C328      1.0  0.02455  0.35254  0.75178  1.0000
  C   C329      1.0  0.04892  0.31644  0.76521  1.0000
  H   H573      1.0  0.25155  0.46464  0.91831  1.0000
  H   H574      1.0  0.15693  0.42818  0.82273  1.0000
  C   C330      1.0  0.06868  0.30906  0.71485  1.0000
  C   C331      1.0  0.03392  0.31326  0.78972  1.0000
  C   C332      1.0  0.02116  0.37298  0.73154  1.0000
  C   C333      1.0  0.00469  0.39390  0.74048  1.0000
  H   H575      1.0  0.23375  0.32454  0.50974  1.0000
  C   C334      1.0  0.01038  0.47194  0.68803  1.0000
  H   H576      1.0  0.00918  0.40751  0.49882  1.0000
  H   H577      1.0  0.06765  0.34408  0.72784  1.0000
  H   H578      1.0  0.04629  0.34140  0.70755  1.0000
  C   C335      1.0  0.01016  0.46639  0.73152  1.0000
  H   H579      1.0  0.03535  0.35989  0.76450  1.0000
  H   H580      1.0  0.06451  0.32630  0.76790  1.0000
  H   H581      1.0  0.05631  0.29819  0.76131  1.0000
  H   H582      1.0  0.02544  0.29460  0.73659  1.0000
  H   H583      1.0  0.27370  0.42258  0.69385  1.0000
  H   H584      1.0  0.28635  0.23332  0.50435  1.0000
  H   H585      1.0  0.31737  0.45140  0.68105  1.0000
  H   H586      1.0  0.08003  0.30022  0.72875  1.0000
  H   H587      1.0  0.39423  0.24698  0.52926  1.0000
  C   C336      1.0  0.22951  0.29428  0.64029  1.0000
  H   H588      1.0  0.43590  0.23338  0.52717  1.0000
  H   H589      1.0  0.03871  0.37978  0.72516  1.0000
  S   S86       1.0  0.99933  0.34245  0.47572  1.0000
  H   H590      1.0  0.27757  0.47385  0.69831  1.0000
  H   H591      1.0  0.08140  0.44510  0.49434  1.0000
  H   H592      1.0  0.23501  0.35582  0.51130  1.0000
  C   C337      1.0  0.03070  0.40388  0.56841  1.0000
  C   C338      1.0  0.46493  0.39496  0.52187  1.0000
  H   H593      1.0  0.44814  0.46498  0.49889  1.0000
  Fe  Fe45      1.0  0.35224  0.46714  0.90435  1.0000
  H   H594      1.0  0.09822  0.32752  0.69613  1.0000
  H   H595      1.0  0.99467  0.37430  0.61505  1.0000
  H   H596      1.0  0.24678  0.46261  0.81271  1.0000
  S   S87       1.0  0.25193  0.27087  0.52156  1.0000
  H   H597      1.0  0.03846  0.29957  0.82651  1.0000
  H   H598      1.0  0.43557  0.29477  0.49425  1.0000
  H   H599      1.0  0.21458  0.23821  0.61369  1.0000
  H   H600      1.0  0.05101  0.40247  0.49448  1.0000
  C   C339      1.0  0.27856  0.45978  0.48586  1.0000
  H   H601      1.0  0.07507  0.32260  0.67737  1.0000
  H   H602      1.0  0.32208  0.46283  0.63608  1.0000
  H   H603      1.0  0.35900  0.26811  0.51974  1.0000
  H   H604      1.0  0.05715  0.28280  0.47781  1.0000
  C   C340      1.0  0.98981  0.23153  0.72316  1.0000
  C   C341      1.0  0.22245  0.24563  0.70775  1.0000
  H   H605      1.0  0.19708  0.45455  0.83843  1.0000
  H   H606      1.0  0.41550  0.37721  0.50053  1.0000
  H   H607      1.0  0.15835  0.30576  0.86305  1.0000
  H   H608      1.0  0.23273  0.44917  0.86396  1.0000
  H   H609      1.0  0.33137  0.25558  0.47863  1.0000
  C   C342      1.0  0.26599  0.46330  0.75425  1.0000
  H   H610      1.0  0.45168  0.45484  0.94180  1.0000
  Fe  Fe46      1.0  0.09033  0.22873  0.75005  1.0000
  C   C343      1.0  0.21537  0.44770  0.83188  1.0000
  H   H611      1.0  0.27921  0.31898  0.51081  1.0000
  H   H612      1.0  0.26074  0.30563  0.48045  1.0000
  H   H613      1.0  0.14588  0.29540  0.69154  1.0000
  C   C344      1.0  0.20132  0.35603  0.84435  1.0000
  C   C345      1.0  0.03269  0.22712  0.72640  1.0000
  H   H614      1.0  0.10283  0.45245  0.54692  1.0000
  H   H615      1.0  0.19151  0.36390  0.82889  1.0000
  C   C346      1.0  0.17861  0.30280  0.70610  1.0000
  H   H616      1.0  0.24212  0.24187  0.70423  1.0000
  C   C347      1.0  0.00945  0.42716  0.49465  1.0000
  C   C348      1.0  0.97777  0.45372  0.71167  1.0000
  H   H617      1.0  0.22621  0.31361  0.64286  1.0000
  H   H618      1.0  0.05659  0.29611  0.71029  1.0000
  N   N17       1.0  0.24779  0.34315  0.47673  1.0000
  H   H619      1.0  0.24256  0.39864  0.93442  1.0000
  H   H620      1.0  0.21495  0.23850  0.69261  1.0000
  H   H621      1.0  0.04952  0.39627  0.53491  1.0000
  C   C349      1.0  0.00692  0.25155  0.75291  1.0000
  H   H622      1.0  0.25019  0.38112  0.47868  1.0000
  N   N18       1.0  0.03130  0.43578  0.50335  1.0000
  H   H623      1.0  0.33245  0.23982  0.50815  1.0000
  H   H624      1.0  0.39431  0.29520  0.48468  1.0000
  C   C350      1.0  0.22914  0.43489  0.85277  1.0000
  H   H625      1.0  0.30461  0.41176  0.69530  1.0000
  H   H626      1.0  0.00116  0.42511  0.91700  1.0000
  N   N19       1.0  0.35584  0.38362  0.59135  1.0000
  C   C351      1.0  0.35830  0.40891  0.58057  1.0000
  C   C352      1.0  0.33841  0.37239  0.57802  1.0000
  C   C353      1.0  0.34502  0.38487  0.61689  1.0000
  C   C354      1.0  0.37951  0.36857  0.59150  1.0000
  C   C355      1.0  0.39905  0.37450  0.57095  1.0000
  C   C356      1.0  0.37193  0.42444  0.59513  1.0000
  C   C357      1.0  0.33882  0.36074  0.63066  1.0000
  C   C358      1.0  0.34532  0.36983  0.55105  1.0000
  C   C359      1.0  0.32513  0.36024  0.53951  1.0000
  C   C360      1.0  0.38148  0.44574  0.57961  1.0000
  C   C361      1.0  0.33385  0.36309  0.65755  1.0000
  H   H627      1.0  0.34035  0.41853  0.57839  1.0000
  H   H628      1.0  0.36708  0.40922  0.56210  1.0000
  H   H629      1.0  0.33568  0.35394  0.58603  1.0000
  H   H630      1.0  0.32054  0.38264  0.57982  1.0000
  H   H631      1.0  0.32835  0.39718  0.61746  1.0000
  H   H632      1.0  0.35740  0.39257  0.62772  1.0000
  H   H633      1.0  0.38792  0.36985  0.60841  1.0000
  H   H634      1.0  0.37660  0.34932  0.59153  1.0000
  H   H635      1.0  0.40596  0.39190  0.57291  1.0000
  H   H636      1.0  0.39229  0.37567  0.55305  1.0000
  H   H637      1.0  0.35968  0.43150  0.60996  1.0000
  H   H638      1.0  0.38724  0.41389  0.60314  1.0000
  H   H639      1.0  0.35358  0.34655  0.62813  1.0000
  H   H640      1.0  0.32248  0.35478  0.62434  1.0000
  H   H641      1.0  0.34908  0.38714  0.54107  1.0000
  H   H642      1.0  0.36114  0.35678  0.54875  1.0000
  H   H643      1.0  0.33057  0.35834  0.52025  1.0000
  H   H644      1.0  0.32112  0.34243  0.54836  1.0000
  H   H645      1.0  0.30873  0.37273  0.54087  1.0000
  H   H646      1.0  0.01976  0.39451  0.65398  1.0000
  H   H647      1.0  0.24692  0.42773  0.84486  1.0000
  H   H648      1.0  0.19873  0.40526  0.83867  1.0000
  H   H649      1.0  0.33023  0.34540  0.66687  1.0000
  H   H650      1.0  0.34951  0.36914  0.66504  1.0000
  H   H651      1.0  0.31797  0.37584  0.66116  1.0000
  N   N20       1.0  0.21687  0.41529  0.86803  1.0000
  C   C362      1.0  0.23422  0.40351  0.88529  1.0000
  C   C363      1.0  0.21174  0.39726  0.85143  1.0000
  H   H652      1.0  0.01206  0.40128  0.75556  1.0000
  C   C364      1.0  0.19405  0.42619  0.88048  1.0000
  C   C365      1.0  0.18472  0.41337  0.90477  1.0000
  C   C366      1.0  0.24499  0.42065  0.90043  1.0000
  H   H653      1.0  0.42793  0.35394  0.58900  1.0000
  C   C367      1.0  0.20122  0.37410  0.86297  1.0000
  C   C368      1.0  0.15614  0.30343  0.84404  1.0000
  C   C369      1.0  0.15968  0.42390  0.91302  1.0000
  H   H654      1.0  0.45810  0.36387  0.50515  1.0000
  H   H655      1.0  0.43554  0.37865  0.76886  1.0000
  H   H656      1.0  0.24947  0.39359  0.87539  1.0000
  H   H657      1.0  0.22591  0.38977  0.89790  1.0000
  C   C370      1.0  0.03297  0.46208  0.49629  1.0000
  C   C371      1.0  0.15141  0.30475  0.70636  1.0000
  C   C372      1.0  0.25634  0.40725  0.92199  1.0000
  H   H658      1.0  0.15256  0.38690  0.83935  1.0000
  H   H659      1.0  0.19615  0.44484  0.88447  1.0000
  H   H660      1.0  0.17943  0.42793  0.86830  1.0000
  H   H661      1.0  0.19651  0.41569  0.91893  1.0000
  H   H662      1.0  0.18402  0.39400  0.90385  1.0000
  H   H663      1.0  0.25914  0.43011  0.88933  1.0000
  H   H664      1.0  0.23108  0.43418  0.90704  1.0000
  H   H665      1.0  0.11419  0.41251  0.49879  1.0000
  H   H666      1.0  0.11030  0.45624  0.91805  1.0000
  H   H667      1.0  0.21154  0.36517  0.87756  1.0000
  H   H668      1.0  0.18241  0.37818  0.86999  1.0000
  Fe  Fe47      1.0  0.01086  0.45199  0.79291  1.0000
  H   H669      1.0  0.21186  0.38171  0.47517  1.0000
  H   H670      1.0  0.02722  0.43259  0.94789  1.0000
  H   H671      1.0  0.15969  0.44333  0.91482  1.0000
  H   H672      1.0  0.30005  0.45819  0.60065  1.0000
  C   C373      1.0  0.43096  0.25290  0.52724  1.0000
  C   C374      1.0  0.02987  0.24195  0.74515  1.0000
  H   H673      1.0  0.14331  0.29680  0.72367  1.0000
  H   H674      1.0  0.22303  0.26017  0.65832  1.0000
  C   C375      1.0  0.06738  0.31450  0.49049  1.0000
  N   N21       1.0  0.35368  0.37207  0.79631  1.0000
  C   C376      1.0  0.35746  0.38318  0.81887  1.0000
  C   C377      1.0  0.33915  0.38995  0.78061  1.0000
  C   C378      1.0  0.33894  0.35107  0.80347  1.0000
  C   C379      1.0  0.37680  0.36325  0.78281  1.0000
  C   C380      1.0  0.39907  0.37698  0.78463  1.0000
  C   C381      1.0  0.36753  0.36581  0.83926  1.0000
  C   C382      1.0  0.33017  0.33902  0.78260  1.0000
  C   C383      1.0  0.34976  0.41401  0.77244  1.0000
  C   C384      1.0  0.33242  0.43081  0.75806  1.0000
  C   C385      1.0  0.37688  0.37937  0.85817  1.0000
  C   C386      1.0  0.31953  0.31556  0.79158  1.0000
  H   H675      1.0  0.34030  0.39172  0.82655  1.0000
  H   H676      1.0  0.36913  0.39806  0.81508  1.0000
  H   H677      1.0  0.33615  0.38230  0.76377  1.0000
  H   H678      1.0  0.32111  0.39403  0.78995  1.0000
  H   H679      1.0  0.32286  0.35651  0.81541  1.0000
  H   H680      1.0  0.34923  0.33678  0.81420  1.0000
  H   H681      1.0  0.37419  0.36290  0.76347  1.0000
  H   H682      1.0  0.40541  0.37340  0.80281  1.0000
  H   H683      1.0  0.39537  0.39653  0.78131  1.0000
  H   H684      1.0  0.35310  0.35525  0.84839  1.0000
  H   H685      1.0  0.38216  0.35313  0.83226  1.0000
  H   H686      1.0  0.34496  0.33516  0.76869  1.0000
  H   H687      1.0  0.31587  0.35072  0.77410  1.0000
  H   H688      1.0  0.35360  0.42340  0.78788  1.0000
  H   H689      1.0  0.36625  0.41098  0.76040  1.0000
  H   H690      1.0  0.34045  0.44787  0.75228  1.0000
  H   H691      1.0  0.32842  0.42267  0.74184  1.0000
  H   H692      1.0  0.31549  0.43493  0.76914  1.0000
  H   H693      1.0  0.38303  0.36658  0.87303  1.0000
  H   H694      1.0  0.39216  0.38941  0.85029  1.0000
  H   H695      1.0  0.36256  0.39212  0.86571  1.0000
  H   H696      1.0  0.30456  0.31864  0.80555  1.0000
  H   H697      1.0  0.31246  0.30798  0.77642  1.0000
  H   H698      1.0  0.33333  0.30236  0.79907  1.0000
  H   H699      1.0  0.42731  0.27884  0.55396  1.0000
  H   H700      1.0  0.27909  0.35054  0.51338  1.0000
  H   H701      1.0  0.31886  0.26995  0.50472  1.0000
  H   H702      1.0  0.39922  0.27749  0.52296  1.0000
  H   H703      1.0  0.27947  0.32716  0.55279  1.0000
  S   S88       1.0  0.05469  0.24942  0.75869  1.0000
  H   H704      1.0  0.14673  0.42108  0.90010  1.0000
  H   H705      1.0  0.43966  0.24123  0.48362  1.0000
  H   H706      1.0  0.13153  0.42709  0.84479  1.0000
  C   C387      1.0  0.35769  0.26706  0.50032  1.0000
  C   C388      1.0  0.05302  0.42201  0.49212  1.0000
  S   S89       1.0  0.02376  0.47057  0.75747  1.0000
  H   H707      1.0  0.09574  0.29812  0.68713  1.0000
  H   H708      1.0  0.01770  0.39549  0.53587  1.0000
  S   S90       1.0  0.30746  0.23995  0.60972  1.0000
  C   C389      1.0  0.02109  0.47424  0.70911  1.0000
  H   H709      1.0  0.39506  0.43948  0.56554  1.0000
  H   H710      1.0  0.25198  0.31520  0.54845  1.0000
  H   H711      1.0  0.29127  0.43364  0.71500  1.0000
  C   C390      1.0  0.40697  0.28091  0.47725  1.0000
  Fe  Fe48      1.0  0.27357  0.25740  0.55298  1.0000
  C   C391      1.0  0.42093  0.23748  0.48247  1.0000
  H   H712      1.0  0.01951  0.30144  0.78876  1.0000
  C   C392      1.0  0.18613  0.44410  0.52493  1.0000
  C   C393      1.0  0.25098  0.47298  0.93482  1.0000
  C   C394      1.0  0.29167  0.42775  0.69668  1.0000
  H   H713      1.0  0.99438  0.47386  0.49617  1.0000
  C   C395      1.0  0.09674  0.46827  0.53601  1.0000
  H   H714      1.0  0.03555  0.45373  0.91438  1.0000
  C   C396      1.0  0.18884  0.27631  0.70908  1.0000
  H   H715      1.0  0.22144  0.30190  0.72744  1.0000
  C   C397      1.0  0.02962  0.43188  0.53036  1.0000
  C   C398      1.0  0.26261  0.33086  0.54389  1.0000
  H   H716      1.0  0.15575  0.28407  0.84206  1.0000
  H   H717      1.0  0.35727  0.28541  0.49129  1.0000
  C   C399      1.0  0.03213  0.40547  0.54106  1.0000
  S   S91       1.0  0.00066  0.46179  0.59534  1.0000
  C   C400      1.0  0.42027  0.35557  0.57139  1.0000
  S   S92       1.0  0.30775  0.27268  0.55859  1.0000
  C   C401      1.0  0.37866  0.25077  0.48900  1.0000
  H   H718      1.0  0.17577  0.43004  0.51950  1.0000
  H   H719      1.0  0.27798  0.36421  0.47574  1.0000
  H   H720      1.0  0.38214  0.34432  0.78901  1.0000
  H   H721      1.0  0.18148  0.26631  0.69570  1.0000
  H   H722      1.0  0.07690  0.42472  0.52070  1.0000
  H   H723      1.0  0.24904  0.28935  0.63810  1.0000
  S   S93       1.0  0.02923  0.41622  0.80331  1.0000
  H   H724      1.0  0.00461  0.26297  0.76748  1.0000
  H   H725      1.0  0.21350  0.27636  0.74569  1.0000
  H   H726      1.0  0.22564  0.30425  0.68625  1.0000
  C   C402      1.0  0.41968  0.36905  0.76673  1.0000
  H   H727      1.0  0.38991  0.45718  0.59080  1.0000
  H   H728      1.0  0.01310  0.41174  0.57576  1.0000
  H   H729      1.0  0.41470  0.37325  0.74807  1.0000
  C   C403      1.0  0.01891  0.38887  0.63571  1.0000
  H   H730      1.0  0.06435  0.31237  0.81104  1.0000
  Fe  Fe49      1.0  0.37219  0.45853  0.51101  1.0000
  N   N22       1.0  0.21571  0.27212  0.70776  1.0000
  C   C404      1.0  0.22730  0.28454  0.68530  1.0000
  H   H731      1.0  0.12714  0.43096  0.81317  1.0000
  H   H732      1.0  0.26458  0.42001  0.93186  1.0000
  C   C405      1.0  0.98691  0.24633  0.74195  1.0000
  H   H733      1.0  0.04931  0.46482  0.94905  1.0000
  H   H734      1.0  0.25305  0.30621  0.75329  1.0000
  C   C406      1.0  0.43118  0.25928  0.55299  1.0000
  H   H735      1.0  0.12307  0.46165  0.50641  1.0000
  H   H736      1.0  0.04500  0.41351  0.57451  1.0000
  H   H737      1.0  0.38793  0.47259  0.82538  1.0000
  H   H738      1.0  0.01353  0.36716  0.71592  1.0000
  S   S94       1.0  0.01848  0.46749  0.82629  1.0000
  H   H739      1.0  0.03270  0.37382  0.63282  1.0000
  H   H740      1.0  0.09996  0.45679  0.87607  1.0000
  C   C407      1.0  0.02569  0.47138  0.91120  1.0000
  H   H741      1.0  0.98056  0.32175  0.79795  1.0000
  C   C408      1.0  0.33370  0.25746  0.49772  1.0000
  S   S95       1.0  0.14740  0.23069  0.67522  1.0000
  H   H742      1.0  0.00303  0.40820  0.72565  1.0000
  S   S96       1.0  0.98454  0.36881  0.81184  1.0000
  C   C409      1.0  0.99616  0.41985  0.93622  1.0000
  H   H743      1.0  0.20518  0.44018  0.51853  1.0000
  H   H744      1.0  0.05228  0.31480  0.50467  1.0000
  C   C410      1.0  0.23835  0.26154  0.47810  1.0000
  S   S97       1.0  0.38991  0.47290  0.91211  1.0000
  H   H745      1.0  0.46561  0.42777  0.53837  1.0000
  C   C411      1.0  0.04002  0.46789  0.96676  1.0000
  C   C412      1.0  0.24482  0.33977  0.50382  1.0000
  H   H746      1.0  0.01492  0.46129  0.87802  1.0000
  H   H747      1.0  0.99029  0.33769  0.72253  1.0000
  C   C413      1.0  0.18506  0.23448  0.64084  1.0000
  C   C414      1.0  0.21362  0.23021  0.73066  1.0000
  C   C415      1.0  0.27372  0.23822  0.49106  1.0000
  H   H748      1.0  0.19391  0.22993  0.73174  1.0000
  C   C416      1.0  0.20463  0.36404  0.47747  1.0000
  H   H749      1.0  0.99099  0.36594  0.64679  1.0000
  H   H750      1.0  0.99751  0.28636  0.70765  1.0000
  H   H751      1.0  0.07050  0.33325  0.48403  1.0000
  C   C417      1.0  0.00772  0.43554  0.95238  1.0000
  C   C418      1.0  0.20826  0.22864  0.63029  1.0000
  C   C419      1.0  0.00459  0.39345  0.94105  1.0000
  N   N23       1.0  0.99915  0.46179  0.95052  1.0000
  H   H752      1.0  0.32977  0.46687  0.59199  1.0000
  Fe  Fe50      1.0  0.27257  0.22765  0.60109  1.0000
  S   S98       1.0  0.33740  0.47253  0.53012  1.0000
  C   C420      1.0  0.09742  0.40961  0.49109  1.0000
  H   H753      1.0  0.09355  0.39073  0.49584  1.0000
  C   C421      1.0  0.10838  0.47355  0.51310  1.0000
  C   C422      1.0  0.28127  0.47019  0.67923  1.0000
  H   H754      1.0  0.97803  0.41162  0.65117  1.0000
  Fe  Fe51      1.0  0.17037  0.46887  0.96650  1.0000
  Fe  Fe52      1.0  0.32037  0.23471  0.57098  1.0000
  H   H755      1.0  0.03749  0.46545  0.47665  1.0000
  H   H756      1.0  0.17621  0.46759  0.49451  1.0000
  H   H757      1.0  0.04808  0.46849  0.50454  1.0000
  H   H758      1.0  0.00494  0.42789  0.97135  1.0000
  C   C423      1.0  0.17643  0.46854  0.51409  1.0000
  H   H759      1.0  0.02526  0.22621  0.48685  1.0000
  H   H760      1.0  0.02421  0.39049  0.93715  1.0000
  C   C424      1.0  0.00063  0.47263  0.92492  1.0000
  S   S99       1.0  0.40509  0.43509  0.97286  1.0000
  C   C425      1.0  0.44820  0.47436  0.94333  1.0000
  S   S100      1.0  0.00778  0.27456  0.47513  1.0000
  C   C426      1.0  0.46441  0.47468  0.49434  1.0000
  C   C427      1.0  0.01265  0.22621  0.47354  1.0000
  C   C428      1.0  0.38066  0.54068  0.31856  1.0000
  C   C429      1.0  0.00331  0.65707  0.03793  1.0000
  C   C430      1.0  0.36920  0.56325  0.36495  1.0000
  C   C431      1.0  0.30782  0.49101  0.38933  1.0000
  Fe  Fe53      1.0  0.47531  0.52285  0.33461  1.0000
  H   H761      1.0  0.24546  0.49481  0.15374  1.0000
  C   C432      1.0  0.22114  0.48731  0.05653  1.0000
  C   C433      1.0  0.43109  0.69012  0.29315  1.0000
  Fe  Fe54      1.0  0.26668  0.57431  0.28616  1.0000
  S   S101      1.0  0.30433  0.56137  0.27331  1.0000
  S   S102      1.0  0.25154  0.56194  0.32423  1.0000
  Fe  Fe55      1.0  0.26207  0.60960  0.24129  1.0000
  S   S103      1.0  0.29865  0.59837  0.22547  1.0000
  S   S104      1.0  0.24187  0.64195  0.22332  1.0000
  Fe  Fe56      1.0  0.28955  0.56105  0.23764  1.0000
  S   S105      1.0  0.30149  0.53310  0.21162  1.0000
  Fe  Fe57      1.0  0.31007  0.60002  0.26229  1.0000
  S   S106      1.0  0.34546  0.61553  0.26523  1.0000
  S   S107      1.0  0.25151  0.57199  0.25079  1.0000
  S   S108      1.0  0.27379  0.61319  0.27779  1.0000
  H   H762      1.0  0.42564  0.67288  0.30203  1.0000
  H   H763      1.0  0.04285  0.71194  0.05612  1.0000
  H   H764      1.0  0.98254  0.72385  0.99880  1.0000
  H   H765      1.0  0.23570  0.52226  0.30110  1.0000
  H   H766      1.0  0.46294  0.54203  0.15774  1.0000
  C   C434      1.0  0.44193  0.65733  0.22302  1.0000
  H   H767      1.0  0.28535  0.69282  0.25559  1.0000
  H   H768      1.0  0.21922  0.51703  0.21454  1.0000
  S   S109      1.0  0.00480  0.58326  0.99900  1.0000
  C   C435      1.0  0.40897  0.51363  0.39165  1.0000
  C   C436      1.0  0.10838  0.66534  0.15051  1.0000
  H   H769      1.0  0.46923  0.50872  0.04160  1.0000
  H   H770      1.0  0.04166  0.62162  0.00745  1.0000
  H   H771      1.0  0.33481  0.56344  0.33834  1.0000
  C   C437      1.0  0.05143  0.63531  0.01458  1.0000
  C   C438      1.0  0.41740  0.52488  0.43055  1.0000
  C   C439      1.0  0.43697  0.53635  0.41919  1.0000
  C   C440      1.0  0.44281  0.53615  0.39434  1.0000
  C   C441      1.0  0.42886  0.52480  0.38040  1.0000
  H   H772      1.0  0.47530  0.55377  0.06875  1.0000
  C   C442      1.0  0.40349  0.51331  0.41669  1.0000
  H   H773      1.0  0.29391  0.58169  0.35012  1.0000
  H   H774      1.0  0.44010  0.69219  0.23681  1.0000
  H   H775      1.0  0.18403  0.66817  0.06890  1.0000
  H   H776      1.0  0.06685  0.67015  0.97847  1.0000
  C   C443      1.0  0.06659  0.53980  0.99778  1.0000
  C   C444      1.0  0.04333  0.55001  0.00395  1.0000
  C   C445      1.0  0.03362  0.57013  0.99033  1.0000
  H   H777      1.0  0.36409  0.65196  0.33473  1.0000
  H   H778      1.0  0.31523  0.48701  0.31228  1.0000
  H   H779      1.0  0.07399  0.52438  0.00844  1.0000
  H   H780      1.0  0.03285  0.54232  0.01938  1.0000
  C   C446      1.0  0.34747  0.70456  0.00773  1.0000
  H   H781      1.0  0.37568  0.51961  0.24508  1.0000
  C   C447      1.0  0.34754  0.64646  0.26737  1.0000
  C   C448      1.0  0.33069  0.65995  0.28155  1.0000
  C   C449      1.0  0.33407  0.68388  0.28463  1.0000
  C   C450      1.0  0.35382  0.69488  0.27288  1.0000
  C   C451      1.0  0.37021  0.68162  0.25809  1.0000
  C   C452      1.0  0.36750  0.65736  0.25595  1.0000
  H   H782      1.0  0.31538  0.65177  0.29069  1.0000
  H   H783      1.0  0.32126  0.69397  0.29614  1.0000
  H   H784      1.0  0.38521  0.69005  0.24878  1.0000
  H   H785      1.0  0.38091  0.64697  0.24543  1.0000
  C   C453      1.0  0.24890  0.65016  0.19258  1.0000
  C   C454      1.0  0.25579  0.63297  0.17636  1.0000
  C   C455      1.0  0.25794  0.63976  0.15156  1.0000
  C   C456      1.0  0.25392  0.66383  0.14289  1.0000
  C   C457      1.0  0.24855  0.68114  0.15923  1.0000
  C   C458      1.0  0.24558  0.67428  0.18394  1.0000
  H   H786      1.0  0.25832  0.61432  0.18285  1.0000
  H   H787      1.0  0.26227  0.62627  0.13905  1.0000
  H   H788      1.0  0.24599  0.69977  0.15285  1.0000
  H   H789      1.0  0.24040  0.68769  0.19640  1.0000
  C   C459      1.0  0.28730  0.50641  0.21526  1.0000
  C   C460      1.0  0.27197  0.50100  0.23561  1.0000
  H   H790      1.0  0.39812  0.50473  0.38105  1.0000
  H   H791      1.0  0.24937  0.47526  0.25421  1.0000
  H   H792      1.0  0.26841  0.51347  0.24924  1.0000
  N   N24       1.0  0.19942  0.48608  0.18236  1.0000
  N   N25       1.0  0.45918  0.66767  0.26174  1.0000
  C   C461      1.0  0.42413  0.66715  0.20489  1.0000
  H   H793      1.0  0.35447  0.59034  0.38962  1.0000
  H   H794      1.0  0.18234  0.49027  0.21811  1.0000
  C   C462      1.0  0.17523  0.49328  0.14465  1.0000
  C   C463      1.0  0.20229  0.50242  0.35208  1.0000
  C   C464      1.0  0.20592  0.52043  0.36645  1.0000
  C   C465      1.0  0.22040  0.53889  0.35736  1.0000
  C   C466      1.0  0.23132  0.53976  0.33375  1.0000
  C   C467      1.0  0.22737  0.52197  0.31924  1.0000
  C   C468      1.0  0.21297  0.50344  0.32837  1.0000
  H   H795      1.0  0.19767  0.52006  0.38462  1.0000
  H   H796      1.0  0.22323  0.55257  0.36875  1.0000
  C   C469      1.0  0.29981  0.59699  0.33780  1.0000
  H   H797      1.0  0.07196  0.48157  0.97632  1.0000
  C   C470      1.0  0.46985  0.47735  0.46667  1.0000
  H   H798      1.0  0.13751  0.50644  0.14721  1.0000
  C   C471      1.0  0.28345  0.52994  0.38316  1.0000
  H   H799      1.0  0.43289  0.58557  0.00801  1.0000
  H   H800      1.0  0.44186  0.48074  0.06089  1.0000
  C   C472      1.0  0.42695  0.55244  0.99329  1.0000
  H   H801      1.0  0.29891  0.69585  0.16530  1.0000
  H   H802      1.0  0.31160  0.71637  0.19621  1.0000
  C   C473      1.0  0.28037  0.53672  0.40933  1.0000
  C   C474      1.0  0.27556  0.56375  0.41018  1.0000
  H   H803      1.0  0.45804  0.54495  0.38596  1.0000
  C   C475      1.0  0.08050  0.55010  0.97831  1.0000
  H   H804      1.0  0.03844  0.68589  0.97648  1.0000
  H   H805      1.0  0.47438  0.49538  0.37764  1.0000
  S   S110      1.0  0.41103  0.52608  0.46192  1.0000
  H   H806      1.0  0.29969  0.53830  0.37501  1.0000
  H   H807      1.0  0.26828  0.53927  0.37364  1.0000
  H   H808      1.0  0.08173  0.63098  0.98707  1.0000
  N   N26       1.0  0.04070  0.66027  0.00758  1.0000
  H   H809      1.0  0.38037  0.49801  0.16702  1.0000
  H   H810      1.0  0.39644  0.48823  0.12664  1.0000
  C   C476      1.0  0.39575  0.53253  0.29631  1.0000
  H   H811      1.0  0.22237  0.48180  0.45263  1.0000
  C   C477      1.0  0.46949  0.47931  0.38924  1.0000
  H   H812      1.0  0.04755  0.67094  0.04212  1.0000
  H   H813      1.0  0.47614  0.60555  0.32253  1.0000
  H   H814      1.0  0.30212  0.53399  0.33591  1.0000
  H   H815      1.0  0.26515  0.52850  0.41969  1.0000
  H   H816      1.0  0.29698  0.53123  0.41824  1.0000
  H   H817      1.0  0.25869  0.57028  0.40207  1.0000
  H   H818      1.0  0.27379  0.56816  0.42912  1.0000
  H   H819      1.0  0.29049  0.57314  0.40045  1.0000
  H   H820      1.0  0.01101  0.64023  0.04710  1.0000
  C   C478      1.0  0.44021  0.67320  0.24432  1.0000
  H   H821      1.0  0.10409  0.67726  0.13433  1.0000
  H   H822      1.0  0.38838  0.50440  0.42526  1.0000
  C   C479      1.0  0.35663  0.55613  0.40944  1.0000
  H   H823      1.0  0.16666  0.56299  0.44148  1.0000
  H   H824      1.0  0.41505  0.53324  0.29837  1.0000
  H   H825      1.0  0.47074  0.49629  0.25883  1.0000
  H   H826      1.0  0.21321  0.71510  0.01654  1.0000
  H   H827      1.0  0.46665  0.59696  0.29521  1.0000
  H   H828      1.0  0.32593  0.69981  0.12048  1.0000
  H   H829      1.0  0.26963  0.50842  0.34563  1.0000
  H   H830      1.0  0.17485  0.70827  0.11814  1.0000
  C   C480      1.0  0.05002  0.67734  0.02278  1.0000
  C   C481      1.0  0.05254  0.48699  0.97695  1.0000
  H   H831      1.0  0.28765  0.61308  0.34158  1.0000
  C   C482      1.0  0.42425  0.57967  0.99290  1.0000
  H   H832      1.0  0.42223  0.67127  0.25371  1.0000
  C   C483      1.0  0.45368  0.54290  0.99122  1.0000
  H   H833      1.0  0.18839  0.52320  0.18722  1.0000
  Fe  Fe58      1.0  0.24889  0.71090  0.09910  1.0000
  Fe  Fe59      1.0  0.12645  0.50185  0.98203  1.0000
  S   S111      1.0  0.25429  0.67158  0.11169  1.0000
  C   C484      1.0  0.45021  0.51276  0.03841  1.0000
  H   H834      1.0  0.16127  0.49392  0.18190  1.0000
  C   C485      1.0  0.30688  0.51437  0.33749  1.0000
  H   H835      1.0  0.21020  0.48971  0.31702  1.0000
  H   H836      1.0  0.41750  0.54529  0.01024  1.0000
  N   N27       1.0  0.28544  0.50361  0.37958  1.0000
  H   H837      1.0  0.04913  0.63132  0.03437  1.0000
  H   H838      1.0  0.15662  0.53347  0.44461  1.0000
  H   H839      1.0  0.26143  0.49254  0.41048  1.0000
  C   C486      1.0  0.23368  0.54218  0.18738  1.0000
  C   C487      1.0  0.47176  0.63485  0.29493  1.0000
  H   H840      1.0  0.42616  0.50536  0.01252  1.0000
  H   H841      1.0  0.35467  0.53707  0.40733  1.0000
  H   H842      1.0  0.44376  0.48676  0.22918  1.0000
  C   C488      1.0  0.14649  0.68493  0.15394  1.0000
  H   H843      1.0  0.29330  0.51087  0.30312  1.0000
  H   H844      1.0  0.45904  0.70463  0.26870  1.0000
  H   H845      1.0  0.37806  0.70008  0.18465  1.0000
  H   H846      1.0  0.24786  0.54568  0.19867  1.0000
  C   C489      1.0  0.03923  0.70370  0.01959  1.0000
  H   H847      1.0  0.08924  0.64276  0.01373  1.0000
  H   H848      1.0  0.39086  0.54402  0.28006  1.0000
  H   H849      1.0  0.18501  0.70962  0.00604  1.0000
  H   H850      1.0  0.21869  0.55623  0.18961  1.0000
  C   C490      1.0  0.17109  0.54419  0.44851  1.0000
  H   H851      1.0  0.24127  0.54318  0.16840  1.0000
  C   C491      1.0  0.26571  0.71728  0.98276  1.0000
  H   H852      1.0  0.24920  0.50548  0.99254  1.0000
  C   C492      1.0  0.35222  0.49296  0.23808  1.0000
  N   N28       1.0  0.33231  0.68635  0.18130  1.0000
  C   C493      1.0  0.31175  0.67985  0.16864  1.0000
  C   C494      1.0  0.32246  0.69983  0.20251  1.0000
  C   C495      1.0  0.34608  0.70339  0.16412  1.0000
  C   C496      1.0  0.34912  0.66501  0.18877  1.0000
  C   C497      1.0  0.33827  0.64075  0.19556  1.0000
  C   C498      1.0  0.31863  0.66797  0.14477  1.0000
  C   C499      1.0  0.18231  0.69030  0.12502  1.0000
  C   C500      1.0  0.30709  0.68620  0.22260  1.0000
  H   H853      1.0  0.00511  0.67706  0.00304  1.0000
  C   C501      1.0  0.35785  0.62084  0.20092  1.0000
  C   C502      1.0  0.31413  0.68504  0.12257  1.0000
  C   C503      1.0  0.45591  0.68704  0.27882  1.0000
  H   H854      1.0  0.17627  0.69950  0.18453  1.0000
  H   H855      1.0  0.30081  0.66730  0.18026  1.0000
  H   H856      1.0  0.45993  0.65647  0.21322  1.0000
  S   S112      1.0  0.43601  0.52421  0.34904  1.0000
  H   H857      1.0  0.35735  0.70535  0.98972  1.0000
  H   H858      1.0  0.35385  0.69436  0.14812  1.0000
  H   H859      1.0  0.36353  0.66171  0.17422  1.0000
  H   H860      1.0  0.35854  0.66881  0.20433  1.0000
  H   H861      1.0  0.32903  0.63518  0.18078  1.0000
  H   H862      1.0  0.32529  0.64158  0.21150  1.0000
  H   H863      1.0  0.33738  0.66005  0.14327  1.0000
  H   H864      1.0  0.30739  0.65288  0.14441  1.0000
  H   H865      1.0  0.04443  0.71193  0.00136  1.0000
  H   H866      1.0  0.20864  0.51909  0.16186  1.0000
  H   H867      1.0  0.43777  0.63887  0.22955  1.0000
  H   H868      1.0  0.31868  0.67263  0.23262  1.0000
  H   H869      1.0  0.22840  0.48950  0.07377  1.0000
  H   H870      1.0  0.25572  0.70169  0.98409  1.0000
  H   H871      1.0  0.34778  0.71883  0.04145  1.0000
  H   H872      1.0  0.36819  0.62518  0.21548  1.0000
  H   H873      1.0  0.34973  0.60385  0.20675  1.0000
  H   H874      1.0  0.37020  0.61810  0.18466  1.0000
  S   S113      1.0  0.16287  0.49378  0.99562  1.0000
  C   C504      1.0  0.01391  0.66036  0.01149  1.0000
  C   C505      1.0  0.23775  0.47561  0.46214  1.0000
  H   H875      1.0  0.37482  0.55795  0.41465  1.0000
  H   H876      1.0  0.13951  0.69039  0.17199  1.0000
  N   N29       1.0  0.45869  0.51609  0.99233  1.0000
  C   C506      1.0  0.14985  0.49367  0.13717  1.0000
  C   C507      1.0  0.44575  0.50394  0.01415  1.0000
  H   H877      1.0  0.18081  0.51161  0.14061  1.0000
  H   H878      1.0  0.18580  0.71970  0.03537  1.0000
  H   H879      1.0  0.45026  0.51421  0.16708  1.0000
  H   H880      1.0  0.29641  0.49283  0.42792  1.0000
  H   H881      1.0  0.42825  0.68532  0.19714  1.0000
  H   H882      1.0  0.24072  0.50404  0.19288  1.0000
  C   C508      1.0  0.46450  0.61118  0.30779  1.0000
  H   H883      1.0  0.21448  0.50515  0.04851  1.0000
  H   H884      1.0  0.38130  0.49609  0.20985  1.0000
  H   H885      1.0  0.43683  0.64191  0.28138  1.0000
  H   H886      1.0  0.00784  0.64574  0.00226  1.0000
  H   H887      1.0  0.41729  0.69784  0.28112  1.0000
  C   C509      1.0  0.22525  0.51744  0.19513  1.0000
  H   H888      1.0  0.28180  0.71626  0.23177  1.0000
  C   C510      1.0  0.08737  0.60481  0.01652  1.0000
  C   C511      1.0  0.13540  0.66116  0.15166  1.0000
  C   C512      1.0  0.35633  0.51796  0.24426  1.0000
  C   C513      1.0  0.46364  0.52293  0.15425  1.0000
  H   H889      1.0  0.00680  0.67217  0.04797  1.0000
  H   H890      1.0  0.45113  0.48440  0.01558  1.0000
  H   H891      1.0  0.35198  0.49944  0.20028  1.0000
  H   H892      1.0  0.32228  0.50337  0.38748  1.0000
  H   H893      1.0  0.10082  0.64803  0.14955  1.0000
  H   H894      1.0  0.08600  0.60317  0.03642  1.0000
  C   C514      1.0  0.18109  0.70351  0.16505  1.0000
  H   H895      1.0  0.29533  0.69276  0.12387  1.0000
  H   H896      1.0  0.20882  0.67724  0.08273  1.0000
  H   H897      1.0  0.45881  0.52164  0.13576  1.0000
  C   C515      1.0  0.19564  0.47769  0.20871  1.0000
  H   H898      1.0  0.21250  0.47774  0.21748  1.0000
  H   H899      1.0  0.22276  0.49075  0.13492  1.0000
  H   H900      1.0  0.42531  0.65531  0.19009  1.0000
  N   N30       1.0  0.17339  0.68449  0.15091  1.0000
  C   C516      1.0  0.18570  0.66080  0.15974  1.0000
  C   C517      1.0  0.20459  0.51199  0.18070  1.0000
  H   H901      1.0  0.33262  0.49172  0.23883  1.0000
  H   H902      1.0  0.14295  0.65235  0.13558  1.0000
  H   H903      1.0  0.43250  0.58788  0.97576  1.0000
  C   C518      1.0  0.18221  0.65396  0.18716  1.0000
  S   S114      1.0  0.11586  0.50200  0.47046  1.0000
  C   C519      1.0  0.17645  0.67342  0.10671  1.0000
  H   H904      1.0  0.38444  0.65612  0.30844  1.0000
  C   C520      1.0  0.18816  0.62724  0.19332  1.0000
  H   H905      1.0  0.20529  0.66058  0.15496  1.0000
  H   H906      1.0  0.18030  0.64599  0.15047  1.0000
  C   C521      1.0  0.36377  0.48821  0.21259  1.0000
  H   H907      1.0  0.43845  0.50755  0.07618  1.0000
  C   C522      1.0  0.07838  0.62997  0.00688  1.0000
  S   S115      1.0  0.18483  0.47825  0.36283  1.0000
  H   H908      1.0  0.13869  0.64836  0.16747  1.0000
  H   H909      1.0  0.21213  0.49161  0.98047  1.0000
  H   H910      1.0  0.19439  0.66357  0.19648  1.0000
  H   H911      1.0  0.16366  0.65884  0.19452  1.0000
  H   H912      1.0  0.20208  0.69089  0.12352  1.0000
  H   H913      1.0  0.18219  0.65451  0.11200  1.0000
  H   H914      1.0  0.15701  0.67546  0.10462  1.0000
  H   H915      1.0  0.13857  0.69894  0.14096  1.0000
  H   H916      1.0  0.33714  0.70588  0.21166  1.0000
  H   H917      1.0  0.24701  0.50474  0.38542  1.0000
  C   C523      1.0  0.38457  0.47888  0.16393  1.0000
  H   H918      1.0  0.18716  0.62331  0.21310  1.0000
  H   H919      1.0  0.17532  0.61672  0.18601  1.0000
  H   H920      1.0  0.20656  0.62163  0.18595  1.0000
  C   C524      1.0  0.24036  0.47588  0.03918  1.0000
  N   N31       1.0  0.36806  0.57850  0.34143  1.0000
  C   C525      1.0  0.37680  0.60247  0.34429  1.0000
  H   H921      1.0  0.45933  0.62939  0.26133  1.0000
  C   C526      1.0  0.38529  0.56652  0.32309  1.0000
  C   C527      1.0  0.34324  0.58043  0.33300  1.0000
  C   C528      1.0  0.32548  0.60140  0.34128  1.0000
  C   C529      1.0  0.38054  0.61899  0.32079  1.0000
  H   H922      1.0  0.47035  0.64793  0.30858  1.0000
  C   C530      1.0  0.38136  0.64505  0.32568  1.0000
  H   H923      1.0  0.39424  0.59996  0.35239  1.0000
  H   H924      1.0  0.36468  0.61251  0.35718  1.0000
  H   H925      1.0  0.38784  0.56134  0.37041  1.0000
  H   H926      1.0  0.40398  0.56597  0.32819  1.0000
  H   H927      1.0  0.38499  0.57709  0.30535  1.0000
  H   H928      1.0  0.34402  0.58239  0.31302  1.0000
  H   H929      1.0  0.32957  0.61827  0.33050  1.0000
  H   H930      1.0  0.39771  0.61329  0.31074  1.0000
  H   H931      1.0  0.36608  0.61811  0.30907  1.0000
  H   H932      1.0  0.07685  0.59127  0.01036  1.0000
  H   H933      1.0  0.29834  0.59306  0.31909  1.0000
  H   H934      1.0  0.25224  0.50983  0.45754  1.0000
  H   H935      1.0  0.39604  0.64687  0.33702  1.0000
  H   H936      1.0  0.09985  0.67350  0.16676  1.0000
  C   C531      1.0  0.46266  0.48135  0.22677  1.0000
  H   H937      1.0  0.32815  0.70948  0.00589  1.0000
  H   H938      1.0  0.32614  0.60439  0.36031  1.0000
  H   H939      1.0  0.38565  0.52791  0.33389  1.0000
  H   H940      1.0  0.31721  0.67510  0.10630  1.0000
  H   H941      1.0  0.18823  0.53748  0.43906  1.0000
  H   H942      1.0  0.10636  0.60090  0.00987  1.0000
  H   H943      1.0  0.34352  0.56194  0.42420  1.0000
  H   H944      1.0  0.41638  0.50230  0.05658  1.0000
  H   H945      1.0  0.39262  0.51382  0.29389  1.0000
  C   C532      1.0  0.29496  0.70320  0.24052  1.0000
  H   H946      1.0  0.20090  0.70365  0.16295  1.0000
  H   H947      1.0  0.44328  0.69929  0.32648  1.0000
  C   C533      1.0  0.43573  0.50003  0.05922  1.0000
  H   H948      1.0  0.44779  0.54539  0.42972  1.0000
  H   H949      1.0  0.40560  0.66809  0.21349  1.0000
  H   H950      1.0  0.33339  0.57020  0.38281  1.0000
  H   H951      1.0  0.36468  0.54484  0.36309  1.0000
  C   C534      1.0  0.35217  0.57170  0.38629  1.0000
  C   C535      1.0  0.99141  0.72433  0.98093  1.0000
  H   H952      1.0  0.26260  0.71985  0.02081  1.0000
  C   C536      1.0  0.19393  0.72127  0.01660  1.0000
  C   C537      1.0  0.04738  0.66794  0.98159  1.0000
  H   H953      1.0  0.36166  0.53933  0.31584  1.0000
  H   H954      1.0  0.29278  0.67732  0.21577  1.0000
  H   H955      1.0  0.45230  0.48374  0.45965  1.0000
  H   H956      1.0  0.34967  0.68593  0.01606  1.0000
  H   H957      1.0  0.44547  0.53222  0.03891  1.0000
  H   H958      1.0  0.14969  0.49934  0.11771  1.0000
  C   C538      1.0  0.45579  0.64323  0.27433  1.0000
  H   H959      1.0  0.46277  0.55044  0.00517  1.0000
  C   C539      1.0  0.31011  0.50651  0.31206  1.0000
  H   H960      1.0  0.32422  0.51063  0.34545  1.0000
  C   C540      1.0  0.26292  0.49304  0.39066  1.0000
  H   H961      1.0  0.06963  0.67786  0.01879  1.0000
  C   C541      1.0  0.18913  0.67984  0.08203  1.0000
  H   H962      1.0  0.30353  0.49439  0.18180  1.0000
  C   C542      1.0  0.24977  0.49612  0.97659  1.0000
  C   C543      1.0  0.29176  0.49015  0.19763  1.0000
  H   H963      1.0  0.41293  0.71024  0.32153  1.0000
  H   H964      1.0  0.33390  0.71878  0.15730  1.0000
  C   C544      1.0  0.36714  0.71390  0.17414  1.0000
  H   H965      1.0  0.32448  0.51604  0.30151  1.0000
  H   H966      1.0  0.44570  0.61306  0.31569  1.0000
  C   C545      1.0  0.43127  0.70710  0.31270  1.0000
  C   C546      1.0  0.28686  0.50147  0.35289  1.0000
  H   H967      1.0  0.34930  0.53177  0.23069  1.0000
  H   H968      1.0  0.34691  0.52137  0.26197  1.0000
  C   C547      1.0  0.25485  0.49142  0.46473  1.0000
  H   H969      1.0  0.39250  0.71132  0.14251  1.0000
  H   H970      1.0  0.01948  0.70516  0.02239  1.0000
  H   H971      1.0  0.37637  0.71564  0.02494  1.0000
  S   S116      1.0  0.17768  0.48272  0.43481  1.0000
  H   H972      1.0  0.18403  0.69873  0.07575  1.0000
  H   H973      1.0  0.04566  0.48914  0.99584  1.0000
  H   H974      1.0  0.41783  0.54750  0.97809  1.0000
  H   H975      1.0  0.40502  0.58608  0.99460  1.0000
  H   H976      1.0  0.30834  0.71302  0.24792  1.0000
  H   H977      1.0  0.25447  0.48843  0.03513  1.0000
  H   H978      1.0  0.46157  0.55128  0.97393  1.0000
  C   C548      1.0  0.26126  0.47934  0.23841  1.0000
  H   H979      1.0  0.18668  0.48093  0.13335  1.0000
  H   H980      1.0  0.47238  0.49610  0.42132  1.0000
  C   C549      1.0  0.04831  0.71875  0.03742  1.0000
  H   H981      1.0  0.46948  0.68436  0.29204  1.0000
  H   H982      1.0  0.31500  0.47595  0.37856  1.0000
  H   H983      1.0  0.06807  0.71862  0.03487  1.0000
  Fe  Fe60      1.0  0.14005  0.47549  0.44916  1.0000
  H   H984      1.0  0.28958  0.48237  0.34910  1.0000
  H   H985      1.0  0.44977  0.47940  0.39164  1.0000
  H   H986      1.0  0.34058  0.48747  0.42483  1.0000
  C   C550      1.0  0.23418  0.48150  0.14840  1.0000
  C   C551      1.0  0.17630  0.48426  0.17142  1.0000
  H   H987      1.0  0.35914  0.48001  0.25226  1.0000
  C   C552      1.0  0.30552  0.48002  0.41573  1.0000
  H   H988      1.0  0.36547  0.48227  0.13161  1.0000
  H   H989      1.0  0.20580  0.47616  0.05999  1.0000
  C   C553      1.0  0.35728  0.72139  0.02334  1.0000
  C   C554      1.0  0.38365  0.47663  0.13717  1.0000
  S   S117      1.0  0.29795  0.49897  0.97355  1.0000
  S   S118      1.0  0.23453  0.72481  0.06404  1.0000
  S   S119      1.0  0.35800  0.72474  0.27795  1.0000
  H   H990      1.0  0.43734  0.72457  0.30497  1.0000
  H   H991      1.0  0.14329  0.47558  0.14042  1.0000
  H   H992      1.0  0.22399  0.64340  0.81173  1.0000
  H   H993      1.0  0.30870  0.50066  0.84191  1.0000
  C   C555      1.0  0.36113  0.62680  0.87366  1.0000
  H   H994      1.0  0.03901  0.53281  0.67073  1.0000
  S   S120      1.0  0.01557  0.50550  0.62353  1.0000
  H   H995      1.0  0.98250  0.51617  0.84088  1.0000
  C   C556      1.0  0.34122  0.54169  0.85598  1.0000
  Fe  Fe61      1.0  0.27948  0.58820  0.67932  1.0000
  S   S121      1.0  0.24995  0.57225  0.70375  1.0000
  S   S122      1.0  0.28095  0.57853  0.64039  1.0000
  Fe  Fe62      1.0  0.29465  0.61460  0.72031  1.0000
  S   S123      1.0  0.26705  0.59942  0.74693  1.0000
  S   S124      1.0  0.31703  0.64223  0.73187  1.0000
  Fe  Fe63      1.0  0.27734  0.56493  0.73050  1.0000
  S   S125      1.0  0.28526  0.53068  0.75404  1.0000
  Fe  Fe64      1.0  0.24227  0.60855  0.71779  1.0000
  S   S126      1.0  0.20558  0.62542  0.73063  1.0000
  S   S127      1.0  0.30732  0.57920  0.70566  1.0000
  S   S128      1.0  0.26949  0.62532  0.69153  1.0000
  Fe  Fe65      1.0  0.35756  0.50304  0.53824  1.0000
  H   H996      1.0  0.19688  0.51035  0.47581  1.0000
  S   S129      1.0  0.35718  0.51438  0.57647  1.0000
  H   H997      1.0  0.37935  0.71180  0.90309  1.0000
  H   H998      1.0  0.39322  0.70532  0.81827  1.0000
  C   C557      1.0  0.98746  0.70698  0.96579  1.0000
  C   C558      1.0  0.34723  0.54216  0.78721  1.0000
  H   H999      1.0  0.98750  0.64479  0.88538  1.0000
  S   S130      1.0  0.34967  0.52572  0.50431  1.0000
  N   N32       1.0  0.33762  0.53231  0.81182  1.0000
  S   S131      1.0  0.38939  0.54516  0.91650  1.0000
  S   S132      1.0  0.31389  0.66937  0.83954  1.0000
  H   H1000     1.0  0.00134  0.67130  0.87314  1.0000
  C   C559      1.0  0.42002  0.54886  0.91779  1.0000
  C   C560      1.0  0.42638  0.56957  0.92663  1.0000
  C   C561      1.0  0.45052  0.57385  0.92677  1.0000
  C   C562      1.0  0.07719  0.48319  0.54483  1.0000
  C   C563      1.0  0.99362  0.65513  0.86850  1.0000
  C   C564      1.0  0.43804  0.53253  0.90877  1.0000
  H   H1001     1.0  0.41253  0.58233  0.93345  1.0000
  H   H1002     1.0  0.45516  0.58993  0.93343  1.0000
  H   H1003     1.0  0.43334  0.51673  0.90149  1.0000
  C   C565      1.0  0.31458  0.65006  0.76184  1.0000
  C   C566      1.0  0.32026  0.67281  0.76647  1.0000
  C   C567      1.0  0.31918  0.67935  0.79014  1.0000
  C   C568      1.0  0.31306  0.66291  0.80943  1.0000
  C   C569      1.0  0.30752  0.64012  0.80481  1.0000
  C   C570      1.0  0.30791  0.63384  0.78113  1.0000
  H   H1004     1.0  0.32558  0.68541  0.75165  1.0000
  H   H1005     1.0  0.32382  0.69682  0.79347  1.0000
  H   H1006     1.0  0.30289  0.62725  0.81962  1.0000
  H   H1007     1.0  0.30358  0.61628  0.77782  1.0000
  C   C571      1.0  0.26956  0.50622  0.74957  1.0000
  H   H1008     1.0  0.99417  0.63489  0.76736  1.0000
  C   C572      1.0  0.25012  0.50924  0.73567  1.0000
  C   C573      1.0  0.40909  0.70520  0.86391  1.0000
  H   H1009     1.0  0.24371  0.52688  0.72867  1.0000
  C   C574      1.0  0.30283  0.56151  0.62248  1.0000
  C   C575      1.0  0.29693  0.55485  0.60042  1.0000
  C   C576      1.0  0.31345  0.54097  0.58582  1.0000
  C   C577      1.0  0.33617  0.53348  0.59314  1.0000
  C   C578      1.0  0.34211  0.54026  0.61515  1.0000
  C   C579      1.0  0.32565  0.55432  0.62963  1.0000
  H   H1010     1.0  0.27942  0.56048  0.59456  1.0000
  H   H1011     1.0  0.30856  0.53594  0.56899  1.0000
  H   H1012     1.0  0.35962  0.53465  0.62101  1.0000
  H   H1013     1.0  0.33061  0.55951  0.64637  1.0000
  H   H1014     1.0  0.32246  0.56377  0.82879  1.0000
  H   H1015     1.0  0.36546  0.58071  0.75777  1.0000
  H   H1016     1.0  0.39709  0.63692  0.93142  1.0000
  H   H1017     1.0  0.02914  0.51099  0.50248  1.0000
  Fe  Fe66      1.0  0.97804  0.65161  0.93904  1.0000
  H   H1018     1.0  0.98532  0.56116  0.93324  1.0000
  C   C580      1.0  0.16942  0.69963  0.70806  1.0000
  C   C581      1.0  0.16289  0.68741  0.73013  1.0000
  C   C582      1.0  0.17435  0.66488  0.73680  1.0000
  C   C583      1.0  0.19299  0.65452  0.72181  1.0000
  C   C584      1.0  0.20014  0.66702  0.70001  1.0000
  C   C585      1.0  0.18814  0.68933  0.69303  1.0000
  H   H1019     1.0  0.14866  0.69503  0.74194  1.0000
  H   H1020     1.0  0.16870  0.65538  0.75369  1.0000
  H   H1021     1.0  0.21439  0.65918  0.68822  1.0000
  H   H1022     1.0  0.19339  0.69863  0.67590  1.0000
  C   C586      1.0  0.31144  0.50031  0.67090  1.0000
  C   C587      1.0  0.46860  0.55761  0.91774  1.0000
  H   H1023     1.0  0.34657  0.50163  0.83654  1.0000
  Fe  Fe67      1.0  0.98756  0.47943  0.62875  1.0000
  H   H1024     1.0  0.07577  0.52528  0.49716  1.0000
  H   H1025     1.0  0.05175  0.50737  0.83989  1.0000
  C   C588      1.0  0.31192  0.50620  0.69723  1.0000
  H   H1026     1.0  0.97951  0.67372  0.83729  1.0000
  C   C589      1.0  0.10090  0.49409  0.49891  1.0000
  C   C590      1.0  0.04043  0.65153  0.96331  1.0000
  H   H1027     1.0  0.38415  0.52762  0.82365  1.0000
  Fe  Fe68      1.0  0.98787  0.52966  0.60446  1.0000
  C   C591      1.0  0.06961  0.50368  0.53062  1.0000
  C   C592      1.0  0.08158  0.50922  0.50789  1.0000
  H   H1028     1.0  0.07606  0.61951  0.64377  1.0000
  S   S133      1.0  0.98386  0.56880  0.61357  1.0000
  H   H1029     1.0  0.05480  0.51551  0.53734  1.0000
  H   H1030     1.0  0.98889  0.54441  0.75346  1.0000
  H   H1031     1.0  0.23196  0.64586  0.90161  1.0000
  H   H1032     1.0  0.33608  0.51779  0.72061  1.0000
  C   C593      1.0  0.23916  0.54780  0.51507  1.0000
  C   C594      1.0  0.26905  0.51235  0.66898  1.0000
  H   H1033     1.0  0.35034  0.49822  0.69892  1.0000
  H   H1034     1.0  0.00231  0.66518  0.76358  1.0000
  H   H1035     1.0  0.10656  0.50387  0.91330  1.0000
  C   C595      1.0  0.24428  0.50978  0.66006  1.0000
  H   H1036     1.0  0.30068  0.67321  0.91905  1.0000
  C   C596      1.0  0.06985  0.61502  0.66287  1.0000
  C   C597      1.0  0.05188  0.65826  0.93817  1.0000
  H   H1037     1.0  0.99205  0.65418  0.80586  1.0000
  C   C598      1.0  0.22680  0.53131  0.66558  1.0000
  C   C599      1.0  0.33646  0.51321  0.70179  1.0000
  C   C600      1.0  0.27719  0.48325  0.75929  1.0000
  H   H1038     1.0  0.33865  0.64646  0.94966  1.0000
  H   H1039     1.0  0.00478  0.52106  0.70028  1.0000
  H   H1040     1.0  0.27508  0.52977  0.66076  1.0000
  H   H1041     1.0  0.26568  0.51429  0.68845  1.0000
  H   H1042     1.0  0.34118  0.52914  0.68970  1.0000
  H   H1043     1.0  0.12820  0.51307  0.58274  1.0000
  S   S134      1.0  0.36415  0.47743  0.47523  1.0000
  S   S135      1.0  0.29658  0.50415  0.47821  1.0000
  H   H1044     1.0  0.32230  0.69992  0.94103  1.0000
  H   H1045     1.0  0.08304  0.65458  0.76663  1.0000
  H   H1046     1.0  0.08017  0.61793  0.69810  1.0000
  S   S136      1.0  0.00089  0.51645  0.56813  1.0000
  H   H1047     1.0  0.20146  0.52648  0.53942  1.0000
  H   H1048     1.0  0.10455  0.61330  0.67558  1.0000
  H   H1049     1.0  0.45503  0.49626  0.52428  1.0000
  H   H1050     1.0  0.21308  0.70336  0.73212  1.0000
  H   H1051     1.0  0.35482  0.57385  0.86593  1.0000
  N   N33       1.0  0.28830  0.49244  0.66423  1.0000
  S   S137      1.0  0.32198  0.71289  0.88681  1.0000
  H   H1052     1.0  0.00785  0.64413  0.85852  1.0000
  H   H1053     1.0  0.29210  0.48083  0.77026  1.0000
  H   H1054     1.0  0.22377  0.53255  0.68523  1.0000
  H   H1055     1.0  0.23378  0.54810  0.65691  1.0000
  H   H1056     1.0  0.20939  0.52939  0.65863  1.0000
  H   H1057     1.0  0.04511  0.64748  0.92517  1.0000
  H   H1058     1.0  0.00575  0.55520  0.95627  1.0000
  H   H1059     1.0  0.24967  0.63715  0.87470  1.0000
  H   H1060     1.0  0.33734  0.56839  0.93904  1.0000
  H   H1061     1.0  0.32724  0.52990  0.86326  1.0000
  C   C601      1.0  0.08689  0.62322  0.67938  1.0000
  H   H1062     1.0  0.24755  0.62109  0.80339  1.0000
  H   H1063     1.0  0.21868  0.66597  0.75877  1.0000
  C   C602      1.0  0.31226  0.52680  0.80987  1.0000
  C   C603      1.0  0.27505  0.50735  0.82721  1.0000
  H   H1064     1.0  0.34986  0.56295  0.74009  1.0000
  H   H1065     1.0  0.19629  0.48584  0.53795  1.0000
  C   C604      1.0  0.98498  0.52619  0.75049  1.0000
  H   H1066     1.0  0.35284  0.61992  0.85885  1.0000
  H   H1067     1.0  0.45239  0.69136  0.87867  1.0000
  H   H1068     1.0  0.31605  0.56251  0.77179  1.0000
  H   H1069     1.0  0.45781  0.48394  0.92773  1.0000
  H   H1070     1.0  0.05150  0.62359  0.66659  1.0000
  H   H1071     1.0  0.24817  0.70503  0.79050  1.0000
  C   C605      1.0  0.99890  0.70730  0.94266  1.0000
  H   H1072     1.0  0.31197  0.51435  0.79567  1.0000
  N   N34       1.0  0.30432  0.63464  0.91923  1.0000
  C   C606      1.0  0.30984  0.61339  0.93687  1.0000
  C   C607      1.0  0.30598  0.65725  0.93111  1.0000
  C   C608      1.0  0.27870  0.63430  0.91353  1.0000
  H   H1073     1.0  0.28892  0.47649  0.93153  1.0000
  H   H1074     1.0  0.28145  0.66196  0.88293  1.0000
  C   C609      1.0  0.30440  0.58889  0.92919  1.0000
  C   C610      1.0  0.26842  0.65638  0.89791  1.0000
  H   H1075     1.0  0.28956  0.70497  0.68167  1.0000
  H   H1076     1.0  0.41752  0.62323  0.90878  1.0000
  H   H1077     1.0  0.00933  0.53047  0.90957  1.0000
  C   C611      1.0  0.31772  0.56802  0.94313  1.0000
  C   C612      1.0  0.24571  0.65137  0.88721  1.0000
  H   H1078     1.0  0.00209  0.51662  0.74405  1.0000
  H   H1079     1.0  0.99422  0.49184  0.92395  1.0000
  S   S138      1.0  0.06360  0.47605  0.57403  1.0000
  C   C613      1.0  0.07082  0.57032  0.96487  1.0000
  H   H1080     1.0  0.26664  0.63253  0.93038  1.0000
  H   H1081     1.0  0.27672  0.61838  0.90388  1.0000
  H   H1082     1.0  0.31231  0.62516  0.88250  1.0000
  H   H1083     1.0  0.22354  0.53341  0.48705  1.0000
  H   H1084     1.0  0.23405  0.51169  0.51007  1.0000
  H   H1085     1.0  0.31598  0.51655  0.65927  1.0000
  H   H1086     1.0  0.28496  0.58679  0.93270  1.0000
  H   H1087     1.0  0.30926  0.58752  0.90980  1.0000
  C   C614      1.0  0.37972  0.51088  0.81692  1.0000
  H   H1088     1.0  0.15547  0.54981  0.48386  1.0000
  H   H1089     1.0  0.18913  0.70569  0.76930  1.0000
  C   C615      1.0  0.46223  0.53706  0.90847  1.0000
  Fe  Fe69      1.0  0.33119  0.48779  0.95063  1.0000
  H   H1090     1.0  0.03585  0.56072  0.65244  1.0000
  H   H1091     1.0  0.02076  0.65322  0.96259  1.0000
  H   H1092     1.0  0.29391  0.53008  0.84559  1.0000
  H   H1093     1.0  0.15867  0.49220  0.55653  1.0000
  C   C616      1.0  0.22426  0.52949  0.50666  1.0000
  C   C617      1.0  0.27158  0.49132  0.96320  1.0000
  C   C618      1.0  0.47306  0.72287  0.95204  1.0000
  H   H1094     1.0  0.24113  0.54433  0.53459  1.0000
  C   C619      1.0  0.18006  0.51705  0.48585  1.0000
  C   C620      1.0  0.15515  0.51177  0.55253  1.0000
  H   H1095     1.0  0.23844  0.66784  0.87698  1.0000
  C   C621      1.0  0.98729  0.65384  0.76876  1.0000
  Fe  Fe70      1.0  0.98313  0.60569  0.97174  1.0000
  N   N35       1.0  0.24147  0.69511  0.75553  1.0000
  H   H1096     1.0  0.42516  0.66869  0.93199  1.0000
  N   N36       1.0  0.10356  0.66115  0.69184  1.0000
  C   C622      1.0  0.08989  0.66118  0.71622  1.0000
  C   C623      1.0  0.08869  0.65061  0.67522  1.0000
  C   C624      1.0  0.12724  0.64671  0.69416  1.0000
  C   C625      1.0  0.10822  0.68615  0.68173  1.0000
  S   S139      1.0  0.36647  0.49535  0.96205  1.0000
  C   C626      1.0  0.10128  0.67327  0.73545  1.0000
  C   C627      1.0  0.14323  0.64396  0.67040  1.0000
  C   C628      1.0  0.98563  0.71538  0.74621  1.0000
  H   H1097     1.0  0.03000  0.52577  0.93240  1.0000
  C   C629      1.0  0.03129  0.55168  0.67050  1.0000
  C   C630      1.0  0.08507  0.67316  0.75879  1.0000
  C   C631      1.0  0.16360  0.62443  0.67371  1.0000
  H   H1098     1.0  0.08754  0.64258  0.72388  1.0000
  H   H1099     1.0  0.07145  0.66983  0.71477  1.0000
  H   H1100     1.0  0.07006  0.65908  0.67667  1.0000
  H   H1101     1.0  0.09530  0.65478  0.65614  1.0000
  H   H1102     1.0  0.12464  0.62875  0.70354  1.0000
  H   H1103     1.0  0.13828  0.65514  0.70577  1.0000
  H   H1104     1.0  0.12176  0.69327  0.69158  1.0000
  H   H1105     1.0  0.11643  0.68599  0.66296  1.0000
  H   H1106     1.0  0.04623  0.63262  0.96813  1.0000
  H   H1107     1.0  0.31318  0.56864  0.96272  1.0000
  H   H1108     1.0  0.11855  0.66353  0.73971  1.0000
  H   H1109     1.0  0.10436  0.69211  0.72949  1.0000
  H   H1110     1.0  0.15126  0.66100  0.66441  1.0000
  H   H1111     1.0  0.13314  0.63929  0.65582  1.0000
  H   H1112     1.0  0.07160  0.65470  0.93756  1.0000
  H   H1113     1.0  0.30103  0.54318  0.80405  1.0000
  H   H1114     1.0  0.21867  0.47692  0.80405  1.0000
  H   H1115     1.0  0.32260  0.57357  0.87034  1.0000
  H   H1116     1.0  0.41982  0.71047  0.93643  1.0000
  C   C632      1.0  0.45964  0.49892  0.50463  1.0000
  H   H1117     1.0  0.11660  0.50979  0.55466  1.0000
  H   H1118     1.0  0.32874  0.61201  0.94104  1.0000
  C   C633      1.0  0.23029  0.67436  0.76989  1.0000
  C   C634      1.0  0.00416  0.55275  0.67555  1.0000
  H   H1119     1.0  0.07121  0.69807  0.67324  1.0000
  H   H1120     1.0  0.17560  0.62382  0.65691  1.0000
  H   H1121     1.0  0.17431  0.62804  0.68829  1.0000
  H   H1122     1.0  0.15650  0.60671  0.67812  1.0000
  H   H1123     1.0  0.23078  0.56621  0.51127  1.0000
  H   H1124     1.0  0.37934  0.61763  0.87482  1.0000
  C   C635      1.0  0.25689  0.68519  0.73470  1.0000
  H   H1125     1.0  0.28610  0.50654  0.62720  1.0000
  H   H1126     1.0  0.06920  0.59535  0.66590  1.0000
  H   H1127     1.0  0.00191  0.71311  0.77967  1.0000
  H   H1128     1.0  0.38735  0.51057  0.79799  1.0000
  C   C636      1.0  0.24787  0.65429  0.78063  1.0000
  C   C637      1.0  0.26942  0.70340  0.71655  1.0000
  C   C638      1.0  0.28027  0.69170  0.69414  1.0000
  H   H1129     1.0  0.01402  0.49318  0.87967  1.0000
  H   H1130     1.0  0.98798  0.58112  0.72410  1.0000
  C   C639      1.0  0.23451  0.63540  0.79634  1.0000
  H   H1131     1.0  0.34143  0.55564  0.89057  1.0000
  S   S140      1.0  0.11034  0.53925  0.97069  1.0000
  H   H1132     1.0  0.27166  0.67255  0.74110  1.0000
  H   H1133     1.0  0.24613  0.67459  0.72463  1.0000
  H   H1134     1.0  0.36262  0.64624  0.86943  1.0000
  C   C640      1.0  0.04540  0.52570  0.83286  1.0000
  H   H1135     1.0  0.22448  0.49177  0.71908  1.0000
  H   H1136     1.0  0.99077  0.51308  0.78722  1.0000
  H   H1137     1.0  0.00662  0.54779  0.71357  1.0000
  C   C641      1.0  0.02407  0.47578  0.88429  1.0000
  C   C642      1.0  0.22872  0.48842  0.96967  1.0000
  H   H1138     1.0  0.34918  0.49538  0.80638  1.0000
  H   H1139     1.0  0.26013  0.66160  0.79180  1.0000
  H   H1140     1.0  0.25861  0.64499  0.76630  1.0000
  C   C643      1.0  0.29850  0.51611  0.83291  1.0000
  H   H1141     1.0  0.09295  0.68290  0.77194  1.0000
  S   S141      1.0  0.26817  0.71426  0.93460  1.0000
  H   H1142     1.0  0.16623  0.50598  0.48102  1.0000
  H   H1143     1.0  0.26612  0.68503  0.68475  1.0000
  H   H1144     1.0  0.37076  0.69885  0.87021  1.0000
  H   H1145     1.0  0.23634  0.49368  0.66904  1.0000
  H   H1146     1.0  0.32661  0.48684  0.66730  1.0000
  H   H1147     1.0  0.31251  0.55085  0.93795  1.0000
  C   C644      1.0  0.32035  0.63431  0.89610  1.0000
  H   H1148     1.0  0.02564  0.52708  0.83303  1.0000
  H   H1149     1.0  0.42395  0.69850  0.85110  1.0000
  H   H1150     1.0  0.32177  0.65290  0.88781  1.0000
  C   C645      1.0  0.97700  0.65786  0.79434  1.0000
  C   C646      1.0  0.33396  0.56568  0.77671  1.0000
  C   C647      1.0  0.34765  0.57597  0.75392  1.0000
  H   H1151     1.0  0.36614  0.54608  0.78741  1.0000
  H   H1152     1.0  0.35399  0.56179  0.82389  1.0000
  H   H1153     1.0  0.33176  0.57952  0.78965  1.0000
  H   H1154     1.0  0.05013  0.50442  0.96614  1.0000
  Fe  Fe71      1.0  0.38282  0.50721  0.48645  1.0000
  C   C648      1.0  0.00425  0.71781  0.76056  1.0000
  H   H1155     1.0  0.33755  0.59246  0.74661  1.0000
  H   H1156     1.0  0.42871  0.47917  0.94300  1.0000
  H   H1157     1.0  0.27602  0.47751  0.63401  1.0000
  H   H1158     1.0  0.34724  0.52860  0.77401  1.0000
  S   S142      1.0  0.99507  0.68509  0.92362  1.0000
  C   C649      1.0  0.23910  0.48934  0.73042  1.0000
  S   S143      1.0  0.39282  0.48735  0.52126  1.0000
  N   N37       1.0  0.05144  0.55509  0.89238  1.0000
  C   C650      1.0  0.04186  0.54139  0.87404  1.0000
  C   C651      1.0  0.03126  0.56066  0.91119  1.0000
  C   C652      1.0  0.05940  0.57865  0.88092  1.0000
  C   C653      1.0  0.07110  0.54018  0.90467  1.0000
  C   C654      1.0  0.09416  0.53359  0.88875  1.0000
  C   C655      1.0  0.05336  0.54423  0.84785  1.0000
  C   C656      1.0  0.06922  0.59491  0.89776  1.0000
  C   C657      1.0  0.01781  0.53922  0.92300  1.0000
  C   C658      1.0  0.35232  0.50926  0.81828  1.0000
  C   C659      1.0  0.11322  0.52042  0.90380  1.0000
  H   H1159     1.0  0.36248  0.70071  0.82786  1.0000
  C   C660      1.0  0.07667  0.61807  0.88398  1.0000
  H   H1160     1.0  0.02259  0.54699  0.87246  1.0000
  C   C661      1.0  0.01286  0.47521  0.96594  1.0000
  H   H1161     1.0  0.03787  0.56882  0.92616  1.0000
  H   H1162     1.0  0.01769  0.57410  0.90342  1.0000
  H   H1163     1.0  0.04421  0.58912  0.87235  1.0000
  H   H1164     1.0  0.07361  0.57601  0.86619  1.0000
  H   H1165     1.0  0.07599  0.54896  0.92017  1.0000
  H   H1166     1.0  0.06482  0.52286  0.91266  1.0000
  H   H1167     1.0  0.10176  0.54964  0.87925  1.0000
  H   H1168     1.0  0.09049  0.52125  0.87562  1.0000
  H   H1169     1.0  0.04766  0.56222  0.83938  1.0000
  H   H1170     1.0  0.07309  0.54238  0.84671  1.0000
  H   H1171     1.0  0.08517  0.58578  0.90587  1.0000
  H   H1172     1.0  0.05557  0.60011  0.91226  1.0000
  C   C662      1.0  0.17306  0.54298  0.47550  1.0000
  C   C663      1.0  0.32964  0.68391  0.95188  1.0000
  C   C664      1.0  0.15774  0.51890  0.52515  1.0000
  H   H1173     1.0  0.24557  0.50867  0.64040  1.0000
  H   H1174     1.0  0.38605  0.49018  0.85083  1.0000
  H   H1175     1.0  0.98358  0.61304  0.63506  1.0000
  H   H1176     1.0  0.11820  0.53194  0.91716  1.0000
  N   N38       1.0  0.18222  0.51364  0.51248  1.0000
  H   H1177     1.0  0.98813  0.53230  0.94951  1.0000
  C   C665      1.0  0.08608  0.70467  0.68151  1.0000
  H   H1178     1.0  0.34591  0.60259  0.90124  1.0000
  H   H1179     1.0  0.06108  0.62839  0.87618  1.0000
  H   H1180     1.0  0.08383  0.62926  0.89636  1.0000
  H   H1181     1.0  0.09084  0.61423  0.86942  1.0000
  H   H1182     1.0  0.44462  0.65537  0.90915  1.0000
  C   C666      1.0  0.42557  0.65876  0.91597  1.0000
  H   H1183     1.0  0.32746  0.49258  0.62479  1.0000
  C   C667      1.0  0.12984  0.51873  0.56324  1.0000
  Fe  Fe72      1.0  0.33145  0.49430  0.49522  1.0000
  H   H1184     1.0  0.39188  0.67020  0.90055  1.0000
  H   H1185     1.0  0.41662  0.66211  0.87998  1.0000
  C   C668      1.0  0.34614  0.62221  0.89744  1.0000
  H   H1186     1.0  0.26366  0.67163  0.90903  1.0000
  H   H1187     1.0  0.04276  0.52202  0.88013  1.0000
  H   H1188     1.0  0.26510  0.50060  0.84410  1.0000
  H   H1189     1.0  0.30782  0.49063  0.71000  1.0000
  H   H1190     1.0  0.19082  0.54918  0.51832  1.0000
  C   C669      1.0  0.19886  0.53038  0.52005  1.0000
  C   C670      1.0  0.38596  0.69591  0.85665  1.0000
  Fe  Fe73      1.0  0.02619  0.49036  0.58787  1.0000
  C   C671      1.0  0.25615  0.70666  0.77157  1.0000
  C   C672      1.0  0.41122  0.67240  0.89587  1.0000
  C   C673      1.0  0.33863  0.55084  0.82934  1.0000
  H   H1191     1.0  0.00707  0.47784  0.52352  1.0000
  H   H1192     1.0  0.01905  0.47791  0.67084  1.0000
  Fe  Fe74      1.0  0.37494  0.50868  0.92370  1.0000
  H   H1193     1.0  0.08165  0.57864  0.95011  1.0000
  H   H1194     1.0  0.14398  0.51024  0.51689  1.0000
  H   H1195     1.0  0.29897  0.52159  0.70133  1.0000
  H   H1196     1.0  0.04731  0.67744  0.93264  1.0000
  H   H1197     1.0  0.15210  0.53833  0.52270  1.0000
  C   C674      1.0  0.37870  0.70821  0.83272  1.0000
  H   H1198     1.0  0.47608  0.52449  0.90124  1.0000
  C   C675      1.0  0.22159  0.71189  0.74581  1.0000
  C   C676      1.0  0.99697  0.53989  0.70045  1.0000
  C   C677      1.0  0.99809  0.54751  0.94162  1.0000
  H   H1199     1.0  0.38879  0.67648  0.85456  1.0000
  H   H1200     1.0  0.39358  0.69392  0.94009  1.0000
  H   H1201     1.0  0.05306  0.52870  0.81401  1.0000
  C   C678      1.0  0.33091  0.66168  0.93813  1.0000
  H   H1202     1.0  0.12950  0.51537  0.89206  1.0000
  H   H1203     1.0  0.06718  0.68219  0.75560  1.0000
  H   H1204     1.0  0.99731  0.57185  0.67448  1.0000
  H   H1205     1.0  0.28423  0.71020  0.72483  1.0000
  Fe  Fe75      1.0  0.30700  0.70660  0.85253  1.0000
  H   H1206     1.0  0.03931  0.56083  0.68399  1.0000
  H   H1207     1.0  0.45680  0.51816  0.95404  1.0000
  H   H1208     1.0  0.25728  0.54647  0.50540  1.0000
  H   H1209     1.0  0.29349  0.67659  0.69888  1.0000
  C   C679      1.0  0.33986  0.56255  0.87158  1.0000
  H   H1210     1.0  0.21847  0.68063  0.78541  1.0000
  H   H1211     1.0  0.35546  0.62869  0.91164  1.0000
  S   S144      1.0  0.33828  0.50425  0.91327  1.0000
  H   H1212     1.0  0.07958  0.70882  0.70002  1.0000
  C   C680      1.0  0.28997  0.48903  0.63775  1.0000
  S   S145      1.0  0.99775  0.61570  0.93416  1.0000
  H   H1213     1.0  0.42668  0.62534  0.93832  1.0000
  H   H1214     1.0  0.29306  0.65794  0.94737  1.0000
  H   H1215     1.0  0.27862  0.49255  0.81534  1.0000
  C   C681      1.0  0.40097  0.71081  0.93242  1.0000
  C   C682      1.0  0.19215  0.48832  0.51887  1.0000
  N   N39       1.0  0.41492  0.69854  0.88958  1.0000
  H   H1216     1.0  0.22236  0.62721  0.78566  1.0000
  C   C683      1.0  0.39831  0.71423  0.90522  1.0000
  H   H1217     1.0  0.44671  0.69708  0.90901  1.0000
  H   H1218     1.0  0.12556  0.53838  0.56073  1.0000
  H   H1219     1.0  0.26376  0.52209  0.81823  1.0000
  H   H1220     1.0  0.35875  0.53144  0.85811  1.0000
  H   H1221     1.0  0.27416  0.69686  0.77204  1.0000
  S   S146      1.0  0.13550  0.47959  0.95098  1.0000
  H   H1222     1.0  0.29937  0.61575  0.95444  1.0000
  S   S147      1.0  0.26943  0.71846  0.86576  1.0000
  H   H1223     1.0  0.47571  0.50908  0.50129  1.0000
  H   H1224     1.0  0.16767  0.52084  0.56187  1.0000
  H   H1225     1.0  0.20953  0.48436  0.50835  1.0000
  H   H1226     1.0  0.98455  0.55857  0.84855  1.0000
  H   H1227     1.0  0.30476  0.48873  0.58941  1.0000
  H   H1228     1.0  0.18655  0.55519  0.47849  1.0000
  H   H1229     1.0  0.44444  0.50952  0.49651  1.0000
  H   H1230     1.0  0.99742  0.54408  0.66098  1.0000
  C   C684      1.0  0.44076  0.70276  0.89097  1.0000
  H   H1231     1.0  0.47628  0.47596  0.96587  1.0000
  H   H1232     1.0  0.03999  0.59527  0.95982  1.0000
  H   H1233     1.0  0.99745  0.51612  0.50046  1.0000
  C   C685      1.0  0.39205  0.48978  0.83146  1.0000
  C   C686      1.0  0.41603  0.63459  0.92402  1.0000
  H   H1234     1.0  0.43035  0.51028  0.97077  1.0000
  C   C687      1.0  0.01052  0.47871  0.50372  1.0000
  C   C688      1.0  0.01374  0.50471  0.49478  1.0000
  H   H1235     1.0  0.34314  0.66498  0.92175  1.0000
  C   C689      1.0  0.98849  0.72163  0.72153  1.0000
  C   C690      1.0  0.45672  0.48061  0.96672  1.0000
  H   H1236     1.0  0.03792  0.48217  0.70805  1.0000
  H   H1237     1.0  0.01049  0.49469  0.96053  1.0000
  H   H1238     1.0  0.31819  0.68156  0.96898  1.0000
  S   S148      1.0  0.47632  0.67448  0.94838  1.0000
  C   C691      1.0  0.31436  0.47896  0.62595  1.0000
  H   H1239     1.0  0.34787  0.68704  0.95593  1.0000
  C   C692      1.0  0.27536  0.48358  0.47643  1.0000
  H   H1240     1.0  0.04229  0.47569  0.87492  1.0000
  H   H1241     1.0  0.22892  0.48256  0.83218  1.0000
  C   C693      1.0  0.20129  0.72012  0.76449  1.0000
  H   H1242     1.0  0.25705  0.71860  0.71033  1.0000
  H   H1243     1.0  0.45940  0.72407  0.93971  1.0000
  C   C694      1.0  0.27217  0.47992  0.94217  1.0000
  C   C695      1.0  0.22928  0.47666  0.94884  1.0000
  H   H1244     1.0  0.03619  0.48529  0.91666  1.0000
  H   H1245     1.0  0.41168  0.49082  0.82922  1.0000
  C   C696      1.0  0.04734  0.57997  0.97053  1.0000
  C   C697      1.0  0.45015  0.50740  0.97039  1.0000
  H   H1246     1.0  0.20834  0.72453  0.78114  1.0000
  H   H1247     1.0  0.01659  0.50676  0.47491  1.0000
  H   H1248     1.0  0.45916  0.89977  0.21353  1.0000
  Fe  Fe76      1.0  0.38430  0.74754  0.25502  1.0000
  H   H1249     1.0  0.41737  0.97141  0.13568  1.0000
  Fe  Fe77      1.0  0.40904  0.79509  0.24744  1.0000
  S   S149      1.0  0.42303  0.78713  0.21000  1.0000
  S   S150      1.0  0.41490  0.83270  0.25743  1.0000
  Fe  Fe78      1.0  0.38708  0.77474  0.20576  1.0000
  S   S151      1.0  0.37059  0.78458  0.17036  1.0000
  Fe  Fe79      1.0  0.43207  0.75007  0.22632  1.0000
  H   H1250     1.0  0.46608  0.86882  0.20729  1.0000
  S   S152      1.0  0.37202  0.78535  0.24189  1.0000
  S   S153      1.0  0.41990  0.75806  0.26415  1.0000
  H   H1251     1.0  0.33604  0.77792  0.07053  1.0000
  H   H1252     1.0  0.39773  0.73373  0.16170  1.0000
  H   H1253     1.0  0.45895  0.89555  0.08980  1.0000
  H   H1254     1.0  0.47667  0.94342  0.21623  1.0000
  S   S154      1.0  0.28551  0.76213  0.02797  1.0000
  H   H1255     1.0  0.38773  0.77640  0.99267  1.0000
  H   H1256     1.0  0.17120  0.75262  0.00732  1.0000
  H   H1257     1.0  0.43285  0.95713  0.28217  1.0000
  H   H1258     1.0  0.32964  0.74586  0.10267  1.0000
  Fe  Fe80      1.0  0.26230  0.75110  0.06152  1.0000
  S   S155      1.0  0.23870  0.77914  0.08065  1.0000
  H   H1259     1.0  0.39635  0.78567  0.01966  1.0000
  Fe  Fe81      1.0  0.25361  0.76020  0.11404  1.0000
  S   S156      1.0  0.26446  0.77294  0.14824  1.0000
  Fe  Fe82      1.0  0.21151  0.75183  0.08464  1.0000
  S   S157      1.0  0.17148  0.75417  0.07996  1.0000
  H   H1260     1.0  0.42467  0.85627  0.10300  1.0000
  H   H1261     1.0  0.34344  0.78746  0.98397  1.0000
  H   H1262     1.0  0.36021  0.72810  0.18595  1.0000
  S   S158      1.0  0.04186  0.81390  0.01363  1.0000
  S   S159      1.0  0.01176  0.76289  0.99334  1.0000
  H   H1263     1.0  0.42776  0.90040  0.10013  1.0000
  C   C698      1.0  0.44418  0.88809  0.10155  1.0000
  Fe  Fe83      1.0  0.07564  0.82067  0.99038  1.0000
  S   S160      1.0  0.11426  0.81889  0.00065  1.0000
  Fe  Fe84      1.0  0.02517  0.84770  0.99524  1.0000
  H   H1264     1.0  0.03010  0.94143  0.00041  1.0000
  H   H1265     1.0  0.42111  0.95204  0.25459  1.0000
  S   S161      1.0  0.39762  0.73678  0.21860  1.0000
  H   H1266     1.0  0.32485  0.82859  0.97649  1.0000
  C   C699      1.0  0.20609  0.79372  0.98271  1.0000
  H   H1267     1.0  0.43585  0.87446  0.17699  1.0000
  H   H1268     1.0  0.43418  0.86855  0.07324  1.0000
  C   C700      1.0  0.15577  0.77238  0.05788  1.0000
  C   C701      1.0  0.13251  0.76747  0.05400  1.0000
  C   C702      1.0  0.11939  0.78155  0.03676  1.0000
  C   C703      1.0  0.12935  0.80089  0.02330  1.0000
  C   C704      1.0  0.15250  0.80591  0.02736  1.0000
  C   C705      1.0  0.16568  0.79173  0.04443  1.0000
  H   H1269     1.0  0.12456  0.75267  0.06440  1.0000
  H   H1270     1.0  0.10159  0.77748  0.03392  1.0000
  H   H1271     1.0  0.16021  0.82104  0.01732  1.0000
  H   H1272     1.0  0.18337  0.79598  0.04744  1.0000
  H   H1273     1.0  0.16180  0.78103  0.98011  1.0000
  H   H1274     1.0  0.45577  0.85219  0.09144  1.0000
  H   H1275     1.0  0.23484  0.77217  0.00108  1.0000
  H   H1276     1.0  0.22391  0.80745  0.02389  1.0000
  C   C706      1.0  0.36704  0.76001  0.05085  1.0000
  C   C707      1.0  0.23608  0.80881  0.00719  1.0000
  C   C708      1.0  0.34188  0.77815  0.16404  1.0000
  C   C709      1.0  0.33490  0.78405  0.14077  1.0000
  C   C710      1.0  0.31162  0.78099  0.13533  1.0000
  C   C711      1.0  0.29497  0.77233  0.15325  1.0000
  C   C712      1.0  0.30216  0.76567  0.17635  1.0000
  C   C713      1.0  0.32559  0.76838  0.18172  1.0000
  H   H1277     1.0  0.34738  0.79164  0.12699  1.0000
  H   H1278     1.0  0.30620  0.78646  0.11755  1.0000
  H   H1279     1.0  0.28933  0.75899  0.19030  1.0000
  H   H1280     1.0  0.33081  0.76361  0.19967  1.0000
  C   C714      1.0  0.43583  0.84452  0.27419  1.0000
  C   C715      1.0  0.43589  0.86951  0.27415  1.0000
  C   C716      1.0  0.45197  0.87980  0.28713  1.0000
  C   C717      1.0  0.32575  0.82038  0.99515  1.0000
  C   C718      1.0  0.41788  0.96183  0.11926  1.0000
  C   C719      1.0  0.45207  0.82994  0.28763  1.0000
  H   H1281     1.0  0.42330  0.88103  0.26407  1.0000
  H   H1282     1.0  0.45182  0.89901  0.28670  1.0000
  H   H1283     1.0  0.33069  0.78727  0.03026  1.0000
  H   H1284     1.0  0.45221  0.81073  0.28808  1.0000
  H   H1285     1.0  0.17490  0.73637  0.14046  1.0000
  H   H1286     1.0  0.40300  0.73527  0.00162  1.0000
  C   C720      1.0  0.45118  0.91451  0.02474  1.0000
  C   C721      1.0  0.44714  0.93798  0.03179  1.0000
  C   C722      1.0  0.35326  0.74776  0.01280  1.0000
  H   H1287     1.0  0.19847  0.74663  0.17263  1.0000
  C   C723      1.0  0.40798  0.74901  0.01257  1.0000
  H   H1288     1.0  0.43137  0.76489  0.98335  1.0000
  C   C724      1.0  0.38897  0.77066  0.01203  1.0000
  C   C725      1.0  0.19065  0.74729  0.00634  1.0000
  C   C726      1.0  0.45013  0.88394  0.12796  1.0000
  H   H1289     1.0  0.45283  0.95153  0.25591  1.0000
  C   C727      1.0  0.38368  0.72513  0.15396  1.0000
  C   C728      1.0  0.44078  0.92559  0.13940  1.0000
  H   H1290     1.0  0.32821  0.83457  0.00685  1.0000
  C   C729      1.0  0.23173  0.78979  0.99089  1.0000
  H   H1291     1.0  0.04058  0.73754  0.03447  1.0000
  S   S162      1.0  0.05987  0.85647  0.97477  1.0000
  C   C730      1.0  0.44403  0.89023  0.18186  1.0000
  C   C731      1.0  0.44011  0.94423  0.11724  1.0000
  H   H1292     1.0  0.37767  0.77301  0.05796  1.0000
  H   H1293     1.0  0.45591  0.95471  0.11603  1.0000
  H   H1294     1.0  0.25475  0.80609  0.01220  1.0000
  H   H1295     1.0  0.98091  0.82670  0.02611  1.0000
  C   C732      1.0  0.99179  0.94298  0.97496  1.0000
  N   N40       1.0  0.36462  0.76641  0.02446  1.0000
  H   H1296     1.0  0.42265  0.91919  0.14334  1.0000
  H   H1297     1.0  0.44334  0.93626  0.15453  1.0000
  H   H1298     1.0  0.05511  0.94781  0.97903  1.0000
  H   H1299     1.0  0.36305  0.80958  0.98899  1.0000
  H   H1300     1.0  0.35598  0.80336  0.03212  1.0000
  H   H1301     1.0  0.32941  0.75128  0.05850  1.0000
  C   C733      1.0  0.26942  0.72767  0.00360  1.0000
  H   H1302     1.0  0.15022  0.73051  0.16199  1.0000
  H   H1303     1.0  0.43667  0.87884  0.21956  1.0000
  C   C734      1.0  0.16999  0.72947  0.15917  1.0000
  H   H1304     1.0  0.44532  0.74021  0.00128  1.0000
  H   H1305     1.0  0.43005  0.90537  0.18287  1.0000
  H   H1306     1.0  0.99514  0.95863  0.98444  1.0000
  H   H1307     1.0  0.44037  0.93596  0.10019  1.0000
  C   C735      1.0  0.43940  0.86478  0.09187  1.0000
  H   H1308     1.0  0.43919  0.76878  0.01317  1.0000
  Fe  Fe85      1.0  0.03124  0.79626  0.98238  1.0000
  N   N41       1.0  0.45952  0.90457  0.13824  1.0000
  C   C736      1.0  0.45211  0.88406  0.20705  1.0000
  C   C737      1.0  0.46813  0.86523  0.30065  1.0000
  C   C738      1.0  0.34914  0.78973  0.02204  1.0000
  H   H1309     1.0  0.17331  0.74144  0.19440  1.0000
  C   C739      1.0  0.46999  0.89915  0.03330  1.0000
  C   C740      1.0  0.43535  0.96036  0.26233  1.0000
  H   H1310     1.0  0.43327  0.87900  0.13826  1.0000
  H   H1311     1.0  0.23326  0.82698  0.99791  1.0000
  S   S163      1.0  0.22403  0.73583  0.12000  1.0000
  H   H1312     1.0  0.47465  0.91050  0.17091  1.0000
  C   C741      1.0  0.46199  0.94643  0.04721  1.0000
  H   H1313     1.0  0.40146  0.95238  0.11965  1.0000
  H   H1314     1.0  0.33357  0.75173  0.01357  1.0000
  H   H1315     1.0  0.43201  0.94944  0.02580  1.0000
  C   C742      1.0  0.28194  0.74802  0.00210  1.0000
  C   C743      1.0  0.46544  0.89648  0.16358  1.0000
  H   H1316     1.0  0.99123  0.92793  0.98928  1.0000
  S   S164      1.0  0.46621  0.72909  0.21415  1.0000
  S   S165      1.0  0.00218  0.87629  0.01466  1.0000
  C   C744      1.0  0.34319  0.75942  0.06707  1.0000
  C   C745      1.0  0.17871  0.74660  0.17525  1.0000
  S   S166      1.0  0.27905  0.73450  0.09445  1.0000
  H   H1317     1.0  0.30116  0.77324  0.97831  1.0000
  H   H1318     1.0  0.43899  0.90794  0.01372  1.0000
  H   H1319     1.0  0.36003  0.75362  0.10070  1.0000
  H   H1320     1.0  0.46279  0.86767  0.12999  1.0000
  N   N42       1.0  0.30406  0.83238  0.21028  1.0000
  C   C746      1.0  0.33078  0.82848  0.21142  1.0000
  C   C747      1.0  0.29199  0.81078  0.22197  1.0000
  C   C748      1.0  0.29938  0.83542  0.18409  1.0000
  C   C749      1.0  0.29367  0.85469  0.22157  1.0000
  C   C750      1.0  0.29883  0.85637  0.24785  1.0000
  C   C751      1.0  0.34565  0.84869  0.19905  1.0000
  C   C752      1.0  0.27283  0.83626  0.17858  1.0000
  C   C753      1.0  0.30406  0.79567  0.24277  1.0000
  C   C754      1.0  0.28844  0.77632  0.25440  1.0000
  C   C755      1.0  0.28894  0.88053  0.25645  1.0000
  C   C756      1.0  0.37192  0.84390  0.20396  1.0000
  C   C757      1.0  0.27057  0.83987  0.15160  1.0000
  H   H1321     1.0  0.33771  0.81177  0.20313  1.0000
  H   H1322     1.0  0.33551  0.82552  0.23019  1.0000
  H   H1323     1.0  0.27309  0.81597  0.22834  1.0000
  H   H1324     1.0  0.29084  0.79776  0.20863  1.0000
  H   H1325     1.0  0.30934  0.82064  0.17448  1.0000
  H   H1326     1.0  0.30620  0.85221  0.17523  1.0000
  H   H1327     1.0  0.29958  0.87091  0.21067  1.0000
  H   H1328     1.0  0.27390  0.85649  0.22156  1.0000
  H   H1329     1.0  0.31824  0.85448  0.25001  1.0000
  H   H1330     1.0  0.28995  0.84246  0.25977  1.0000
  H   H1331     1.0  0.34497  0.84989  0.17932  1.0000
  H   H1332     1.0  0.33911  0.86620  0.20567  1.0000
  H   H1333     1.0  0.26194  0.85123  0.18678  1.0000
  H   H1334     1.0  0.26487  0.81939  0.18529  1.0000
  H   H1335     1.0  0.32110  0.78638  0.23571  1.0000
  H   H1336     1.0  0.30802  0.80668  0.25691  1.0000
  H   H1337     1.0  0.28465  0.76435  0.24090  1.0000
  H   H1338     1.0  0.29795  0.76533  0.26860  1.0000
  H   H1339     1.0  0.27135  0.78447  0.26270  1.0000
  H   H1340     1.0  0.29764  0.89528  0.24553  1.0000
  H   H1341     1.0  0.26932  0.88328  0.25531  1.0000
  H   H1342     1.0  0.29257  0.88116  0.27543  1.0000
  H   H1343     1.0  0.37392  0.84316  0.22348  1.0000
  H   H1344     1.0  0.37964  0.82677  0.19712  1.0000
  H   H1345     1.0  0.38223  0.85846  0.19478  1.0000
  H   H1346     1.0  0.25157  0.83967  0.14806  1.0000
  H   H1347     1.0  0.27695  0.85726  0.14401  1.0000
  H   H1348     1.0  0.28104  0.82525  0.14235  1.0000
  H   H1349     1.0  0.37351  0.73902  0.14275  1.0000
  H   H1350     1.0  0.37742  0.74251  0.05399  1.0000
  H   H1351     1.0  0.98192  0.80279  0.04951  1.0000
  C   C758      1.0  0.34657  0.80103  0.99607  1.0000
  S   S167      1.0  0.45511  0.81584  0.99331  1.0000
  H   H1352     1.0  0.30859  0.81255  0.00103  1.0000
  H   H1353     1.0  0.35903  0.74859  0.99329  1.0000
  H   H1354     1.0  0.17078  0.76503  0.17056  1.0000
  Fe  Fe86      1.0  0.47083  0.85085  0.99489  1.0000
  H   H1355     1.0  0.19891  0.75806  0.01828  1.0000
  C   C759      1.0  0.46787  0.84023  0.30094  1.0000
  H   H1356     1.0  0.37617  0.90299  0.98294  1.0000
  H   H1357     1.0  0.41027  0.74096  0.03103  1.0000
  C   C760      1.0  0.05991  0.91485  0.00069  1.0000
  C   C761      1.0  0.04372  0.93366  0.98716  1.0000
  H   H1358     1.0  0.07410  0.90674  0.98814  1.0000
  H   H1359     1.0  0.06855  0.92330  0.01426  1.0000
  H   H1360     1.0  0.04937  0.90057  0.01012  1.0000
  H   H1361     1.0  0.22152  0.74414  0.98060  1.0000
  H   H1362     1.0  0.19332  0.79519  0.99884  1.0000
  C   C762      1.0  0.34681  0.74548  0.09130  1.0000
  C   C763      1.0  0.20228  0.75044  0.98023  1.0000
  H   H1363     1.0  0.24522  0.79087  0.97523  1.0000
  C   C764      1.0  0.43238  0.75628  0.00188  1.0000
  H   H1364     1.0  0.02526  0.90568  0.97596  1.0000
  C   C765      1.0  0.29140  0.75751  0.97961  1.0000
  H   H1365     1.0  0.99297  0.84083  0.06229  1.0000
  H   H1366     1.0  0.47086  0.80420  0.21667  1.0000
  S   S168      1.0  0.47225  0.86809  0.02974  1.0000
  H   H1367     1.0  0.35306  0.72654  0.08890  1.0000
  H   H1368     1.0  0.47413  0.75487  0.25463  1.0000
  H   H1369     1.0  0.39808  0.87822  0.97797  1.0000
  H   H1370     1.0  0.05981  0.93417  0.78105  1.0000
  Fe  Fe87      1.0  0.08142  0.74888  0.75540  1.0000
  S   S169      1.0  0.09084  0.76266  0.71725  1.0000
  H   H1371     1.0  0.10127  0.90173  0.59118  1.0000
  Fe  Fe88      1.0  0.12616  0.76695  0.77348  1.0000
  S   S170      1.0  0.13797  0.78291  0.73654  1.0000
  S   S171      1.0  0.14484  0.76441  0.80827  1.0000
  Fe  Fe89      1.0  0.09909  0.79592  0.73285  1.0000
  S   S172      1.0  0.08412  0.83449  0.72244  1.0000
  Fe  Fe90      1.0  0.12856  0.74823  0.72436  1.0000
  S   S173      1.0  0.08810  0.78255  0.77102  1.0000
  C   C766      1.0  0.10923  0.87726  0.51078  1.0000
  C   C767      1.0  0.99817  0.89921  0.94312  1.0000
  S   S174      1.0  0.99810  0.92952  0.58954  1.0000
  H   H1372     1.0  0.00498  0.80187  0.62976  1.0000
  H   H1373     1.0  0.07916  0.93788  0.51379  1.0000
  S   S175      1.0  0.01941  0.94916  0.63562  1.0000
  H   H1374     1.0  0.18041  0.73886  0.73672  1.0000
  Fe  Fe91      1.0  0.00522  0.91529  0.62740  1.0000
  S   S176      1.0  0.02452  0.87785  0.63427  1.0000
  C   C768      1.0  0.99958  0.81874  0.71746  1.0000
  Fe  Fe92      1.0  0.44417  0.82986  0.95675  1.0000
  C   C769      1.0  0.10606  0.89675  0.73277  1.0000
  S   S177      1.0  0.40593  0.82252  0.94993  1.0000
  H   H1375     1.0  0.08268  0.93793  0.56873  1.0000
  C   C770      1.0  0.42711  0.88206  0.88902  1.0000
  Fe  Fe93      1.0  0.27790  0.75498  0.85020  1.0000
  C   C771      1.0  0.00480  0.92514  0.93590  1.0000
  S   S178      1.0  0.25239  0.77837  0.82665  1.0000
  Fe  Fe94      1.0  0.32743  0.75018  0.87064  1.0000
  H   H1376     1.0  0.00639  0.83107  0.67104  1.0000
  S   S179      1.0  0.36440  0.76342  0.87343  1.0000
  C   C772      1.0  0.36458  0.84799  0.87278  1.0000
  H   H1377     1.0  0.46120  0.85603  0.86054  1.0000
  H   H1378     1.0  0.99109  0.82353  0.73527  1.0000
  H   H1379     1.0  0.11413  0.91036  0.71969  1.0000
  S   S180      1.0  0.29089  0.76564  0.88430  1.0000
  S   S181      1.0  0.04928  0.85146  0.90702  1.0000
  H   H1380     1.0  0.98077  0.81895  0.61550  1.0000
  C   C773      1.0  0.08788  0.92689  0.61624  1.0000
  H   H1381     1.0  0.39459  0.74836  0.93923  1.0000
  H   H1382     1.0  0.98021  0.96834  0.49776  1.0000
  C   C774      1.0  0.39503  0.80533  0.92887  1.0000
  C   C775      1.0  0.37046  0.80209  0.93051  1.0000
  C   C776      1.0  0.36081  0.78908  0.91403  1.0000
  C   C777      1.0  0.37553  0.77962  0.89519  1.0000
  C   C778      1.0  0.40005  0.78315  0.89334  1.0000
  C   C779      1.0  0.40981  0.79564  0.91018  1.0000
  H   H1383     1.0  0.35871  0.80990  0.94449  1.0000
  H   H1384     1.0  0.34191  0.78675  0.91566  1.0000
  H   H1385     1.0  0.41161  0.77616  0.87872  1.0000
  H   H1386     1.0  0.42869  0.79805  0.90849  1.0000
  C   C780      1.0  0.08358  0.91014  0.59760  1.0000
  H   H1387     1.0  0.09686  0.72517  0.64803  1.0000
  C   C781      1.0  0.17586  0.76606  0.81086  1.0000
  C   C782      1.0  0.18696  0.75198  0.82936  1.0000
  C   C783      1.0  0.21081  0.75455  0.83356  1.0000
  C   C784      1.0  0.22355  0.77199  0.81994  1.0000
  C   C785      1.0  0.21255  0.78586  0.80125  1.0000
  C   C786      1.0  0.18898  0.78274  0.79652  1.0000
  H   H1388     1.0  0.19036  0.77023  0.91817  1.0000
  H   H1389     1.0  0.98991  0.95761  0.54088  1.0000
  H   H1390     1.0  0.22222  0.79936  0.79054  1.0000
  H   H1391     1.0  0.18071  0.79383  0.78231  1.0000
  C   C787      1.0  0.06720  0.84594  0.69794  1.0000
  C   C788      1.0  0.05659  0.86960  0.69732  1.0000
  C   C789      1.0  0.04351  0.87964  0.67807  1.0000
  C   C790      1.0  0.04104  0.86622  0.65895  1.0000
  C   C791      1.0  0.05163  0.84256  0.65953  1.0000
  C   C792      1.0  0.06440  0.83239  0.67899  1.0000
  H   H1392     1.0  0.05857  0.88037  0.71171  1.0000
  H   H1393     1.0  0.03550  0.89784  0.67796  1.0000
  H   H1394     1.0  0.04987  0.83197  0.64487  1.0000
  H   H1395     1.0  0.07245  0.81422  0.67908  1.0000
  H   H1396     1.0  0.09131  0.94561  0.80500  1.0000
  C   C793      1.0  0.38533  0.89733  0.94540  1.0000
  H   H1397     1.0  0.08838  0.92295  0.75475  1.0000
  H   H1398     1.0  0.06600  0.87493  0.75314  1.0000
  C   C794      1.0  0.05915  0.93099  0.88580  1.0000
  C   C795      1.0  0.04546  0.91838  0.87268  1.0000
  C   C796      1.0  0.04261  0.89403  0.87929  1.0000
  C   C797      1.0  0.05262  0.88225  0.89959  1.0000
  C   C798      1.0  0.06590  0.89495  0.91296  1.0000
  C   C799      1.0  0.06944  0.91907  0.90589  1.0000
  H   H1399     1.0  0.03727  0.92728  0.85731  1.0000
  H   H1400     1.0  0.03228  0.88438  0.86884  1.0000
  H   H1401     1.0  0.07403  0.88601  0.92840  1.0000
  H   H1402     1.0  0.08015  0.92859  0.91609  1.0000
  H   H1403     1.0  0.21977  0.75307  0.88848  1.0000
  H   H1404     1.0  0.03862  0.92518  0.80415  1.0000
  H   H1405     1.0  0.02567  0.87007  0.78592  1.0000
  H   H1406     1.0  0.06638  0.94558  0.82747  1.0000
  C   C800      1.0  0.03191  0.92266  0.96745  1.0000
  H   H1407     1.0  0.06742  0.90063  0.82647  1.0000
  H   H1408     1.0  0.03195  0.96966  0.51921  1.0000
  S   S182      1.0  0.04860  0.72952  0.76903  1.0000
  C   C801      1.0  0.02866  0.73259  0.72564  1.0000
  H   H1409     1.0  0.10212  0.88172  0.72283  1.0000
  H   H1410     1.0  0.98734  0.86709  0.67594  1.0000
  C   C802      1.0  0.04342  0.84061  0.82300  1.0000
  S   S183      1.0  0.01237  0.82977  0.96575  1.0000
  C   C803      1.0  0.46176  0.85118  0.88009  1.0000
  H   H1411     1.0  0.13755  0.82422  0.93081  1.0000
  C   C804      1.0  0.05486  0.91842  0.79318  1.0000
  C   C805      1.0  0.14257  0.80595  0.93897  1.0000
  H   H1412     1.0  0.17036  0.74574  0.76664  1.0000
  C   C806      1.0  0.97850  0.97361  0.54638  1.0000
  H   H1413     1.0  0.02839  0.88594  0.81120  1.0000
  N   N43       1.0  0.04927  0.89870  0.77888  1.0000
  C   C807      1.0  0.07445  0.91206  0.81072  1.0000
  C   C808      1.0  0.06382  0.94563  0.52520  1.0000
  H   H1414     1.0  0.12862  0.80139  0.95353  1.0000
  H   H1415     1.0  0.21767  0.79449  0.93711  1.0000
  H   H1416     1.0  0.04065  0.94987  0.49579  1.0000
  C   C809      1.0  0.00604  0.91802  0.77418  1.0000
  H   H1417     1.0  0.07654  0.74149  0.66856  1.0000
  H   H1418     1.0  0.00733  0.93551  0.78129  1.0000
  H   H1419     1.0  0.18018  0.80917  0.93353  1.0000
  C   C810      1.0  0.03072  0.90889  0.76213  1.0000
  H   H1420     1.0  0.09702  0.91658  0.63108  1.0000
  H   H1421     1.0  0.19478  0.73742  0.97000  1.0000
  Fe  Fe95      1.0  0.00959  0.96439  0.59887  1.0000
  H   H1422     1.0  0.42636  0.88641  0.86938  1.0000
  C   C811      1.0  0.09218  0.72803  0.66722  1.0000
  C   C812      1.0  0.07093  0.88929  0.76355  1.0000
  C   C813      1.0  0.01005  0.73023  0.71132  1.0000
  C   C814      1.0  0.18640  0.74201  0.75425  1.0000
  H   H1423     1.0  0.01917  0.79649  0.75934  1.0000
  C   C815      1.0  0.20755  0.76206  0.92447  1.0000
  H   H1424     1.0  0.37058  0.88563  0.94563  1.0000
  H   H1425     1.0  0.23375  0.76811  0.94812  1.0000
  H   H1426     1.0  0.02686  0.79091  0.70523  1.0000
  C   C816      1.0  0.08324  0.90794  0.74556  1.0000
  S   S184      1.0  0.11825  0.73199  0.76130  1.0000
  C   C817      1.0  0.22600  0.76252  0.90281  1.0000
  Fe  Fe96      1.0  0.04809  0.83654  0.94614  1.0000
  H   H1427     1.0  0.47469  0.86181  0.88716  1.0000
  H   H1428     1.0  0.03700  0.92453  0.75053  1.0000
  H   H1429     1.0  0.44101  0.73700  0.86802  1.0000
  H   H1430     1.0  0.00445  0.79993  0.67486  1.0000
  H   H1431     1.0  0.40014  0.73329  0.89916  1.0000
  H   H1432     1.0  0.22848  0.72815  0.73607  1.0000
  H   H1433     1.0  0.02781  0.89537  0.74971  1.0000
  H   H1434     1.0  0.21904  0.74359  0.84784  1.0000
  H   H1435     1.0  0.11786  0.89356  0.50326  1.0000
  C   C818      1.0  0.05623  0.85768  0.80443  1.0000
  C   C819      1.0  0.39199  0.89673  0.97119  1.0000
  C   C820      1.0  0.39414  0.91346  0.89256  1.0000
  H   H1436     1.0  0.36766  0.87734  0.90884  1.0000
  H   H1437     1.0  0.98334  0.90404  0.75050  1.0000
  H   H1438     1.0  0.26482  0.73815  0.74648  1.0000
  C   C821      1.0  0.97975  0.86622  0.69489  1.0000
  H   H1439     1.0  0.11926  0.89017  0.74582  1.0000
  H   H1440     1.0  0.29464  0.75474  0.94134  1.0000
  C   C822      1.0  0.40715  0.88852  0.92866  1.0000
  H   H1441     1.0  0.47232  0.76114  0.95302  1.0000
  H   H1442     1.0  0.24255  0.74451  0.77036  1.0000
  H   H1443     1.0  0.37096  0.88490  0.86540  1.0000
  H   H1444     1.0  0.99435  0.86686  0.70657  1.0000
  H   H1445     1.0  0.06379  0.84721  0.78930  1.0000
  H   H1446     1.0  0.04636  0.91743  0.95362  1.0000
  H   H1447     1.0  0.08493  0.88050  0.77465  1.0000
  H   H1448     1.0  0.39707  0.86425  0.86208  1.0000
  H   H1449     1.0  0.99940  0.90560  0.78923  1.0000
  S   S185      1.0  0.06433  0.96133  0.87759  1.0000
  N   N44       1.0  0.13162  0.82966  0.84290  1.0000
  C   C823      1.0  0.15116  0.81542  0.85599  1.0000
  C   C824      1.0  0.10887  0.81707  0.84711  1.0000
  C   C825      1.0  0.13964  0.83072  0.81644  1.0000
  C   C826      1.0  0.12734  0.85503  0.84971  1.0000
  C   C827      1.0  0.12089  0.85847  0.87656  1.0000
  C   C828      1.0  0.17622  0.82498  0.85185  1.0000
  C   C829      1.0  0.12063  0.84076  0.79904  1.0000
  C   C830      1.0  0.10351  0.80351  0.87214  1.0000
  C   C831      1.0  0.07811  0.79576  0.87519  1.0000
  C   C832      1.0  0.12098  0.88470  0.88120  1.0000
  C   C833      1.0  0.19365  0.81050  0.86794  1.0000
  C   C834      1.0  0.13083  0.83977  0.77299  1.0000
  H   H1450     1.0  0.15321  0.79673  0.85066  1.0000
  H   H1451     1.0  0.14644  0.81367  0.87561  1.0000
  H   H1452     1.0  0.09319  0.82994  0.84348  1.0000
  H   H1453     1.0  0.10913  0.80310  0.83428  1.0000
  H   H1454     1.0  0.14630  0.81261  0.81135  1.0000
  H   H1455     1.0  0.15499  0.84183  0.81210  1.0000
  H   H1456     1.0  0.14307  0.86515  0.84338  1.0000
  H   H1457     1.0  0.11236  0.86469  0.84029  1.0000
  H   H1458     1.0  0.13371  0.84808  0.88809  1.0000
  H   H1459     1.0  0.10258  0.85326  0.88210  1.0000
  H   H1460     1.0  0.18377  0.82343  0.83306  1.0000
  H   H1461     1.0  0.17549  0.84390  0.85585  1.0000
  H   H1462     1.0  0.11472  0.85965  0.80176  1.0000
  H   H1463     1.0  0.10486  0.83019  0.80147  1.0000
  H   H1464     1.0  0.11594  0.78709  0.87407  1.0000
  H   H1465     1.0  0.10557  0.81435  0.88704  1.0000
  H   H1466     1.0  0.06486  0.81159  0.87416  1.0000
  H   H1467     1.0  0.07543  0.78396  0.86114  1.0000
  H   H1468     1.0  0.07490  0.78579  0.89302  1.0000
  H   H1469     1.0  0.10738  0.89595  0.87111  1.0000
  H   H1470     1.0  0.11662  0.88669  0.90061  1.0000
  H   H1471     1.0  0.13884  0.89123  0.87591  1.0000
  H   H1472     1.0  0.21179  0.81669  0.86362  1.0000
  H   H1473     1.0  0.18802  0.81274  0.88710  1.0000
  H   H1474     1.0  0.19463  0.79127  0.86493  1.0000
  H   H1475     1.0  0.11665  0.84579  0.76083  1.0000
  H   H1476     1.0  0.14568  0.85149  0.76882  1.0000
  H   H1477     1.0  0.13753  0.82118  0.76950  1.0000
  H   H1478     1.0  0.04513  0.73927  0.71757  1.0000
  C   C835      1.0  0.03876  0.87868  0.79522  1.0000
  N   N45       1.0  0.19925  0.77522  0.96762  1.0000
  H   H1479     1.0  0.09073  0.90273  0.80225  1.0000
  H   H1480     1.0  0.07068  0.93536  0.62393  1.0000
  C   C836      1.0  0.03038  0.79497  0.74216  1.0000
  C   C837      1.0  0.08208  0.93460  0.81984  1.0000
  C   C838      1.0  0.28768  0.74710  0.95867  1.0000
  H   H1481     1.0  0.05575  0.82473  0.82778  1.0000
  H   H1482     1.0  0.02776  0.83431  0.81570  1.0000
  H   H1483     1.0  0.09925  0.94107  0.60810  1.0000
  N   N46       1.0  0.06447  0.90919  0.55738  1.0000
  C   C839      1.0  0.05031  0.92568  0.54008  1.0000
  C   C840      1.0  0.04953  0.88985  0.56967  1.0000
  C   C841      1.0  0.07081  0.92403  0.57650  1.0000
  C   C842      1.0  0.08737  0.89837  0.54528  1.0000
  C   C843      1.0  0.08484  0.88397  0.52375  1.0000
  H   H1484     1.0  0.01471  0.88703  0.94474  1.0000
  C   C844      1.0  0.03054  0.88077  0.55530  1.0000
  C   C845      1.0  0.01894  0.85963  0.56921  1.0000
  N   N47       1.0  0.40337  0.88891  0.90244  1.0000
  H   H1485     1.0  0.37448  0.72770  0.83403  1.0000
  H   H1486     1.0  0.03437  0.93448  0.54995  1.0000
  H   H1487     1.0  0.04310  0.91567  0.52679  1.0000
  H   H1488     1.0  0.06121  0.87409  0.57639  1.0000
  H   H1489     1.0  0.03919  0.89614  0.58605  1.0000
  H   H1490     1.0  0.05438  0.93390  0.58447  1.0000
  H   H1491     1.0  0.09978  0.91243  0.53947  1.0000
  H   H1492     1.0  0.09704  0.88575  0.55818  1.0000
  H   H1493     1.0  0.07372  0.89416  0.51042  1.0000
  H   H1494     1.0  0.07687  0.86705  0.53019  1.0000
  C   C846      1.0  0.02577  0.72654  0.75036  1.0000
  H   H1495     1.0  0.04179  0.81010  0.73894  1.0000
  H   H1496     1.0  0.07283  0.89600  0.60692  1.0000
  H   H1497     1.0  0.01603  0.89512  0.55210  1.0000
  H   H1498     1.0  0.03823  0.87513  0.53772  1.0000
  H   H1499     1.0  0.00981  0.86498  0.58651  1.0000
  H   H1500     1.0  0.00541  0.85356  0.55860  1.0000
  H   H1501     1.0  0.03253  0.84449  0.57284  1.0000
  H   H1502     1.0  0.07051  0.95780  0.53683  1.0000
  H   H1503     1.0  0.04446  0.96250  0.71639  1.0000
  H   H1504     1.0  0.02949  0.75673  0.94351  1.0000
  S   S186      1.0  0.31515  0.74270  0.83501  1.0000
  H   H1505     1.0  0.01957  0.92407  0.92139  1.0000
  C   C847      1.0  0.01776  0.74293  0.94977  1.0000
  H   H1506     1.0  0.09444  0.92968  0.83407  1.0000
  H   H1507     1.0  0.16622  0.81969  0.96103  1.0000
  H   H1508     1.0  0.42758  0.93131  0.88871  1.0000
  N   N48       1.0  0.01200  0.93812  0.95596  1.0000
  H   H1509     1.0  0.10699  0.86645  0.49578  1.0000
  C   C848      1.0  0.43698  0.85551  0.89319  1.0000
  H   H1510     1.0  0.39041  0.85378  0.90880  1.0000
  C   C849      1.0  0.21536  0.77579  0.94459  1.0000
  H   H1511     1.0  0.12105  0.86650  0.52321  1.0000
  H   H1512     1.0  0.10748  0.73522  0.67432  1.0000
  H   H1513     1.0  0.98986  0.93521  0.92691  1.0000
  C   C850      1.0  0.17333  0.78074  0.96295  1.0000
  H   H1514     1.0  0.34748  0.85107  0.88400  1.0000
  H   H1515     1.0  0.19691  0.75786  0.75191  1.0000
  H   H1516     1.0  0.37393  0.83077  0.87934  1.0000
  H   H1517     1.0  0.01279  0.83202  0.71159  1.0000
  H   H1518     1.0  0.27415  0.73676  0.79960  1.0000
  H   H1519     1.0  0.37534  0.91780  0.89980  1.0000
  C   C851      1.0  0.04736  0.96092  0.50859  1.0000
  H   H1520     1.0  0.42523  0.84343  0.88649  1.0000
  C   C852      1.0  0.01480  0.79453  0.72148  1.0000
  H   H1521     1.0  0.04216  0.77815  0.74379  1.0000
  H   H1522     1.0  0.14306  0.79319  0.92506  1.0000
  H   H1523     1.0  0.39343  0.91392  0.87282  1.0000
  C   C853      1.0  0.99347  0.81733  0.67529  1.0000
  H   H1524     1.0  0.03740  0.84956  0.83955  1.0000
  H   H1525     1.0  0.07138  0.91525  0.73150  1.0000
  C   C854      1.0  0.27853  0.74135  0.78013  1.0000
  H   H1526     1.0  0.20553  0.74309  0.93084  1.0000
  H   H1527     1.0  0.36049  0.84660  0.85407  1.0000
  H   H1528     1.0  0.07108  0.86408  0.81283  1.0000
  H   H1529     1.0  0.01738  0.96183  0.68442  1.0000
  C   C855      1.0  0.38039  0.86838  0.87351  1.0000
  C   C856      1.0  0.38526  0.87159  0.89964  1.0000
  H   H1530     1.0  0.42238  0.89892  0.93119  1.0000
  S   S187      1.0  0.06604  0.80104  0.95997  1.0000
  H   H1531     1.0  0.37970  0.96214  0.89373  1.0000
  H   H1532     1.0  0.24325  0.75333  0.90781  1.0000
  S   S188      1.0  0.15400  0.72724  0.69842  1.0000
  H   H1533     1.0  0.03790  0.95712  0.93258  1.0000
  S   S189      1.0  0.45711  0.86630  0.96004  1.0000
  N   N49       1.0  0.98080  0.81975  0.69985  1.0000
  C   C857      1.0  0.16697  0.80518  0.94886  1.0000
  C   C858      1.0  0.39820  0.95805  0.88567  1.0000
  H   H1534     1.0  0.00359  0.77939  0.72602  1.0000
  H   H1535     1.0  0.39798  0.95766  0.86599  1.0000
  C   C859      1.0  0.02587  0.96892  0.71945  1.0000
  H   H1536     1.0  0.41253  0.87008  0.93592  1.0000
  H   H1537     1.0  0.02266  0.72592  0.91664  1.0000
  H   H1538     1.0  0.16703  0.76622  0.95373  1.0000
  C   C860      1.0  0.99260  0.81835  0.63026  1.0000
  H   H1539     1.0  0.00313  0.83417  0.62717  1.0000
  H   H1540     1.0  0.43859  0.85019  0.91246  1.0000
  H   H1541     1.0  0.40952  0.93596  0.91625  1.0000
  H   H1542     1.0  0.17698  0.73911  0.84065  1.0000
  Fe  Fe97      1.0  0.98111  0.96016  0.64787  1.0000
  C   C861      1.0  0.01388  0.72546  0.93461  1.0000
  H   H1543     1.0  0.99473  0.89097  0.90664  1.0000
  H   H1544     1.0  0.44108  0.89291  0.89399  1.0000
  C   C862      1.0  0.01053  0.96850  0.70128  1.0000
  H   H1545     1.0  0.22886  0.78114  0.89563  1.0000
  C   C863      1.0  0.02203  0.96107  0.94545  1.0000
  H   H1546     1.0  0.27939  0.76099  0.77705  1.0000
  H   H1547     1.0  0.98738  0.89785  0.96061  1.0000
  C   C864      1.0  0.98423  0.89016  0.92438  1.0000
  H   H1548     1.0  0.43890  0.74003  0.89976  1.0000
  C   C865      1.0  0.25948  0.73362  0.76566  1.0000
  C   C866      1.0  0.40898  0.93420  0.89685  1.0000
  H   H1549     1.0  0.40911  0.97258  0.88901  1.0000
  H   H1550     1.0  0.37863  0.91592  0.93980  1.0000
  H   H1551     1.0  0.01236  0.73513  0.69224  1.0000
  H   H1552     1.0  0.40642  0.90857  0.97228  1.0000
  H   H1553     1.0  0.97890  0.79137  0.95817  1.0000
  Fe  Fe98      1.0  0.28510  0.72781  0.89851  1.0000
  H   H1554     1.0  0.29633  0.73246  0.77462  1.0000
  H   H1555     1.0  0.99319  0.93300  0.74003  1.0000
  H   H1556     1.0  0.02845  0.97053  0.95970  1.0000
  C   C867      1.0  0.98712  0.92152  0.75614  1.0000
  S   S190      1.0  0.01490  0.97051  0.83264  1.0000
  H   H1557     1.0  0.98065  0.87130  0.92973  1.0000
  H   H1558     1.0  0.99788  0.97272  0.91706  1.0000
  C   C868      1.0  0.27454  0.72712  0.96025  1.0000
  C   C869      1.0  0.38699  0.73111  0.94524  1.0000
  H   H1559     1.0  0.38832  0.72760  0.96479  1.0000
  H   H1560     1.0  0.36785  0.73257  0.94169  1.0000
  C   C870      1.0  0.00667  0.74226  0.97309  1.0000
  C   C871      1.0  0.97751  0.81860  0.65429  1.0000
  C   C872      1.0  0.44715  0.72898  0.88534  1.0000
  C   C873      1.0  0.47413  0.73047  0.88392  1.0000
  H   H1561     1.0  0.20458  0.81174  0.97277  1.0000
  H   H1562     1.0  0.46814  0.83199  0.88290  1.0000
  H   H1563     1.0  0.40725  0.72499  0.85999  1.0000
  C   C874      1.0  0.96595  0.12508  0.39428  1.0000
  S   S191      1.0  0.89726  0.03792  0.42815  1.0000
  Fe  Fe99      1.0  0.77654  0.06068  0.21969  1.0000
  S   S192      1.0  0.80783  0.07619  0.19800  1.0000
  S   S193      1.0  0.78045  0.02822  0.24631  1.0000
  Fe  Fe100     1.0  0.74108  0.10194  0.20328  1.0000
  S   S194      1.0  0.76964  0.12013  0.17998  1.0000
  S   S195      1.0  0.70219  0.11483  0.21231  1.0000
  Fe  Fe101     1.0  0.78281  0.08327  0.16864  1.0000
  S   S196      1.0  0.79127  0.07751  0.12870  1.0000
  Fe  Fe102     1.0  0.79188  0.11119  0.21144  1.0000
  S   S197      1.0  0.81269  0.13882  0.22569  1.0000
  S   S198      1.0  0.75228  0.06588  0.18992  1.0000
  S   S199      1.0  0.76265  0.09497  0.23508  1.0000
  C   C875      1.0  0.72093  0.98867  0.03973  1.0000
  H   H1564     1.0  0.51672  0.13786  0.32014  1.0000
  H   H1565     1.0  0.75459  0.97778  0.18914  1.0000
  S   S200      1.0  0.84854  0.98975  0.07735  1.0000
  C   C876      1.0  0.77837  0.04145  0.02437  1.0000
  Fe  Fe103     1.0  0.88073  0.00234  0.42986  1.0000
  H   H1566     1.0  0.79597  0.06883  0.00142  1.0000
  H   H1567     1.0  0.78911  0.98369  0.08462  1.0000
  S   S201      1.0  0.85327  0.00861  0.00496  1.0000
  C   C877      1.0  0.69088  0.21654  0.39032  1.0000
  H   H1568     1.0  0.68046  0.01381  0.19311  1.0000
  Fe  Fe104     1.0  0.52703  0.00203  0.09094  1.0000
  H   H1569     1.0  0.72048  0.06342  0.23724  1.0000
  C   C878      1.0  0.77799  0.98557  0.40132  1.0000
  C   C879      1.0  0.77592  0.98022  0.25220  1.0000
  C   C880      1.0  0.51764  0.08505  0.15966  1.0000
  H   H1570     1.0  0.74990  0.16919  0.18715  1.0000
  H   H1571     1.0  0.66708  0.16537  0.29409  1.0000
  H   H1572     1.0  0.47982  0.04479  0.47213  1.0000
  H   H1573     1.0  0.88501  0.14815  0.26946  1.0000
  H   H1574     1.0  0.55190  0.02924  0.42800  1.0000
  C   C881      1.0  0.80798  0.14763  0.25541  1.0000
  C   C882      1.0  0.79550  0.13417  0.27381  1.0000
  C   C883      1.0  0.79404  0.14048  0.29759  1.0000
  C   C884      1.0  0.80449  0.16067  0.30320  1.0000
  C   C885      1.0  0.81663  0.17437  0.28473  1.0000
  C   C886      1.0  0.81845  0.16780  0.26103  1.0000
  H   H1575     1.0  0.78748  0.11857  0.26981  1.0000
  H   H1576     1.0  0.78475  0.12967  0.31174  1.0000
  H   H1577     1.0  0.82495  0.18982  0.28880  1.0000
  H   H1578     1.0  0.82819  0.17832  0.24698  1.0000
  C   C887      1.0  0.69079  0.14444  0.20387  1.0000
  C   C888      1.0  0.70134  0.15817  0.18440  1.0000
  C   C889      1.0  0.69160  0.18161  0.17811  1.0000
  C   C890      1.0  0.67127  0.19154  0.19126  1.0000
  C   C891      1.0  0.66067  0.17771  0.21063  1.0000
  C   C892      1.0  0.67029  0.15425  0.21678  1.0000
  H   H1579     1.0  0.71680  0.15059  0.17397  1.0000
  H   H1580     1.0  0.69983  0.19205  0.16297  1.0000
  H   H1581     1.0  0.64481  0.18488  0.22065  1.0000
  H   H1582     1.0  0.66183  0.14368  0.23169  1.0000
  C   C893      1.0  0.80692  0.05270  0.11483  1.0000
  C   C894      1.0  0.81122  0.05413  0.08966  1.0000
  C   C895      1.0  0.82390  0.03516  0.07790  1.0000
  C   C896      1.0  0.83224  0.01428  0.09114  1.0000
  C   C897      1.0  0.82761  0.01270  0.11625  1.0000
  C   C898      1.0  0.81510  0.03175  0.12804  1.0000
  H   H1583     1.0  0.80512  0.07026  0.07923  1.0000
  H   H1584     1.0  0.82770  0.03690  0.05867  1.0000
  H   H1585     1.0  0.83397  0.99669  0.12674  1.0000
  H   H1586     1.0  0.81195  0.03026  0.14737  1.0000
  H   H1587     1.0  0.86186  0.97706  0.31052  1.0000
  C   C899      1.0  0.76842  0.99963  0.21312  1.0000
  C   C900      1.0  0.77511  0.00084  0.23623  1.0000
  C   C901      1.0  0.69275  0.97967  0.26684  1.0000
  S   S202      1.0  0.53321  0.97824  0.26114  1.0000
  C   C902      1.0  0.89891  0.17562  0.39218  1.0000
  H   H1588     1.0  0.76864  0.01519  0.20037  1.0000
  C   C903      1.0  0.49588  0.04997  0.37652  1.0000
  C   C904      1.0  0.92783  0.04348  0.42420  1.0000
  C   C905      1.0  0.94430  0.03171  0.40814  1.0000
  C   C906      1.0  0.83369  0.05323  0.25171  1.0000
  C   C907      1.0  0.85122  0.11535  0.34180  1.0000
  C   C908      1.0  0.95885  0.06834  0.43216  1.0000
  C   C909      1.0  0.93531  0.06176  0.43621  1.0000
  H   H1589     1.0  0.93873  0.01775  0.39857  1.0000
  C   C910      1.0  0.52271  0.14080  0.36867  1.0000
  H   H1590     1.0  0.96451  0.08194  0.44193  1.0000
  C   C911      1.0  0.59271  0.00583  0.99667  1.0000
  H   H1591     1.0  0.52875  0.06901  0.16651  1.0000
  H   H1592     1.0  0.81815  0.97505  0.32013  1.0000
  C   C912      1.0  0.57563  0.99922  0.04561  1.0000
  C   C913      1.0  0.56257  0.01454  0.02961  1.0000
  C   C914      1.0  0.57115  0.01792  0.00526  1.0000
  H   H1593     1.0  0.50861  0.02949  0.42591  1.0000
  H   H1594     1.0  0.48542  0.12328  0.16486  1.0000
  H   H1595     1.0  0.54597  0.02392  0.03606  1.0000
  H   H1596     1.0  0.56090  0.02973  0.99301  1.0000
  H   H1597     1.0  0.84075  0.00331  0.33987  1.0000
  H   H1598     1.0  0.88831  0.16213  0.38612  1.0000
  H   H1599     1.0  0.69153  0.22049  0.26549  1.0000
  H   H1600     1.0  0.73206  0.06230  0.27879  1.0000
  H   H1601     1.0  0.76820  0.07562  0.31873  1.0000
  H   H1602     1.0  0.76831  0.03803  0.29877  1.0000
  H   H1603     1.0  0.52418  0.98977  0.17500  1.0000
  H   H1604     1.0  0.54279  0.99580  0.21197  1.0000
  Fe  Fe105     1.0  0.49226  0.98659  0.13353  1.0000
  H   H1605     1.0  0.83547  0.04382  0.23508  1.0000
  C   C915      1.0  0.69710  0.20585  0.25368  1.0000
  H   H1606     1.0  0.67300  0.98034  0.26831  1.0000
  H   H1607     1.0  0.69440  0.98277  0.22886  1.0000
  H   H1608     1.0  0.91887  0.16186  0.46274  1.0000
  H   H1609     1.0  0.55934  0.02829  0.45801  1.0000
  C   C916      1.0  0.77214  0.99469  0.37597  1.0000
  C   C917      1.0  0.81034  0.18021  0.44311  1.0000
  H   H1610     1.0  0.80130  0.14740  0.46245  1.0000
  H   H1611     1.0  0.53837  0.15047  0.37150  1.0000
  C   C918      1.0  0.70186  0.99222  0.24250  1.0000
  H   H1612     1.0  0.79785  0.01379  0.04450  1.0000
  C   C919      1.0  0.88938  0.15431  0.23127  1.0000
  H   H1613     1.0  0.67152  0.21549  0.38959  1.0000
  C   C920      1.0  0.59748  0.98768  0.03710  1.0000
  S   S203      1.0  0.87008  0.98827  0.46753  1.0000
  Fe  Fe106     1.0  0.85778  0.98322  0.03774  1.0000
  H   H1614     1.0  0.76611  0.17453  0.46638  1.0000
  C   C921      1.0  0.50755  0.03349  0.44492  1.0000
  H   H1615     1.0  0.70867  0.99578  0.19325  1.0000
  S   S204      1.0  0.81069  0.21269  0.38197  1.0000
  H   H1616     1.0  0.55409  0.14215  0.29281  1.0000
  H   H1617     1.0  0.68535  0.98293  0.03109  1.0000
  H   H1618     1.0  0.86973  0.11279  0.34729  1.0000
  H   H1619     1.0  0.56100  0.11060  0.38460  1.0000
  C   C922      1.0  0.73255  0.18584  0.23187  1.0000
  H   H1620     1.0  0.50730  0.18907  0.14220  1.0000
  C   C923      1.0  0.74184  0.00406  0.03059  1.0000
  H   H1621     1.0  0.91266  0.18061  0.37760  1.0000
  H   H1622     1.0  0.76150  0.98727  0.41368  1.0000
  H   H1623     1.0  0.86714  0.19387  0.40986  1.0000
  H   H1624     1.0  0.49752  0.99098  0.42694  1.0000
  C   C924      1.0  0.69340  0.18178  0.26874  1.0000
  C   C925      1.0  0.97506  0.05742  0.41543  1.0000
  H   H1625     1.0  0.77589  0.18560  0.18240  1.0000
  H   H1626     1.0  0.48191  0.18376  0.18197  1.0000
  H   H1627     1.0  0.87403  0.00559  0.30818  1.0000
  H   H1628     1.0  0.72012  0.17915  0.22036  1.0000
  H   H1629     1.0  0.73413  0.17137  0.24654  1.0000
  H   H1630     1.0  0.77647  0.05251  0.03984  1.0000
  H   H1631     1.0  0.52412  0.08985  0.14070  1.0000
  H   H1632     1.0  0.71389  0.08921  0.27023  1.0000
  H   H1633     1.0  0.59932  0.04056  0.43597  1.0000
  H   H1634     1.0  0.95560  0.16224  0.39969  1.0000
  H   H1635     1.0  0.80857  0.00200  0.36532  1.0000
  H   H1636     1.0  0.70732  0.17691  0.28127  1.0000
  H   H1637     1.0  0.66125  0.01611  0.27879  1.0000
  H   H1638     1.0  0.48314  0.11274  0.24586  1.0000
  C   C926      1.0  0.91220  0.12308  0.40755  1.0000
  C   C927      1.0  0.49075  0.17971  0.14401  1.0000
  H   H1639     1.0  0.56833  0.16963  0.29096  1.0000
  H   H1640     1.0  0.69389  0.16719  0.25673  1.0000
  C   C928      1.0  0.70722  0.05850  0.25233  1.0000
  S   S205      1.0  0.80351  0.16712  0.33361  1.0000
  H   H1641     1.0  0.55768  0.20692  0.19020  1.0000
  C   C929      1.0  0.96774  0.03886  0.40358  1.0000
  H   H1642     1.0  0.89483  0.14448  0.21517  1.0000
  H   H1643     1.0  0.81553  0.06269  0.25359  1.0000
  H   H1644     1.0  0.75338  0.99908  0.33304  1.0000
  C   C930      1.0  0.54593  0.10112  0.37998  1.0000
  C   C931      1.0  0.48254  0.14515  0.35508  1.0000
  H   H1645     1.0  0.50407  0.16749  0.31480  1.0000
  H   H1646     1.0  0.51852  0.19732  0.17988  1.0000
  S   S206      1.0  0.51567  0.01702  0.12654  1.0000
  N   N50       1.0  0.76157  0.00342  0.04707  1.0000
  H   H1647     1.0  0.70489  0.99266  0.00563  1.0000
  C   C932      1.0  0.78256  0.01472  0.03333  1.0000
  C   C933      1.0  0.75738  0.18569  0.19107  1.0000
  C   C934      1.0  0.75400  0.01537  0.06987  1.0000
  C   C935      1.0  0.73476  0.03688  0.06851  1.0000
  H   H1648     1.0  0.70833  0.21953  0.20661  1.0000
  C   C936      1.0  0.58374  0.00677  0.43524  1.0000
  C   C937      1.0  0.49665  0.03644  0.30743  1.0000
  H   H1649     1.0  0.62281  0.98190  0.00650  1.0000
  C   C938      1.0  0.73277  0.05000  0.09128  1.0000
  C   C939      1.0  0.55103  0.16156  0.29503  1.0000
  H   H1650     1.0  0.90198  0.16815  0.23193  1.0000
  C   C940      1.0  0.48049  0.03288  0.19096  1.0000
  H   H1651     1.0  0.73412  0.02255  0.02620  1.0000
  C   C941      1.0  0.51770  0.01190  0.46113  1.0000
  H   H1652     1.0  0.54502  0.11778  0.34423  1.0000
  C   C942      1.0  0.83648  0.00656  0.32094  1.0000
  H   H1653     1.0  0.79563  0.18181  0.43110  1.0000
  H   H1654     1.0  0.74669  0.00236  0.08422  1.0000
  H   H1655     1.0  0.76993  0.02139  0.07715  1.0000
  H   H1656     1.0  0.71704  0.03059  0.06671  1.0000
  H   H1657     1.0  0.73862  0.05002  0.05310  1.0000
  C   C943      1.0  0.53243  0.11591  0.36054  1.0000
  C   C944      1.0  0.80341  0.16583  0.46676  1.0000
  C   C945      1.0  0.55804  0.01686  0.44322  1.0000
  H   H1658     1.0  0.51194  0.05846  0.37019  1.0000
  H   H1659     1.0  0.50732  0.01751  0.35940  1.0000
  H   H1660     1.0  0.72156  0.98814  0.24016  1.0000
  S   S207      1.0  0.76299  0.22178  0.35306  1.0000
  C   C946      1.0  0.88882  0.11786  0.42301  1.0000
  H   H1661     1.0  0.68946  0.06674  0.24764  1.0000
  H   H1662     1.0  0.72821  0.03771  0.10734  1.0000
  H   H1663     1.0  0.74988  0.05753  0.09339  1.0000
  H   H1664     1.0  0.71855  0.06496  0.09021  1.0000
  H   H1665     1.0  0.80042  0.07438  0.31315  1.0000
  H   H1666     1.0  0.92346  0.10583  0.40821  1.0000
  C   C947      1.0  0.84950  0.10259  0.31935  1.0000
  H   H1667     1.0  0.87985  0.05250  0.29599  1.0000
  H   H1668     1.0  0.86736  0.11154  0.39439  1.0000
  C   C948      1.0  0.88190  0.19788  0.39598  1.0000
  N   N51       1.0  0.69585  0.01888  0.23863  1.0000
  C   C949      1.0  0.70766  0.03090  0.25667  1.0000
  H   H1669     1.0  0.62241  0.04403  0.24996  1.0000
  C   C950      1.0  0.70678  0.02718  0.21402  1.0000
  C   C951      1.0  0.66914  0.02497  0.23953  1.0000
  C   C952      1.0  0.65587  0.02964  0.26436  1.0000
  C   C953      1.0  0.71389  0.06954  0.27426  1.0000
  C   C954      1.0  0.70009  0.01433  0.19272  1.0000
  C   C955      1.0  0.49008  0.18491  0.38414  1.0000
  C   C956      1.0  0.60593  0.99087  0.01276  1.0000
  C   C957      1.0  0.62884  0.03003  0.26368  1.0000
  H   H1670     1.0  0.48087  0.21271  0.40829  1.0000
  C   C958      1.0  0.70895  0.02693  0.16870  1.0000
  H   H1671     1.0  0.72683  0.02398  0.25681  1.0000
  H   H1672     1.0  0.69986  0.02642  0.27517  1.0000
  S   S208      1.0  0.47976  0.09302  0.39459  1.0000
  H   H1673     1.0  0.85901  0.09616  0.42310  1.0000
  H   H1674     1.0  0.72655  0.02538  0.21366  1.0000
  H   H1675     1.0  0.70174  0.04658  0.20975  1.0000
  H   H1676     1.0  0.66473  0.04142  0.22759  1.0000
  C   C959      1.0  0.87435  0.10181  0.41071  1.0000
  H   H1677     1.0  0.65972  0.04725  0.26960  1.0000
  H   H1678     1.0  0.76893  0.17011  0.22459  1.0000
  H   H1679     1.0  0.80242  0.03916  0.99188  1.0000
  H   H1680     1.0  0.49918  0.05556  0.30221  1.0000
  H   H1681     1.0  0.81452  0.19837  0.44644  1.0000
  H   H1682     1.0  0.95267  0.14394  0.43961  1.0000
  S   S209      1.0  0.49797  0.02348  0.07181  1.0000
  H   H1683     1.0  0.49496  0.16061  0.21547  1.0000
  H   H1684     1.0  0.83430  0.02611  0.31613  1.0000
  H   H1685     1.0  0.61978  0.03405  0.28142  1.0000
  H   H1686     1.0  0.48459  0.12683  0.34905  1.0000
  H   H1687     1.0  0.87713  0.13429  0.42634  1.0000
  H   H1688     1.0  0.62386  0.01239  0.25954  1.0000
  C   C960      1.0  0.50692  0.98804  0.02017  1.0000
  H   H1689     1.0  0.76453  0.01347  0.37655  1.0000
  H   H1690     1.0  0.81062  0.99762  0.29760  1.0000
  H   H1691     1.0  0.69213  0.01371  0.02674  1.0000
  C   C961      1.0  0.52846  0.98422  0.21293  1.0000
  H   H1692     1.0  0.50363  0.02601  0.27174  1.0000
  H   H1693     1.0  0.70098  0.04571  0.16677  1.0000
  H   H1694     1.0  0.77236  0.20122  0.30478  1.0000
  C   C962      1.0  0.50384  0.12832  0.16570  1.0000
  H   H1695     1.0  0.52701  0.18051  0.20700  1.0000
  H   H1696     1.0  0.92156  0.18026  0.42018  1.0000
  Fe  Fe107     1.0  0.49464  0.15117  0.45249  1.0000
  C   C963      1.0  0.85806  0.99646  0.30541  1.0000
  C   C964      1.0  0.51923  0.10569  0.17500  1.0000
  S   S210      1.0  0.84447  0.99887  0.41744  1.0000
  H   H1697     1.0  0.49893  0.08039  0.16024  1.0000
  H   H1698     1.0  0.94015  0.15032  0.37800  1.0000
  H   H1699     1.0  0.48223  0.22343  0.37698  1.0000
  H   H1700     1.0  0.76876  0.99871  0.30434  1.0000
  H   H1701     1.0  0.51061  0.13243  0.14668  1.0000
  C   C965      1.0  0.69956  0.99499  0.02485  1.0000
  H   H1702     1.0  0.85484  0.99918  0.28613  1.0000
  H   H1703     1.0  0.55315  0.08369  0.37349  1.0000
  H   H1704     1.0  0.53480  0.16061  0.15707  1.0000
  H   H1705     1.0  0.49283  0.16569  0.13127  1.0000
  C   C966      1.0  0.49697  0.14407  0.20590  1.0000
  C   C967      1.0  0.55620  0.19003  0.18202  1.0000
  N   N52       1.0  0.54021  0.99862  0.45082  1.0000
  C   C968      1.0  0.50829  0.21020  0.24479  1.0000
  H   H1706     1.0  0.53830  0.10914  0.17426  1.0000
  H   H1707     1.0  0.51314  0.09958  0.19370  1.0000
  H   H1708     1.0  0.53860  0.17010  0.28195  1.0000
  H   H1709     1.0  0.72873  0.02679  0.16718  1.0000
  H   H1710     1.0  0.51343  0.13758  0.38692  1.0000
  H   H1711     1.0  0.74921  0.99776  0.01296  1.0000
  C   C969      1.0  0.66914  0.18270  0.28331  1.0000
  C   C970      1.0  0.48517  0.16885  0.17012  1.0000
  H   H1712     1.0  0.93313  0.05978  0.29569  1.0000
  C   C971      1.0  0.76707  0.21265  0.28873  1.0000
  C   C972      1.0  0.94930  0.98535  0.46538  1.0000
  C   C973      1.0  0.78487  0.04208  0.30614  1.0000
  C   C974      1.0  0.53079  0.18253  0.18726  1.0000
  H   H1713     1.0  0.94057  0.99792  0.45167  1.0000
  H   H1714     1.0  0.69743  0.17894  0.38446  1.0000
  H   H1715     1.0  0.76242  0.04513  0.01417  1.0000
  C   C975      1.0  0.51615  0.15601  0.32647  1.0000
  H   H1716     1.0  0.83037  0.10359  0.31587  1.0000
  C   C976      1.0  0.76063  0.97841  0.20672  1.0000
  H   H1717     1.0  0.54118  0.14528  0.18488  1.0000
  N   N53       1.0  0.50628  0.15580  0.35234  1.0000
  H   H1718     1.0  0.89158  0.21244  0.40142  1.0000
  H   H1719     1.0  0.73296  0.19878  0.29244  1.0000
  Fe  Fe108     1.0  0.80019  0.20486  0.34595  1.0000
  C   C977      1.0  0.49324  0.02676  0.37025  1.0000
  H   H1720     1.0  0.82644  0.17116  0.43383  1.0000
  H   H1721     1.0  0.92016  0.04093  0.27698  1.0000
  H   H1722     1.0  0.52162  0.18765  0.35982  1.0000
  H   H1723     1.0  0.84605  0.13477  0.33849  1.0000
  C   C978      1.0  0.50368  0.18111  0.35938  1.0000
  C   C979      1.0  0.55035  0.98157  0.47041  1.0000
  H   H1724     1.0  0.55421  0.15721  0.33290  1.0000
  H   H1725     1.0  0.89585  0.16533  0.42995  1.0000
  H   H1726     1.0  0.83900  0.10795  0.35672  1.0000
  H   H1727     1.0  0.89317  0.10825  0.44040  1.0000
  H   H1728     1.0  0.75513  0.18441  0.27182  1.0000
  H   H1729     1.0  0.53908  0.99749  0.41241  1.0000
  H   H1730     1.0  0.80094  0.03670  0.34025  1.0000
  Fe  Fe109     1.0  0.83534  0.98168  0.45435  1.0000
  H   H1731     1.0  0.88553  0.08552  0.40559  1.0000
  H   H1732     1.0  0.91824  0.03427  0.30902  1.0000
  H   H1733     1.0  0.97410  0.12036  0.41145  1.0000
  H   H1734     1.0  0.87028  0.06061  0.24855  1.0000
  H   H1735     1.0  0.81599  0.04775  0.01735  1.0000
  H   H1736     1.0  0.56924  0.17617  0.18983  1.0000
  C   C980      1.0  0.91059  0.16619  0.41552  1.0000
  C   C981      1.0  0.94647  0.14637  0.39618  1.0000
  S   S211      1.0  0.50943  0.11387  0.44564  1.0000
  C   C982      1.0  0.78380  0.06914  0.30680  1.0000
  S   S212      1.0  0.51803  0.18161  0.44215  1.0000
  H   H1737     1.0  0.59140  0.03472  0.40675  1.0000
  H   H1738     1.0  0.89276  0.07120  0.31490  1.0000
  H   H1739     1.0  0.85552  0.08358  0.32345  1.0000
  H   H1740     1.0  0.51791  0.04913  0.44593  1.0000
  H   H1741     1.0  0.48949  0.01879  0.23841  1.0000
  Fe  Fe110     1.0  0.88843  0.99178  0.98943  1.0000
  N   N54       1.0  0.86983  0.10034  0.27564  1.0000
  C   C983      1.0  0.93575  0.13556  0.43872  1.0000
  C   C984      1.0  0.89420  0.06438  0.29694  1.0000
  N   N55       1.0  0.92570  0.14268  0.41481  1.0000
  C   C985      1.0  0.48918  0.02447  0.28644  1.0000
  H   H1742     1.0  0.76991  0.03417  0.34206  1.0000
  C   C986      1.0  0.77040  0.99221  0.32343  1.0000
  H   H1743     1.0  0.66055  0.01067  0.23206  1.0000
  H   H1744     1.0  0.69877  0.98780  0.28214  1.0000
  H   H1745     1.0  0.85276  0.13143  0.29238  1.0000
  H   H1746     1.0  0.51765  0.00354  0.01532  1.0000
  H   H1747     1.0  0.84631  0.07255  0.28849  1.0000
  H   H1748     1.0  0.72351  0.19530  0.37899  1.0000
  H   H1749     1.0  0.78910  0.00450  0.01762  1.0000
  C   C987      1.0  0.51110  0.20829  0.45617  1.0000
  C   C988      1.0  0.75781  0.18631  0.21813  1.0000
  H   H1750     1.0  0.70381  0.01747  0.15381  1.0000
  C   C989      1.0  0.86389  0.11456  0.29725  1.0000
  H   H1751     1.0  0.88050  0.12037  0.30328  1.0000
  C   C990      1.0  0.79954  0.04970  0.00775  1.0000
  H   H1752     1.0  0.78201  0.98076  0.26970  1.0000
  H   H1753     1.0  0.83266  0.09709  0.27168  1.0000
  S   S213      1.0  0.56565  0.99424  0.07634  1.0000
  C   C991      1.0  0.78692  0.02897  0.33149  1.0000
  C   C992      1.0  0.74730  0.20177  0.27788  1.0000
  H   H1754     1.0  0.90750  0.09689  0.28087  1.0000
  Fe  Fe111     1.0  0.83724  0.97879  0.99015  1.0000
  H   H1755     1.0  0.95854  0.10899  0.38914  1.0000
  H   H1756     1.0  0.70077  0.06591  0.28986  1.0000
  C   C993      1.0  0.84965  0.08541  0.27268  1.0000
  H   H1757     1.0  0.80023  0.03678  0.29352  1.0000
  C   C994      1.0  0.59880  0.02653  0.42351  1.0000
  C   C995      1.0  0.48775  0.21347  0.23214  1.0000
  C   C996      1.0  0.85264  0.07097  0.25030  1.0000
  H   H1758     1.0  0.90833  0.12905  0.25507  1.0000
  H   H1759     1.0  0.68348  0.20750  0.24035  1.0000
  H   H1760     1.0  0.85444  0.12722  0.25033  1.0000
  H   H1761     1.0  0.51378  0.02741  0.31314  1.0000
  C   C997      1.0  0.88977  0.13724  0.25405  1.0000
  H   H1762     1.0  0.89976  0.07855  0.25977  1.0000
  H   H1763     1.0  0.85052  0.08315  0.23377  1.0000
  H   H1764     1.0  0.58354  0.99330  0.42219  1.0000
  H   H1765     1.0  0.61123  0.98206  0.29985  1.0000
  H   H1766     1.0  0.87392  0.20420  0.37897  1.0000
  H   H1767     1.0  0.87119  0.16339  0.22962  1.0000
  H   H1768     1.0  0.65454  0.18594  0.27119  1.0000
  C   C998      1.0  0.87216  0.11779  0.25361  1.0000
  C   C999      1.0  0.89340  0.08553  0.27731  1.0000
  C   C1000     1.0  0.91791  0.04898  0.29441  1.0000
  H   H1769     1.0  0.87798  0.10829  0.23733  1.0000
  H   H1770     1.0  0.61737  0.01889  0.41909  1.0000
  H   H1771     1.0  0.94070  0.11605  0.44069  1.0000
  H   H1772     1.0  0.53964  0.18533  0.32215  1.0000
  H   H1773     1.0  0.49956  0.02773  0.19359  1.0000
  H   H1774     1.0  0.53374  0.09754  0.39636  1.0000
  H   H1775     1.0  0.80766  0.97733  0.05785  1.0000
  H   H1776     1.0  0.78192  0.07787  0.28846  1.0000
  H   H1777     1.0  0.92281  0.07086  0.44880  1.0000
  H   H1778     1.0  0.74655  0.20132  0.18311  1.0000
  N   N56       1.0  0.50356  0.15000  0.17954  1.0000
  H   H1779     1.0  0.90832  0.12655  0.38846  1.0000
  C   C1001     1.0  0.52819  0.15874  0.17639  1.0000
  N   N57       1.0  0.79141  0.00213  0.33245  1.0000
  H   H1780     1.0  0.83591  0.03960  0.26707  1.0000
  H   H1781     1.0  0.51160  0.13254  0.21423  1.0000
  H   H1782     1.0  0.75819  0.98386  0.37118  1.0000
  H   H1783     1.0  0.51785  0.10554  0.35645  1.0000
  H   H1784     1.0  0.50906  0.19721  0.26016  1.0000
  H   H1785     1.0  0.49822  0.17285  0.39840  1.0000
  H   H1786     1.0  0.48817  0.99373  0.01645  1.0000
  Fe  Fe112     1.0  0.48478  0.03647  0.10807  1.0000
  C   C1002     1.0  0.52787  0.22359  0.23754  1.0000
  C   C1003     1.0  0.53645  0.98567  0.42932  1.0000
  C   C1004     1.0  0.49071  0.21056  0.39049  1.0000
  C   C1005     1.0  0.79472  0.99266  0.35804  1.0000
  H   H1787     1.0  0.79136  0.99622  0.40760  1.0000
  C   C1006     1.0  0.73740  0.21900  0.25740  1.0000
  H   H1788     1.0  0.71503  0.99099  0.05880  1.0000
  H   H1789     1.0  0.58788  0.07595  0.46988  1.0000
  H   H1790     1.0  0.56082  0.19304  0.16240  1.0000
  S   S214      1.0  0.55378  0.21839  0.25309  1.0000
  C   C1007     1.0  0.81366  0.99464  0.31698  1.0000
  C   C1008     1.0  0.92013  0.14220  0.46171  1.0000
  C   C1009     1.0  0.76952  0.97750  0.05374  1.0000
  H   H1791     1.0  0.66754  0.19710  0.29567  1.0000
  C   C1010     1.0  0.54105  0.16575  0.32063  1.0000
  H   H1792     1.0  0.78291  0.21419  0.27557  1.0000
  H   H1793     1.0  0.59279  0.99846  0.45102  1.0000
  H   H1794     1.0  0.49485  0.19348  0.34563  1.0000
  H   H1795     1.0  0.48799  0.00528  0.29238  1.0000
  S   S215      1.0  0.65953  0.22113  0.18298  1.0000
  C   C1011     1.0  0.70408  0.19622  0.37692  1.0000
  H   H1796     1.0  0.90185  0.13659  0.46216  1.0000
  H   H1797     1.0  0.69497  0.21323  0.40936  1.0000
  H   H1798     1.0  0.70114  0.19880  0.35756  1.0000
  H   H1799     1.0  0.50730  0.98255  0.03962  1.0000
  H   H1800     1.0  0.50329  0.99987  0.46597  1.0000
  C   C1012     1.0  0.77566  0.98205  0.47195  1.0000
  H   H1801     1.0  0.76746  0.20161  0.22158  1.0000
  C   C1013     1.0  0.51166  0.97604  0.42873  1.0000
  C   C1014     1.0  0.47767  0.06239  0.39049  1.0000
  H   H1802     1.0  0.48286  0.03504  0.32281  1.0000
  C   C1015     1.0  0.51791  0.98088  0.19199  1.0000
  H   H1803     1.0  0.68116  0.97713  0.38418  1.0000
  N   N58       1.0  0.72172  0.20900  0.24119  1.0000
  H   H1804     1.0  0.95385  0.97898  0.98467  1.0000
  H   H1805     1.0  0.47767  0.05266  0.18883  1.0000
  H   H1806     1.0  0.50941  0.21469  0.39157  1.0000
  C   C1016     1.0  0.48157  0.04070  0.45309  1.0000
  S   S216      1.0  0.62237  0.22432  0.24583  1.0000
  H   H1807     1.0  0.60789  0.97613  0.04942  1.0000
  H   H1808     1.0  0.97651  0.01777  0.45318  1.0000
  C   C1017     1.0  0.64119  0.04920  0.87730  1.0000
  S   S217      1.0  0.67269  0.98511  0.86610  1.0000
  Fe  Fe113     1.0  0.79923  0.09644  0.74976  1.0000
  S   S218      1.0  0.76310  0.10784  0.76747  1.0000
  S   S219      1.0  0.83367  0.11551  0.74503  1.0000
  Fe  Fe114     1.0  0.78007  0.05218  0.73181  1.0000
  S   S220      1.0  0.74258  0.06137  0.74747  1.0000
  S   S221      1.0  0.79234  0.01994  0.71109  1.0000
  Fe  Fe115     1.0  0.74922  0.09923  0.73318  1.0000
  S   S222      1.0  0.72282  0.12543  0.71364  1.0000
  Fe  Fe116     1.0  0.76008  0.06878  0.78000  1.0000
  S   S223      1.0  0.75087  0.05449  0.81911  1.0000
  S   S224      1.0  0.78535  0.08928  0.71524  1.0000
  S   S225      1.0  0.79754  0.05804  0.76470  1.0000
  C   C1018     1.0  0.97562  0.99223  0.52525  1.0000
  C   C1019     1.0  0.77809  0.15631  0.72754  1.0000
  H   H1809     1.0  0.92355  0.04245  0.85875  1.0000
  H   H1810     1.0  0.74444  0.21374  0.65572  1.0000
  H   H1811     1.0  0.69120  0.00455  0.58833  1.0000
  H   H1812     1.0  0.73195  0.98458  0.68226  1.0000
  C   C1020     1.0  0.55160  0.07487  0.48565  1.0000
  H   H1813     1.0  0.88017  0.01677  0.52091  1.0000
  H   H1814     1.0  0.77258  0.17442  0.68286  1.0000
  S   S226      1.0  0.66866  0.99034  0.93826  1.0000
  H   H1815     1.0  0.84175  0.00430  0.70129  1.0000
  H   H1816     1.0  0.90309  0.05951  0.69724  1.0000
  H   H1817     1.0  0.54566  0.09196  0.47690  1.0000
  S   S227      1.0  0.50537  0.07355  0.50699  1.0000
  C   C1021     1.0  0.79283  0.20557  0.65075  1.0000
  H   H1818     1.0  0.87303  0.01824  0.93436  1.0000
  H   H1819     1.0  0.79471  0.12130  0.52758  1.0000
  C   C1022     1.0  0.93666  0.04126  0.70553  1.0000
  H   H1820     1.0  0.77643  0.15545  0.74739  1.0000
  C   C1023     1.0  0.90831  0.04072  0.84809  1.0000
  C   C1024     1.0  0.67669  0.07028  0.86519  1.0000
  H   H1821     1.0  0.55497  0.99182  0.48507  1.0000
  C   C1025     1.0  0.53842  0.17868  0.51511  1.0000
  H   H1822     1.0  0.73939  0.19893  0.68549  1.0000
  C   C1026     1.0  0.76057  0.98619  0.95714  1.0000
  H   H1823     1.0  0.73120  0.18997  0.47869  1.0000
  C   C1027     1.0  0.91305  0.04202  0.69417  1.0000
  C   C1028     1.0  0.93794  0.01676  0.49221  1.0000
  C   C1029     1.0  0.73013  0.03368  0.83110  1.0000
  C   C1030     1.0  0.71188  0.02785  0.81811  1.0000
  C   C1031     1.0  0.69464  0.01280  0.82908  1.0000
  C   C1032     1.0  0.69554  0.00314  0.85301  1.0000
  C   C1033     1.0  0.71426  0.00829  0.86574  1.0000
  C   C1034     1.0  0.73129  0.02364  0.85490  1.0000
  H   H1824     1.0  0.71069  0.03547  0.79983  1.0000
  H   H1825     1.0  0.68025  0.00899  0.81905  1.0000
  H   H1826     1.0  0.71545  0.00076  0.88404  1.0000
  H   H1827     1.0  0.74537  0.02796  0.86509  1.0000
  C   C1035     1.0  0.73088  0.13871  0.68441  1.0000
  C   C1036     1.0  0.71686  0.15869  0.67498  1.0000
  C   C1037     1.0  0.72257  0.16934  0.65166  1.0000
  C   C1038     1.0  0.74218  0.15983  0.63742  1.0000
  C   C1039     1.0  0.75616  0.13987  0.64682  1.0000
  C   C1040     1.0  0.75067  0.12948  0.67021  1.0000
  H   H1828     1.0  0.70144  0.16590  0.68573  1.0000
  H   H1829     1.0  0.71147  0.18452  0.64453  1.0000
  H   H1830     1.0  0.77121  0.13222  0.63589  1.0000
  H   H1831     1.0  0.76137  0.11391  0.67695  1.0000
  H   H1832     1.0  0.91983  0.13568  0.50043  1.0000
  H   H1833     1.0  0.67007  0.98464  0.60333  1.0000
  C   C1041     1.0  0.77496  0.99524  0.71541  1.0000
  C   C1042     1.0  0.75252  0.99677  0.72821  1.0000
  H   H1834     1.0  0.92082  0.99753  0.52414  1.0000
  H   H1835     1.0  0.74543  0.01332  0.73529  1.0000
  S   S228      1.0  0.61428  0.03320  0.48736  1.0000
  H   H1836     1.0  0.78189  0.09600  0.48506  1.0000
  H   H1837     1.0  0.80744  0.05032  0.85269  1.0000
  C   C1043     1.0  0.53560  0.06217  0.50130  1.0000
  C   C1044     1.0  0.54388  0.04018  0.51289  1.0000
  C   C1045     1.0  0.56786  0.03088  0.50869  1.0000
  H   H1838     1.0  0.48616  0.19357  0.48363  1.0000
  H   H1839     1.0  0.60782  0.21035  0.49156  1.0000
  H   H1840     1.0  0.53172  0.03026  0.52514  1.0000
  H   H1841     1.0  0.57404  0.01397  0.51774  1.0000
  C   C1046     1.0  0.94770  0.99931  0.89149  1.0000
  C   C1047     1.0  0.95441  0.01846  0.90262  1.0000
  C   C1048     1.0  0.94495  0.02247  0.92615  1.0000
  C   C1049     1.0  0.92888  0.00729  0.93886  1.0000
  H   H1842     1.0  0.96055  0.10582  0.81376  1.0000
  H   H1843     1.0  0.94184  0.14571  0.74795  1.0000
  H   H1844     1.0  0.74266  0.99234  0.78230  1.0000
  H   H1845     1.0  0.94972  0.03773  0.93435  1.0000
  H   H1846     1.0  0.80780  0.16143  0.51602  1.0000
  H   H1847     1.0  0.77085  0.18023  0.55457  1.0000
  C   C1050     1.0  0.84899  0.19116  0.76128  1.0000
  C   C1051     1.0  0.86356  0.17863  0.74431  1.0000
  C   C1052     1.0  0.85837  0.15574  0.73936  1.0000
  C   C1053     1.0  0.83831  0.14513  0.75096  1.0000
  C   C1054     1.0  0.82344  0.15782  0.76762  1.0000
  C   C1055     1.0  0.82885  0.18063  0.77284  1.0000
  C   C1056     1.0  0.62273  0.03810  0.89619  1.0000
  H   H1848     1.0  0.87011  0.14607  0.72659  1.0000
  H   H1849     1.0  0.80816  0.14980  0.77696  1.0000
  H   H1850     1.0  0.81748  0.19005  0.78605  1.0000
  H   H1851     1.0  0.81208  0.08105  0.85528  1.0000
  H   H1852     1.0  0.65020  0.03457  0.86683  1.0000
  H   H1853     1.0  0.91925  0.99189  0.62030  1.0000
  H   H1854     1.0  0.91050  0.00474  0.70723  1.0000
  H   H1855     1.0  0.76099  0.15196  0.72162  1.0000
  H   H1856     1.0  0.94922  0.17839  0.70157  1.0000
  C   C1057     1.0  0.86524  0.98184  0.72379  1.0000
  C   C1058     1.0  0.83705  0.05553  0.87348  1.0000
  H   H1857     1.0  0.85138  0.03417  0.66864  1.0000
  H   H1858     1.0  0.75326  0.00647  0.49332  1.0000
  C   C1059     1.0  0.80486  0.16239  0.56221  1.0000
  C   C1060     1.0  0.84863  0.08224  0.68270  1.0000
  N   N59       1.0  0.77211  0.16634  0.50395  1.0000
  C   C1061     1.0  0.81673  0.19224  0.64131  1.0000
  C   C1062     1.0  0.96582  0.98154  0.50430  1.0000
  H   H1859     1.0  0.83709  0.06184  0.92388  1.0000
  C   C1063     1.0  0.85748  0.02685  0.92491  1.0000
  C   C1064     1.0  0.69714  0.05549  0.91042  1.0000
  C   C1065     1.0  0.78312  0.16537  0.54766  1.0000
  H   H1860     1.0  0.85157  0.07574  0.95947  1.0000
  S   S229      1.0  0.80207  0.99421  0.47681  1.0000
  H   H1861     1.0  0.94847  0.17652  0.74664  1.0000
  C   C1066     1.0  0.69243  0.99910  0.62714  1.0000
  C   C1067     1.0  0.68430  0.09495  0.82546  1.0000
  H   H1862     1.0  0.91731  0.04160  0.67463  1.0000
  C   C1068     1.0  0.77899  0.97710  0.97144  1.0000
  H   H1863     1.0  0.75190  0.98770  0.81227  1.0000
  H   H1864     1.0  0.96364  0.00737  0.53180  1.0000
  Fe  Fe117     1.0  0.73969  0.20988  0.59377  1.0000
  H   H1865     1.0  0.86370  0.05966  0.71149  1.0000
  H   H1866     1.0  0.93357  0.04113  0.72534  1.0000
  C   C1069     1.0  0.73247  0.98179  0.47914  1.0000
  C   C1070     1.0  0.67391  0.04619  0.90356  1.0000
  C   C1071     1.0  0.60682  0.02290  0.88455  1.0000
  H   H1867     1.0  0.65555  0.07274  0.83404  1.0000
  Fe  Fe118     1.0  0.62956  0.99483  0.49559  1.0000
  H   H1868     1.0  0.74210  0.17245  0.53033  1.0000
  H   H1869     1.0  0.77373  0.14883  0.55109  1.0000
  C   C1072     1.0  0.64830  0.08496  0.89754  1.0000
  C   C1073     1.0  0.64054  0.08243  0.92488  1.0000
  C   C1074     1.0  0.62516  0.10459  0.93259  1.0000
  H   H1870     1.0  0.66064  0.09946  0.89495  1.0000
  H   H1871     1.0  0.63243  0.09235  0.88804  1.0000
  H   H1872     1.0  0.65646  0.08030  0.93528  1.0000
  C   C1075     1.0  0.70734  0.04002  0.93147  1.0000
  H   H1873     1.0  0.69393  0.07420  0.91521  1.0000
  H   H1874     1.0  0.65261  0.09958  0.84959  1.0000
  C   C1076     1.0  0.66525  0.08461  0.84363  1.0000
  H   H1875     1.0  0.89898  0.05866  0.84403  1.0000
  C   C1077     1.0  0.78532  0.09672  0.50408  1.0000
  H   H1876     1.0  0.67575  0.10455  0.80990  1.0000
  H   H1877     1.0  0.69418  0.10775  0.83365  1.0000
  H   H1878     1.0  0.69968  0.17990  0.52548  1.0000
  C   C1078     1.0  0.78716  0.18305  0.68978  1.0000
  H   H1879     1.0  0.62044  0.10250  0.95226  1.0000
  C   C1079     1.0  0.95161  0.15987  0.73734  1.0000
  H   H1880     1.0  0.55116  0.20217  0.53775  1.0000
  H   H1881     1.0  0.52080  0.01886  0.47835  1.0000
  C   C1080     1.0  0.83816  0.02996  0.88653  1.0000
  H   H1882     1.0  0.70570  0.20898  0.51084  1.0000
  H   H1883     1.0  0.82204  0.02879  0.89952  1.0000
  H   H1884     1.0  0.88043  0.05162  0.88555  1.0000
  C   C1081     1.0  0.74349  0.21598  0.67513  1.0000
  H   H1885     1.0  0.97147  0.05022  0.47724  1.0000
  H   H1886     1.0  0.96615  0.03073  0.89277  1.0000
  C   C1082     1.0  0.89111  0.02383  0.86175  1.0000
  H   H1887     1.0  0.90109  0.03903  0.52100  1.0000
  H   H1888     1.0  0.63028  0.06678  0.93035  1.0000
  C   C1083     1.0  0.81087  0.21844  0.68474  1.0000
  H   H1889     1.0  0.83576  0.18332  0.60754  1.0000
  H   H1890     1.0  0.75136  0.19877  0.51371  1.0000
  H   H1891     1.0  0.81786  0.14780  0.55598  1.0000
  H   H1892     1.0  0.79258  0.14289  0.72166  1.0000
  H   H1893     1.0  0.83253  0.19958  0.64718  1.0000
  H   H1894     1.0  0.72394  0.04708  0.93588  1.0000
  C   C1084     1.0  0.79025  0.17120  0.52054  1.0000
  C   C1085     1.0  0.47777  0.15830  0.54794  1.0000
  H   H1895     1.0  0.82092  0.21306  0.60680  1.0000
  H   H1896     1.0  0.84997  0.05622  0.85735  1.0000
  H   H1897     1.0  0.91108  0.97545  0.93773  1.0000
  H   H1898     1.0  0.80372  0.18752  0.60709  1.0000
  H   H1899     1.0  0.47807  0.09932  0.61862  1.0000
  H   H1900     1.0  0.81723  0.17296  0.64755  1.0000
  H   H1901     1.0  0.80034  0.18497  0.72477  1.0000
  H   H1902     1.0  0.67907  0.02885  0.89581  1.0000
  H   H1903     1.0  0.69007  0.08151  0.87066  1.0000
  C   C1086     1.0  0.70437  0.18997  0.50797  1.0000
  H   H1904     1.0  0.67920  0.99748  0.64285  1.0000
  H   H1905     1.0  0.83710  0.08118  0.66797  1.0000
  H   H1906     1.0  0.79902  0.15761  0.58133  1.0000
  H   H1907     1.0  0.94612  0.05720  0.69855  1.0000
  C   C1087     1.0  0.58388  0.04375  0.49319  1.0000
  H   H1908     1.0  0.79378  0.19046  0.51810  1.0000
  H   H1909     1.0  0.76866  0.19384  0.72400  1.0000
  N   N60       1.0  0.86040  0.02135  0.89898  1.0000
  H   H1910     1.0  0.88255  0.98192  0.73159  1.0000
  H   H1911     1.0  0.97393  0.17399  0.77889  1.0000
  H   H1912     1.0  0.82696  0.98516  0.53581  1.0000
  H   H1913     1.0  0.93276  0.11079  0.48432  1.0000
  C   C1088     1.0  0.74288  0.01002  0.65334  1.0000
  C   C1089     1.0  0.73917  0.97682  0.73198  1.0000
  C   C1090     1.0  0.93217  0.98375  0.90444  1.0000
  C   C1091     1.0  0.79037  0.12194  0.50869  1.0000
  C   C1092     1.0  0.86436  0.99450  0.89870  1.0000
  C   C1093     1.0  0.73860  0.03311  0.66585  1.0000
  H   H1914     1.0  0.89235  0.98157  0.68329  1.0000
  C   C1094     1.0  0.78026  0.99203  0.78450  1.0000
  H   H1915     1.0  0.70795  0.00082  0.66878  1.0000
  H   H1916     1.0  0.63038  0.06097  0.86465  1.0000
  H   H1917     1.0  0.86622  0.98935  0.87998  1.0000
  H   H1918     1.0  0.87919  0.18634  0.73538  1.0000
  H   H1919     1.0  0.83946  0.09503  0.69511  1.0000
  H   H1920     1.0  0.61076  0.05237  0.90441  1.0000
  H   H1921     1.0  0.78557  0.98744  0.76588  1.0000
  H   H1922     1.0  0.70065  0.01613  0.62762  1.0000
  C   C1095     1.0  0.92304  0.98754  0.92808  1.0000
  H   H1923     1.0  0.76167  0.00288  0.65549  1.0000
  H   H1924     1.0  0.74090  0.01437  0.63394  1.0000
  H   H1925     1.0  0.86802  0.99352  0.66657  1.0000
  C   C1096     1.0  0.85412  0.05650  0.95641  1.0000
  H   H1926     1.0  0.52061  0.18884  0.51519  1.0000
  H   H1927     1.0  0.63139  0.02637  0.91039  1.0000
  S   S230      1.0  0.66463  0.98396  0.51161  1.0000
  Fe  Fe119     1.0  0.49019  0.10311  0.48102  1.0000
  H   H1928     1.0  0.61773  0.00805  0.87604  1.0000
  S   S231      1.0  0.91566  0.01424  0.96755  1.0000
  H   H1929     1.0  0.66291  0.04134  0.92037  1.0000
  H   H1930     1.0  0.88936  0.98366  0.62814  1.0000
  H   H1931     1.0  0.75187  0.04571  0.65820  1.0000
  H   H1932     1.0  0.72043  0.04181  0.66333  1.0000
  H   H1933     1.0  0.74068  0.02943  0.68533  1.0000
  C   C1097     1.0  0.88417  0.99838  0.67436  1.0000
  S   S232      1.0  0.80587  0.99115  0.96827  1.0000
  C   C1098     1.0  0.85299  0.05773  0.69636  1.0000
  C   C1099     1.0  0.81940  0.19419  0.61396  1.0000
  S   S233      1.0  0.74911  0.17136  0.60738  1.0000
  C   C1100     1.0  0.71200  0.97781  0.62687  1.0000
  S   S234      1.0  0.95577  0.99603  0.86067  1.0000
  H   H1934     1.0  0.66487  0.01637  0.60538  1.0000
  H   H1935     1.0  0.84462  0.98890  0.75761  1.0000
  C   C1101     1.0  0.91604  0.00588  0.50635  1.0000
  S   S235      1.0  0.72549  0.22183  0.55799  1.0000
  C   C1102     1.0  0.86534  0.03892  0.67969  1.0000
  C   C1103     1.0  0.72567  0.99128  0.66449  1.0000
  H   H1936     1.0  0.71182  0.02139  0.92668  1.0000
  H   H1937     1.0  0.64712  0.21044  0.52335  1.0000
  C   C1104     1.0  0.78361  0.18134  0.71742  1.0000
  H   H1938     1.0  0.71559  0.98931  0.48712  1.0000
  H   H1939     1.0  0.88144  0.98779  0.90633  1.0000
  H   H1940     1.0  0.54298  0.17143  0.49740  1.0000
  C   C1105     1.0  0.88260  0.03184  0.88701  1.0000
  H   H1941     1.0  0.69434  0.04003  0.94758  1.0000
  C   C1106     1.0  0.74871  0.17972  0.51206  1.0000
  H   H1942     1.0  0.84187  0.22203  0.71941  1.0000
  H   H1943     1.0  0.66721  0.97728  0.79681  1.0000
  H   H1944     1.0  0.59377  0.01511  0.89845  1.0000
  H   H1945     1.0  0.68713  0.05434  0.85819  1.0000
  H   H1946     1.0  0.60207  0.20855  0.52297  1.0000
  N   N61       1.0  0.65974  0.06281  0.88646  1.0000
  C   C1107     1.0  0.84453  0.97995  0.91235  1.0000
  H   H1947     1.0  0.71106  0.05488  0.89509  1.0000
  H   H1948     1.0  0.80358  0.17121  0.68549  1.0000
  H   H1949     1.0  0.94178  0.14775  0.70421  1.0000
  C   C1108     1.0  0.85443  0.05357  0.92968  1.0000
  H   H1950     1.0  0.57410  0.18328  0.52263  1.0000
  C   C1109     1.0  0.89810  0.02128  0.70527  1.0000
  H   H1951     1.0  0.92117  0.17061  0.71673  1.0000
  H   H1952     1.0  0.88955  0.03342  0.49324  1.0000
  H   H1953     1.0  0.79857  0.06360  0.88059  1.0000
  H   H1954     1.0  0.86581  0.08916  0.67523  1.0000
  H   H1955     1.0  0.83924  0.04737  0.96653  1.0000
  H   H1956     1.0  0.83532  0.05212  0.70409  1.0000
  C   C1110     1.0  0.85813  0.00634  0.71026  1.0000
  H   H1957     1.0  0.82557  0.20417  0.68793  1.0000
  H   H1958     1.0  0.56266  0.98667  0.92537  1.0000
  C   C1111     1.0  0.76843  0.14011  0.50429  1.0000
  H   H1959     1.0  0.89783  0.02712  0.89832  1.0000
  H   H1960     1.0  0.59680  0.03395  0.87079  1.0000
  H   H1961     1.0  0.79432  0.98440  0.79624  1.0000
  H   H1962     1.0  0.77855  0.19576  0.64484  1.0000
  H   H1963     1.0  0.87828  0.04791  0.66665  1.0000
  H   H1964     1.0  0.85248  0.01884  0.72430  1.0000
  C   C1112     1.0  0.55724  0.19475  0.52045  1.0000
  H   H1965     1.0  0.63501  0.12080  0.92824  1.0000
  H   H1966     1.0  0.95920  0.99154  0.73022  1.0000
  S   S236      1.0  0.60262  0.00962  0.96580  1.0000
  H   H1967     1.0  0.48565  0.17026  0.55902  1.0000
  C   C1113     1.0  0.57561  0.06581  0.48180  1.0000
  H   H1968     1.0  0.53742  0.16344  0.52909  1.0000
  H   H1969     1.0  0.69722  0.08047  0.81878  1.0000
  H   H1970     1.0  0.72514  0.98194  0.53315  1.0000
  C   C1114     1.0  0.94037  0.16441  0.71346  1.0000
  C   C1115     1.0  0.89551  0.02506  0.51061  1.0000
  H   H1971     1.0  0.75426  0.13498  0.51854  1.0000
  C   C1116     1.0  0.81225  0.06298  0.86506  1.0000
  H   H1972     1.0  0.94833  0.02512  0.70085  1.0000
  H   H1973     1.0  0.90073  0.00572  0.86351  1.0000
  H   H1974     1.0  0.83547  0.01795  0.87258  1.0000
  C   C1117     1.0  0.90274  0.00530  0.65341  1.0000
  H   H1975     1.0  0.81366  0.17933  0.56075  1.0000
  H   H1976     1.0  0.87589  0.02297  0.85086  1.0000
  H   H1977     1.0  0.68982  0.18911  0.49622  1.0000
  H   H1978     1.0  0.84134  0.06907  0.88497  1.0000
  H   H1979     1.0  0.60834  0.10692  0.92354  1.0000
  C   C1118     1.0  0.76705  0.22418  0.68227  1.0000
  N   N62       1.0  0.78935  0.20774  0.67744  1.0000
  H   H1980     1.0  0.89228  0.02553  0.72399  1.0000
  H   H1981     1.0  0.77881  0.01176  0.78464  1.0000
  H   H1982     1.0  0.76318  0.00140  0.94424  1.0000
  Fe  Fe120     1.0  0.63086  0.98248  0.95070  1.0000
  C   C1119     1.0  0.75376  0.99154  0.48253  1.0000
  S   S237      1.0  0.96521  0.22415  0.70937  1.0000
  H   H1983     1.0  0.86918  0.06352  0.92052  1.0000
  H   H1984     1.0  0.84142  0.01915  0.93443  1.0000
  C   C1120     1.0  0.56100  0.21472  0.49985  1.0000
  H   H1985     1.0  0.79732  0.22415  0.72246  1.0000
  H   H1986     1.0  0.91555  0.03346  0.83095  1.0000
  C   C1121     1.0  0.75620  0.98277  0.79364  1.0000
  H   H1987     1.0  0.72537  0.16067  0.49243  1.0000
  C   C1122     1.0  0.67889  0.00121  0.60465  1.0000
  C   C1123     1.0  0.93121  0.13057  0.48421  1.0000
  H   H1988     1.0  0.84471  0.98068  0.93191  1.0000
  C   C1124     1.0  0.77964  0.17669  0.47892  1.0000
  H   H1989     1.0  0.80103  0.08401  0.50792  1.0000
  N   N63       1.0  0.87695  0.01659  0.69230  1.0000
  S   S238      1.0  0.47819  0.14088  0.48953  1.0000
  H   H1990     1.0  0.72548  0.98287  0.61192  1.0000
  H   H1991     1.0  0.47865  0.08907  0.57630  1.0000
  C   C1125     1.0  0.73878  0.97564  0.95931  1.0000
  C   C1126     1.0  0.72786  0.17922  0.49604  1.0000
  H   H1992     1.0  0.94372  0.02927  0.50407  1.0000
  H   H1993     1.0  0.76148  0.13654  0.48721  1.0000
  H   H1994     1.0  0.90923  0.99218  0.49670  1.0000
  N   N64       1.0  0.95822  0.99914  0.48405  1.0000
  S   S239      1.0  0.97261  0.97840  0.61193  1.0000
  H   H1995     1.0  0.56807  0.20541  0.48377  1.0000
  H   H1996     1.0  0.76963  0.09089  0.51588  1.0000
  S   S240      1.0  0.85578  0.21960  0.76893  1.0000
  H   H1997     1.0  0.49259  0.14863  0.53737  1.0000
  H   H1998     1.0  0.87128  0.04893  0.96333  1.0000
  H   H1999     1.0  0.81843  0.16554  0.47810  1.0000
  H   H2000     1.0  0.80653  0.12655  0.49719  1.0000
  H   H2001     1.0  0.48987  0.06894  0.61522  1.0000
  H   H2002     1.0  0.72475  0.98262  0.94814  1.0000
  S   S241      1.0  0.96682  0.97645  0.68235  1.0000
  H   H2003     1.0  0.54321  0.22323  0.49540  1.0000
  H   H2004     1.0  0.72177  0.97832  0.74179  1.0000
  H   H2005     1.0  0.82656  0.98689  0.90707  1.0000
  H   H2006     1.0  0.55578  0.98073  0.96907  1.0000
  H   H2007     1.0  0.65093  0.21743  0.49112  1.0000
  C   C1127     1.0  0.90640  0.98624  0.63550  1.0000
  H   H2008     1.0  0.96197  0.13584  0.77831  1.0000
  H   H2009     1.0  0.78073  0.19627  0.47891  1.0000
  H   H2010     1.0  0.93169  0.02825  0.47643  1.0000
  H   H2011     1.0  0.92033  0.00648  0.66029  1.0000
  C   C1128     1.0  0.60199  0.22144  0.50673  1.0000
  H   H2012     1.0  0.89710  0.02242  0.64338  1.0000
  C   C1129     1.0  0.49481  0.20930  0.47642  1.0000
  H   H2013     1.0  0.94924  0.13667  0.48506  1.0000
  H   H2014     1.0  0.79132  0.22366  0.64088  1.0000
  H   H2015     1.0  0.68251  0.97557  0.68331  1.0000
  C   C1130     1.0  0.84626  0.97559  0.74410  1.0000
  H   H2016     1.0  0.82862  0.97518  0.73694  1.0000
  S   S242      1.0  0.52507  0.37019  0.41223  1.0000
  H   H2017     1.0  0.71809  0.24047  0.38338  1.0000
  S   S243      1.0  0.78659  0.26801  0.37024  1.0000
  H   H2018     1.0  0.92916  0.37186  0.37907  1.0000
  H   H2019     1.0  0.55282  0.43797  0.26750  1.0000
  S   S244      1.0  0.81434  0.23810  0.32684  1.0000
  C   C1131     1.0  0.71876  0.22684  0.21969  1.0000
  Fe  Fe121     1.0  0.82254  0.24747  0.36351  1.0000
  S   S245      1.0  0.85982  0.25585  0.37250  1.0000
  Fe  Fe122     1.0  0.77708  0.25540  0.33557  1.0000
  S   S246      1.0  0.75502  0.27793  0.30801  1.0000
  C   C1132     1.0  0.50625  0.24361  0.20500  1.0000
  H   H2020     1.0  0.86775  0.35305  0.33144  1.0000
  C   C1133     1.0  0.56836  0.27403  0.13360  1.0000
  S   S247      1.0  0.95237  0.37061  0.45177  1.0000
  Fe  Fe123     1.0  0.94240  0.33437  0.44366  1.0000
  S   S248      1.0  0.90707  0.33202  0.42674  1.0000
  H   H2021     1.0  0.61015  0.25177  0.10834  1.0000
  Fe  Fe124     1.0  0.53113  0.35225  0.44960  1.0000
  S   S249      1.0  0.48848  0.42271  0.08978  1.0000
  H   H2022     1.0  0.57154  0.26916  0.11486  1.0000
  S   S250      1.0  0.50614  0.43697  0.14052  1.0000
  Fe  Fe125     1.0  0.49179  0.40523  0.12745  1.0000
  S   S251      1.0  0.50403  0.36595  0.13744  1.0000
  H   H2023     1.0  0.97505  0.26431  0.44129  1.0000
  Fe  Fe126     1.0  0.60121  0.28680  0.21618  1.0000
  S   S252      1.0  0.59027  0.27454  0.25467  1.0000
  S   S253      1.0  0.59018  0.32459  0.19983  1.0000
  Fe  Fe127     1.0  0.63221  0.23990  0.20864  1.0000
  H   H2024     1.0  0.59778  0.25920  0.42263  1.0000
  Fe  Fe128     1.0  0.58512  0.23996  0.23990  1.0000
  H   H2025     1.0  0.51575  0.44193  0.43991  1.0000
  Fe  Fe129     1.0  0.62878  0.26004  0.25721  1.0000
  S   S254      1.0  0.64909  0.25697  0.29077  1.0000
  S   S255      1.0  0.59434  0.25273  0.20133  1.0000
  S   S256      1.0  0.64027  0.27518  0.22006  1.0000
  H   H2026     1.0  0.55142  0.46336  0.31920  1.0000
  C   C1134     1.0  0.70647  0.25175  0.22510  1.0000
  C   C1135     1.0  0.48053  0.40908  0.45709  1.0000
  H   H2027     1.0  0.72158  0.27048  0.19226  1.0000
  H   H2028     1.0  0.93258  0.33887  0.30949  1.0000
  H   H2029     1.0  0.66448  0.32340  0.15121  1.0000
  C   C1136     1.0  0.62504  0.26801  0.35861  1.0000
  H   H2030     1.0  0.82441  0.31440  0.43640  1.0000
  H   H2031     1.0  0.57475  0.23749  0.14970  1.0000
  H   H2032     1.0  0.57429  0.32747  0.13335  1.0000
  C   C1137     1.0  0.59403  0.34282  0.10192  1.0000
  C   C1138     1.0  0.52742  0.35501  0.15574  1.0000
  C   C1139     1.0  0.53001  0.33051  0.16345  1.0000
  C   C1140     1.0  0.54858  0.32097  0.17762  1.0000
  C   C1141     1.0  0.56524  0.33576  0.18368  1.0000
  C   C1142     1.0  0.56264  0.36024  0.17590  1.0000
  C   C1143     1.0  0.54377  0.36987  0.16221  1.0000
  H   H2033     1.0  0.51755  0.31884  0.15845  1.0000
  H   H2034     1.0  0.55008  0.30217  0.18370  1.0000
  H   H2035     1.0  0.57543  0.37185  0.18039  1.0000
  H   H2036     1.0  0.54212  0.38871  0.15631  1.0000
  C   C1144     1.0  0.87133  0.27594  0.39034  1.0000
  C   C1145     1.0  0.89474  0.27091  0.39731  1.0000
  C   C1146     1.0  0.90553  0.28725  0.40949  1.0000
  C   C1147     1.0  0.89340  0.30932  0.41416  1.0000
  C   C1148     1.0  0.86984  0.31413  0.40768  1.0000
  C   C1149     1.0  0.85875  0.29749  0.39613  1.0000
  H   H2037     1.0  0.90475  0.25438  0.39294  1.0000
  H   H2038     1.0  0.92349  0.28301  0.41466  1.0000
  H   H2039     1.0  0.86021  0.33111  0.41118  1.0000
  H   H2040     1.0  0.84084  0.30180  0.39076  1.0000
  C   C1150     1.0  0.67949  0.26159  0.29276  1.0000
  C   C1151     1.0  0.69229  0.24684  0.30950  1.0000
  C   C1152     1.0  0.71566  0.25117  0.31352  1.0000
  C   C1153     1.0  0.72634  0.27081  0.30154  1.0000
  C   C1154     1.0  0.71374  0.28530  0.28435  1.0000
  C   C1155     1.0  0.69050  0.28061  0.27981  1.0000
  C   C1156     1.0  0.86917  0.33725  0.34475  1.0000
  H   H2041     1.0  0.72534  0.23941  0.32610  1.0000
  H   H2042     1.0  0.72184  0.30046  0.27479  1.0000
  H   H2043     1.0  0.68079  0.29226  0.26699  1.0000
  C   C1157     1.0  0.53008  0.40038  0.40279  1.0000
  C   C1158     1.0  0.51706  0.41255  0.38459  1.0000
  C   C1159     1.0  0.52140  0.43607  0.37565  1.0000
  C   C1160     1.0  0.53872  0.44781  0.38493  1.0000
  C   C1161     1.0  0.55176  0.43565  0.40314  1.0000
  C   C1162     1.0  0.54743  0.41208  0.41210  1.0000
  H   H2044     1.0  0.50352  0.40370  0.37738  1.0000
  H   H2045     1.0  0.51144  0.44508  0.36150  1.0000
  H   H2046     1.0  0.56531  0.44449  0.41038  1.0000
  H   H2047     1.0  0.55780  0.40283  0.42590  1.0000
  H   H2048     1.0  0.68403  0.23201  0.31951  1.0000
  H   H2049     1.0  0.55389  0.46133  0.46219  1.0000
  H   H2050     1.0  0.55329  0.28818  0.13447  1.0000
  H   H2051     1.0  0.58377  0.44585  0.16417  1.0000
  H   H2052     1.0  0.54153  0.25106  0.21225  1.0000
  H   H2053     1.0  0.53694  0.39801  0.25757  1.0000
  H   H2054     1.0  0.63174  0.27396  0.33998  1.0000
  N   N65       1.0  0.93871  0.33291  0.34721  1.0000
  C   C1163     1.0  0.95299  0.35292  0.35226  1.0000
  H   H2055     1.0  0.60542  0.44952  0.31903  1.0000
  C   C1164     1.0  0.94300  0.31097  0.36427  1.0000
  H   H2056     1.0  0.48610  0.39594  0.47187  1.0000
  H   H2057     1.0  0.65244  0.23959  0.36306  1.0000
  H   H2058     1.0  0.59673  0.28032  0.44490  1.0000
  H   H2059     1.0  0.85648  0.32449  0.34092  1.0000
  H   H2060     1.0  0.64035  0.28726  0.45940  1.0000
  H   H2061     1.0  0.86394  0.34302  0.36297  1.0000
  H   H2062     1.0  0.50217  0.40253  0.29202  1.0000
  H   H2063     1.0  0.53039  0.46266  0.21791  1.0000
  H   H2064     1.0  0.93735  0.31506  0.38295  1.0000
  H   H2065     1.0  0.93164  0.29686  0.36075  1.0000
  C   C1165     1.0  0.51713  0.25031  0.45799  1.0000
  H   H2066     1.0  0.76092  0.23059  0.29433  1.0000
  H   H2067     1.0  0.61128  0.25539  0.35769  1.0000
  H   H2068     1.0  0.68839  0.25030  0.23442  1.0000
  C   C1166     1.0  0.50454  0.42185  0.28862  1.0000
  C   C1167     1.0  0.78132  0.24103  0.44899  1.0000
  H   H2069     1.0  0.90928  0.35950  0.34084  1.0000
  C   C1168     1.0  0.49626  0.46216  0.20390  1.0000
  C   C1169     1.0  0.58826  0.45854  0.32620  1.0000
  H   H2070     1.0  0.50122  0.32202  0.24322  1.0000
  H   H2071     1.0  0.97280  0.34933  0.30632  1.0000
  H   H2072     1.0  0.60620  0.33738  0.08635  1.0000
  H   H2073     1.0  0.97064  0.45281  0.97757  1.0000
  H   H2074     1.0  0.60335  0.26741  0.14699  1.0000
  H   H2075     1.0  0.65610  0.26683  0.07938  1.0000
  C   C1170     1.0  0.65610  0.30892  0.16286  1.0000
  H   H2076     1.0  0.64351  0.25621  0.45393  1.0000
  H   H2077     1.0  0.58459  0.41235  0.23157  1.0000
  H   H2078     1.0  0.97266  0.29947  0.28844  1.0000
  H   H2079     1.0  0.85827  0.29304  0.45830  1.0000
  H   H2080     1.0  0.61188  0.32275  0.15159  1.0000
  C   C1171     1.0  0.59101  0.28318  0.14202  1.0000
  C   C1172     1.0  0.97090  0.27816  0.38312  1.0000
  H   H2081     1.0  0.74329  0.31163  0.34684  1.0000
  H   H2082     1.0  0.55530  0.25713  0.16814  1.0000
  H   H2083     1.0  0.89443  0.30833  0.35513  1.0000
  C   C1173     1.0  0.58471  0.32073  0.11722  1.0000
  H   H2084     1.0  0.74416  0.30518  0.37873  1.0000
  H   H2085     1.0  0.66847  0.26985  0.46315  1.0000
  H   H2086     1.0  0.65345  0.28730  0.13434  1.0000
  C   C1174     1.0  0.50779  0.45445  0.45309  1.0000
  H   H2087     1.0  0.63370  0.28081  0.16103  1.0000
  H   H2088     1.0  0.54442  0.24598  0.14273  1.0000
  H   H2089     1.0  0.51270  0.33460  0.21412  1.0000
  C   C1175     1.0  0.96874  0.29886  0.36360  1.0000
  H   H2090     1.0  0.55251  0.42961  0.46049  1.0000
  Fe  Fe130     1.0  0.49950  0.45569  0.10405  1.0000
  H   H2091     1.0  0.72756  0.23425  0.26622  1.0000
  H   H2092     1.0  0.89882  0.32027  0.32452  1.0000
  H   H2093     1.0  0.63610  0.25949  0.12054  1.0000
  H   H2094     1.0  0.60368  0.35339  0.11293  1.0000
  H   H2095     1.0  0.56085  0.36554  0.10768  1.0000
  H   H2096     1.0  0.55326  0.34606  0.33637  1.0000
  C   C1176     1.0  0.78868  0.24475  0.47139  1.0000
  H   H2097     1.0  0.73639  0.23014  0.21000  1.0000
  H   H2098     1.0  0.52549  0.26618  0.45062  1.0000
  C   C1177     1.0  0.55590  0.40135  0.25789  1.0000
  H   H2099     1.0  0.79447  0.31099  0.44948  1.0000
  H   H2100     1.0  0.57185  0.45778  0.29348  1.0000
  S   S257      1.0  0.74813  0.23046  0.41972  1.0000
  H   H2101     1.0  0.53494  0.22814  0.43135  1.0000
  H   H2102     1.0  0.69517  0.28563  0.20637  1.0000
  H   H2103     1.0  0.52773  0.35099  0.35759  1.0000
  H   H2104     1.0  0.95012  0.36836  0.33863  1.0000
  H   H2105     1.0  0.52337  0.34894  0.32654  1.0000
  C   C1178     1.0  0.75744  0.23769  0.44685  1.0000
  H   H2106     1.0  0.60740  0.23746  0.46016  1.0000
  H   H2107     1.0  0.61656  0.28372  0.36765  1.0000
  N   N66       1.0  0.48087  0.45537  0.45486  1.0000
  H   H2108     1.0  0.86840  0.32650  0.46915  1.0000
  H   H2109     1.0  0.55915  0.44241  0.14704  1.0000
  N   N67       1.0  0.68525  0.26339  0.38863  1.0000
  C   C1179     1.0  0.67594  0.25872  0.41456  1.0000
  C   C1180     1.0  0.69904  0.24117  0.37970  1.0000
  C   C1181     1.0  0.70225  0.28272  0.38748  1.0000
  C   C1182     1.0  0.66555  0.27225  0.37280  1.0000
  C   C1183     1.0  0.64543  0.25557  0.37243  1.0000
  C   C1184     1.0  0.66091  0.27981  0.42604  1.0000
  C   C1185     1.0  0.71706  0.28788  0.36312  1.0000
  H   H2110     1.0  0.93001  0.25270  0.45216  1.0000
  H   H2111     1.0  0.64659  0.23711  0.08513  1.0000
  S   S258      1.0  0.54781  0.31476  0.45814  1.0000
  C   C1186     1.0  0.52235  0.22881  0.44706  1.0000
  C   C1187     1.0  0.56032  0.25230  0.14956  1.0000
  H   H2112     1.0  0.69121  0.25299  0.42565  1.0000
  H   H2113     1.0  0.51394  0.47203  0.44565  1.0000
  H   H2114     1.0  0.69929  0.24183  0.35996  1.0000
  H   H2115     1.0  0.55371  0.44879  0.17813  1.0000
  H   H2116     1.0  0.58519  0.45300  0.34565  1.0000
  H   H2117     1.0  0.69243  0.30001  0.39172  1.0000
  H   H2118     1.0  0.65743  0.29013  0.37747  1.0000
  H   H2119     1.0  0.67289  0.27518  0.35380  1.0000
  H   H2120     1.0  0.63777  0.24990  0.39071  1.0000
  H   H2121     1.0  0.50562  0.25641  0.18946  1.0000
  H   H2122     1.0  0.67123  0.29559  0.42575  1.0000
  H   H2123     1.0  0.64460  0.28507  0.41657  1.0000
  H   H2124     1.0  0.70551  0.29262  0.34823  1.0000
  H   H2125     1.0  0.48447  0.29027  0.22494  1.0000
  C   C1188     1.0  0.56533  0.40949  0.23235  1.0000
  H   H2126     1.0  0.71723  0.26078  0.23643  1.0000
  H   H2127     1.0  0.62982  0.30085  0.09409  1.0000
  H   H2128     1.0  0.58037  0.37545  0.08221  1.0000
  H   H2129     1.0  0.72225  0.23670  0.46528  1.0000
  H   H2130     1.0  0.52419  0.30528  0.22580  1.0000
  C   C1189     1.0  0.48891  0.30638  0.21315  1.0000
  H   H2131     1.0  0.56605  0.38408  0.26308  1.0000
  C   C1190     1.0  0.52666  0.24050  0.21777  1.0000
  H   H2132     1.0  0.72945  0.27219  0.35863  1.0000
  H   H2133     1.0  0.88641  0.25790  0.45643  1.0000
  H   H2134     1.0  0.62963  0.25926  0.06689  1.0000
  H   H2135     1.0  0.96356  0.39635  0.36668  1.0000
  N   N68       1.0  0.54786  0.41588  0.30115  1.0000
  C   C1191     1.0  0.54690  0.38947  0.30839  1.0000
  C   C1192     1.0  0.55921  0.41999  0.27569  1.0000
  C   C1193     1.0  0.56352  0.42547  0.31770  1.0000
  C   C1194     1.0  0.52354  0.42935  0.30380  1.0000
  C   C1195     1.0  0.81307  0.30253  0.44843  1.0000
  C   C1196     1.0  0.53621  0.38245  0.33428  1.0000
  C   C1197     1.0  0.58805  0.26506  0.43944  1.0000
  H   H2136     1.0  0.60225  0.29124  0.08827  1.0000
  C   C1198     1.0  0.53511  0.35543  0.33883  1.0000
  C   C1199     1.0  0.65288  0.27275  0.45223  1.0000
  H   H2137     1.0  0.56525  0.38027  0.30634  1.0000
  H   H2138     1.0  0.53633  0.38108  0.29638  1.0000
  H   H2139     1.0  0.57894  0.42034  0.27557  1.0000
  H   H2140     1.0  0.58124  0.41487  0.31731  1.0000
  H   H2141     1.0  0.55575  0.42354  0.33660  1.0000
  H   H2142     1.0  0.51633  0.42856  0.32290  1.0000
  H   H2143     1.0  0.52490  0.44867  0.29854  1.0000
  H   H2144     1.0  0.56316  0.39556  0.22023  1.0000
  H   H2145     1.0  0.54730  0.38769  0.34782  1.0000
  H   H2146     1.0  0.51776  0.39080  0.33742  1.0000
  H   H2147     1.0  0.57880  0.23010  0.45291  1.0000
  C   C1200     1.0  0.94423  0.32706  0.32144  1.0000
  H   H2148     1.0  0.89880  0.28486  0.46133  1.0000
  C   C1201     1.0  0.56769  0.45237  0.31277  1.0000
  H   H2149     1.0  0.64487  0.31678  0.17794  1.0000
  C   C1202     1.0  0.54713  0.44477  0.47160  1.0000
  C   C1203     1.0  0.50787  0.31786  0.22474  1.0000
  C   C1204     1.0  0.64024  0.25635  0.08272  1.0000
  H   H2150     1.0  0.96642  0.28464  0.40113  1.0000
  C   C1205     1.0  0.89609  0.26653  0.46911  1.0000
  H   H2151     1.0  0.66447  0.24366  0.41708  1.0000
  H   H2152     1.0  0.81323  0.28514  0.44065  1.0000
  C   C1206     1.0  0.57335  0.35947  0.09255  1.0000
  C   C1207     1.0  0.70383  0.26791  0.20199  1.0000
  C   C1208     1.0  0.89456  0.32509  0.34317  1.0000
  C   C1209     1.0  0.91255  0.34160  0.35077  1.0000
  H   H2153     1.0  0.90718  0.34402  0.37002  1.0000
  H   H2154     1.0  0.63101  0.32517  0.12465  1.0000
  H   H2155     1.0  0.57156  0.31379  0.10670  1.0000
  H   H2156     1.0  0.71532  0.27818  0.40127  1.0000
  C   C1210     1.0  0.62133  0.31222  0.13720  1.0000
  H   H2157     1.0  0.93991  0.30849  0.31954  1.0000
  H   H2158     1.0  0.50971  0.42626  0.26930  1.0000
  C   C1211     1.0  0.58850  0.24431  0.45896  1.0000
  H   H2159     1.0  0.69254  0.26002  0.19021  1.0000
  C   C1212     1.0  0.56504  0.45243  0.16117  1.0000
  H   H2160     1.0  0.67048  0.29653  0.17039  1.0000
  H   H2161     1.0  0.97242  0.34755  0.35038  1.0000
  C   C1213     1.0  0.51148  0.46782  0.22048  1.0000
  H   H2162     1.0  0.56338  0.35029  0.08057  1.0000
  H   H2163     1.0  0.95873  0.26438  0.38066  1.0000
  H   H2164     1.0  0.58564  0.29108  0.15928  1.0000
  H   H2165     1.0  0.96800  0.43573  0.46899  1.0000
  C   C1214     1.0  0.62502  0.26352  0.10525  1.0000
  H   H2166     1.0  0.97363  0.29118  0.34621  1.0000
  H   H2167     1.0  0.50341  0.45233  0.18893  1.0000
  C   C1215     1.0  0.64111  0.29521  0.14855  1.0000
  H   H2168     1.0  0.56936  0.27105  0.43572  1.0000
  H   H2169     1.0  0.48104  0.44149  0.42021  1.0000
  N   N69       1.0  0.60335  0.30102  0.12455  1.0000
  C   C1216     1.0  0.61505  0.29018  0.10232  1.0000
  H   H2170     1.0  0.55522  0.42629  0.22585  1.0000
  C   C1217     1.0  0.48676  0.23013  0.21215  1.0000
  Fe  Fe131     1.0  0.77470  0.23289  0.38697  1.0000
  H   H2171     1.0  0.49658  0.41029  0.44435  1.0000
  C   C1218     1.0  0.97424  0.31904  0.28582  1.0000
  C   C1219     1.0  0.97001  0.33003  0.30982  1.0000
  C   C1220     1.0  0.73214  0.30884  0.36406  1.0000
  C   C1221     1.0  0.92070  0.25288  0.47043  1.0000
  H   H2172     1.0  0.84449  0.26656  0.46770  1.0000
  H   H2173     1.0  0.79421  0.24011  0.43352  1.0000
  H   H2174     1.0  0.72050  0.32550  0.36686  1.0000
  H   H2175     1.0  0.48157  0.45503  0.29045  1.0000
  H   H2176     1.0  0.75274  0.22705  0.24679  1.0000
  H   H2177     1.0  0.49696  0.30028  0.19577  1.0000
  H   H2178     1.0  0.96115  0.32737  0.27329  1.0000
  C   C1222     1.0  0.94747  0.36278  0.37719  1.0000
  C   C1223     1.0  0.48029  0.43550  0.29433  1.0000
  C   C1224     1.0  0.96477  0.38115  0.38069  1.0000
  H   H2179     1.0  0.96033  0.38825  0.39846  1.0000
  C   C1225     1.0  0.74079  0.23908  0.46693  1.0000
  H   H2180     1.0  0.94917  0.34840  0.39187  1.0000
  H   H2181     1.0  0.96723  0.22599  0.42616  1.0000
  S   S259      1.0  0.49762  0.34524  0.47306  1.0000
  C   C1226     1.0  0.84678  0.28459  0.47321  1.0000
  H   H2182     1.0  0.80731  0.24642  0.47316  1.0000
  S   S260      1.0  0.95530  0.36798  0.52437  1.0000
  C   C1227     1.0  0.74809  0.24321  0.48924  1.0000
  H   H2183     1.0  0.95211  0.35990  0.65497  1.0000
  H   H2184     1.0  0.84565  0.31592  0.51017  1.0000
  H   H2185     1.0  0.85498  0.27967  0.54870  1.0000
  H   H2186     1.0  0.47906  0.46460  0.50365  1.0000
  C   C1228     1.0  0.83795  0.28504  0.79014  1.0000
  C   C1229     1.0  0.48993  0.23064  0.48758  1.0000
  Fe  Fe132     1.0  0.90536  0.29003  0.73746  1.0000
  S   S261      1.0  0.92112  0.28224  0.70044  1.0000
  S   S262      1.0  0.90968  0.32631  0.75163  1.0000
  Fe  Fe133     1.0  0.88095  0.24244  0.74435  1.0000
  S   S263      1.0  0.97490  0.45850  0.66315  1.0000
  Fe  Fe134     1.0  0.92988  0.24524  0.71745  1.0000
  H   H2187     1.0  0.82265  0.31694  0.47972  1.0000
  Fe  Fe135     1.0  0.88548  0.26943  0.69471  1.0000
  S   S264      1.0  0.86998  0.27496  0.65819  1.0000
  S   S265      1.0  0.91583  0.25328  0.75470  1.0000
  S   S266      1.0  0.86879  0.28009  0.73041  1.0000
  Fe  Fe136     1.0  0.74910  0.26019  0.60344  1.0000
  S   S267      1.0  0.94833  0.31791  0.48096  1.0000
  S   S268      1.0  0.76141  0.27932  0.63329  1.0000
  Fe  Fe137     1.0  0.70552  0.25261  0.57633  1.0000
  H   H2188     1.0  0.93176  0.26167  0.48174  1.0000
  S   S269      1.0  0.66544  0.26423  0.57467  1.0000
  H   H2189     1.0  0.93344  0.25892  0.84012  1.0000
  Fe  Fe138     1.0  0.75586  0.24537  0.55242  1.0000
  C   C1230     1.0  0.96574  0.42745  0.55602  1.0000
  H   H2190     1.0  0.81653  0.26173  0.56019  1.0000
  S   S270      1.0  0.73539  0.27692  0.56872  1.0000
  H   H2191     1.0  0.95088  0.44399  0.61408  1.0000
  H   H2192     1.0  0.97583  0.30956  0.69747  1.0000
  H   H2193     1.0  0.51582  0.46221  0.48873  1.0000
  S   S271      1.0  0.53211  0.32260  0.51521  1.0000
  H   H2194     1.0  0.86958  0.30539  0.87025  1.0000
  Fe  Fe139     1.0  0.51587  0.35890  0.50183  1.0000
  C   C1231     1.0  0.85159  0.26340  0.54039  1.0000
  H   H2195     1.0  0.91432  0.41427  0.64578  1.0000
  S   S272      1.0  0.60337  0.31735  0.49214  1.0000
  H   H2196     1.0  0.88916  0.37405  0.83907  1.0000
  S   S273      1.0  0.54894  0.36755  0.47794  1.0000
  H   H2197     1.0  0.51454  0.43064  0.48586  1.0000
  C   C1232     1.0  0.77214  0.24560  0.49160  1.0000
  Fe  Fe140     1.0  0.51585  0.30956  0.48439  1.0000
  H   H2198     1.0  0.82975  0.23346  0.55044  1.0000
  C   C1233     1.0  0.95646  0.39834  0.52947  1.0000
  H   H2199     1.0  0.80843  0.28942  0.48525  1.0000
  C   C1234     1.0  0.64857  0.27917  0.55148  1.0000
  C   C1235     1.0  0.62378  0.28449  0.55629  1.0000
  C   C1236     1.0  0.60967  0.29634  0.53855  1.0000
  C   C1237     1.0  0.62021  0.30310  0.51568  1.0000
  C   C1238     1.0  0.64505  0.29806  0.51101  1.0000
  C   C1239     1.0  0.65912  0.28612  0.52869  1.0000
  H   H2200     1.0  0.61540  0.27938  0.57389  1.0000
  H   H2201     1.0  0.59068  0.30029  0.54259  1.0000
  H   H2202     1.0  0.65356  0.30363  0.49362  1.0000
  H   H2203     1.0  0.67816  0.28242  0.52470  1.0000
  H   H2204     1.0  0.76969  0.32776  0.60403  1.0000
  H   H2205     1.0  0.92449  0.37625  0.66152  1.0000
  H   H2206     1.0  0.82440  0.29332  0.80317  1.0000
  H   H2207     1.0  0.89395  0.26997  0.50742  1.0000
  H   H2208     1.0  0.67128  0.26190  0.62944  1.0000
  C   C1240     1.0  0.83958  0.27547  0.65212  1.0000
  C   C1241     1.0  0.83416  0.26728  0.63058  1.0000
  C   C1242     1.0  0.81035  0.26811  0.62468  1.0000
  C   C1243     1.0  0.79168  0.27761  0.64006  1.0000
  C   C1244     1.0  0.79708  0.28608  0.66144  1.0000
  C   C1245     1.0  0.82086  0.28489  0.66753  1.0000
  H   H2209     1.0  0.84851  0.26021  0.61842  1.0000
  H   H2210     1.0  0.80650  0.26169  0.60810  1.0000
  H   H2211     1.0  0.78281  0.29356  0.67342  1.0000
  H   H2212     1.0  0.82477  0.29164  0.68395  1.0000
  C   C1246     1.0  0.96428  0.35782  0.79375  1.0000
  C   C1247     1.0  0.94582  0.37243  0.78355  1.0000
  C   C1248     1.0  0.92954  0.36253  0.77049  1.0000
  C   C1249     1.0  0.93189  0.33806  0.76670  1.0000
  C   C1250     1.0  0.95097  0.32366  0.77602  1.0000
  H   H2213     1.0  0.95826  0.26429  0.78913  1.0000
  H   H2214     1.0  0.94366  0.39126  0.78628  1.0000
  H   H2215     1.0  0.91492  0.37393  0.76336  1.0000
  H   H2216     1.0  0.95321  0.30492  0.77313  1.0000
  C   C1251     1.0  0.76117  0.34151  0.61574  1.0000
  H   H2217     1.0  0.94510  0.28570  0.82549  1.0000
  H   H2218     1.0  0.82510  0.28170  0.51892  1.0000
  C   C1252     1.0  0.93308  0.41848  0.64061  1.0000
  C   C1253     1.0  0.83091  0.23883  0.71466  1.0000
  C   C1254     1.0  0.95512  0.44615  0.54145  1.0000
  C   C1255     1.0  0.94513  0.44078  0.52084  1.0000
  C   C1256     1.0  0.94589  0.41700  0.51480  1.0000
  H   H2219     1.0  0.76379  0.22724  0.70149  1.0000
  H   H2220     1.0  0.97312  0.43126  0.57207  1.0000
  C   C1257     1.0  0.93294  0.43758  0.61879  1.0000
  H   H2221     1.0  0.93670  0.45508  0.50953  1.0000
  H   H2222     1.0  0.93772  0.41306  0.49917  1.0000
  H   H2223     1.0  0.72553  0.25180  0.67015  1.0000
  N   N70       1.0  0.85860  0.28204  0.49642  1.0000
  H   H2224     1.0  0.83047  0.26962  0.78354  1.0000
  C   C1258     1.0  0.90479  0.31396  0.82940  1.0000
  N   N71       1.0  0.69491  0.33053  0.60782  1.0000
  C   C1259     1.0  0.68404  0.30689  0.61251  1.0000
  C   C1260     1.0  0.69602  0.33889  0.58133  1.0000
  C   C1261     1.0  0.50093  0.25123  0.47834  1.0000
  C   C1262     1.0  0.68173  0.34942  0.62253  1.0000
  C   C1263     1.0  0.65450  0.35383  0.62058  1.0000
  C   C1264     1.0  0.68341  0.29524  0.63868  1.0000
  C   C1265     1.0  0.93638  0.26951  0.82263  1.0000
  C   C1266     1.0  0.67603  0.33205  0.56680  1.0000
  C   C1267     1.0  0.67669  0.34544  0.54186  1.0000
  C   C1268     1.0  0.64315  0.37176  0.63794  1.0000
  C   C1269     1.0  0.66655  0.27529  0.64270  1.0000
  C   C1270     1.0  0.97314  0.46383  0.96013  1.0000
  H   H2225     1.0  0.69403  0.29365  0.60103  1.0000
  H   H2226     1.0  0.66556  0.30826  0.60706  1.0000
  H   H2227     1.0  0.69668  0.35863  0.57861  1.0000
  H   H2228     1.0  0.71290  0.33135  0.57182  1.0000
  H   H2229     1.0  0.72805  0.36269  0.62177  1.0000
  H   H2230     1.0  0.71997  0.23686  0.69988  1.0000
  H   H2231     1.0  0.68485  0.34548  0.64179  1.0000
  H   H2232     1.0  0.68904  0.36698  0.61734  1.0000
  H   H2233     1.0  0.64540  0.33721  0.62497  1.0000
  H   H2234     1.0  0.65091  0.36155  0.60229  1.0000
  H   H2235     1.0  0.70153  0.28723  0.64260  1.0000
  H   H2236     1.0  0.67724  0.30833  0.65187  1.0000
  C   C1271     1.0  0.72248  0.23439  0.68043  1.0000
  H   H2237     1.0  0.84880  0.29287  0.85331  1.0000
  H   H2238     1.0  0.67882  0.31271  0.56433  1.0000
  H   H2239     1.0  0.65795  0.33562  0.57577  1.0000
  H   H2240     1.0  0.67359  0.36502  0.54317  1.0000
  H   H2241     1.0  0.69416  0.34130  0.53161  1.0000
  H   H2242     1.0  0.66239  0.33984  0.53189  1.0000
  H   H2243     1.0  0.64558  0.36474  0.65677  1.0000
  H   H2244     1.0  0.65117  0.38910  0.63411  1.0000
  H   H2245     1.0  0.62369  0.37493  0.63592  1.0000
  H   H2246     1.0  0.89819  0.36604  0.58703  1.0000
  H   H2247     1.0  0.53008  0.24104  0.52867  1.0000
  H   H2248     1.0  0.64781  0.28274  0.64099  1.0000
  C   C1272     1.0  0.73532  0.34841  0.61017  1.0000
  H   H2249     1.0  0.95108  0.39677  0.59879  1.0000
  C   C1273     1.0  0.91672  0.37067  0.58805  1.0000
  C   C1274     1.0  0.87706  0.32267  0.48614  1.0000
  C   C1275     1.0  0.85783  0.27188  0.88532  1.0000
  C   C1276     1.0  0.91247  0.27610  0.81098  1.0000
  H   H2250     1.0  0.58544  0.26829  0.48745  1.0000
  C   C1277     1.0  0.86081  0.27641  0.80205  1.0000
  H   H2251     1.0  0.87174  0.33511  0.84256  1.0000
  H   H2252     1.0  0.66780  0.26611  0.66095  1.0000
  H   H2253     1.0  0.73000  0.31163  0.60552  1.0000
  H   H2254     1.0  0.91682  0.28511  0.79278  1.0000
  H   H2255     1.0  0.88234  0.25925  0.84472  1.0000
  H   H2256     1.0  0.87271  0.26634  0.78898  1.0000
  H   H2257     1.0  0.85584  0.26396  0.81777  1.0000
  C   C1278     1.0  0.95221  0.38400  0.68279  1.0000
  S   S274      1.0  0.97397  0.44255  0.80710  1.0000
  H   H2258     1.0  0.91426  0.31092  0.84606  1.0000
  H   H2259     1.0  0.51709  0.27405  0.55376  1.0000
  H   H2260     1.0  0.82776  0.24924  0.73059  1.0000
  H   H2261     1.0  0.86843  0.25160  0.53911  1.0000
  S   S275      1.0  0.49386  0.27765  0.49275  1.0000
  C   C1279     1.0  0.94352  0.36641  0.70342  1.0000
  H   H2262     1.0  0.89735  0.45418  0.62877  1.0000
  Fe  Fe141     1.0  0.96118  0.35317  0.48779  1.0000
  H   H2263     1.0  0.84168  0.29829  0.77465  1.0000
  C   C1280     1.0  0.91902  0.37961  0.61246  1.0000
  S   S276      1.0  0.78230  0.24846  0.51969  1.0000
  H   H2264     1.0  0.72050  0.32086  0.63443  1.0000
  Fe  Fe142     1.0  0.56357  0.32951  0.48857  1.0000
  H   H2265     1.0  0.84263  0.28047  0.89633  1.0000
  C   C1281     1.0  0.80709  0.23332  0.70684  1.0000
  H   H2266     1.0  0.85223  0.25507  0.87964  1.0000
  H   H2267     1.0  0.90558  0.25884  0.80816  1.0000
  C   C1282     1.0  0.56887  0.24509  0.52689  1.0000
  H   H2268     1.0  0.73566  0.35590  0.59120  1.0000
  C   C1283     1.0  0.88820  0.33744  0.83060  1.0000
  H   H2269     1.0  0.57952  0.26042  0.52837  1.0000
  H   H2270     1.0  0.84100  0.24929  0.70010  1.0000
  C   C1284     1.0  0.88625  0.27757  0.84801  1.0000
  S   S277      1.0  0.89607  0.23156  0.70842  1.0000
  H   H2271     1.0  0.53817  0.25278  0.56831  1.0000
  H   H2272     1.0  0.88955  0.35809  0.48256  1.0000
  H   H2273     1.0  0.92370  0.36801  0.70611  1.0000
  C   C1285     1.0  0.86478  0.28884  0.86346  1.0000
  S   S278      1.0  0.71759  0.23849  0.61272  1.0000
  H   H2274     1.0  0.53886  0.26919  0.51455  1.0000
  H   H2275     1.0  0.73519  0.24413  0.50468  1.0000
  H   H2276     1.0  0.88294  0.34383  0.81236  1.0000
  H   H2277     1.0  0.87949  0.30807  0.79227  1.0000
  C   C1286     1.0  0.90097  0.35716  0.83950  1.0000
  H   H2278     1.0  0.95057  0.37034  0.72025  1.0000
  H   H2279     1.0  0.97198  0.38287  0.68218  1.0000
  H   H2280     1.0  0.84080  0.24578  0.57523  1.0000
  N   N72       1.0  0.57719  0.23336  0.50421  1.0000
  H   H2281     1.0  0.70591  0.22807  0.67502  1.0000
  C   C1287     1.0  0.94505  0.38512  0.61481  1.0000
  H   H2282     1.0  0.76948  0.24212  0.67280  1.0000
  H   H2283     1.0  0.83633  0.25344  0.50913  1.0000
  H   H2284     1.0  0.87827  0.24697  0.49849  1.0000
  C   C1288     1.0  0.91585  0.45936  0.62435  1.0000
  N   N73       1.0  0.89371  0.29158  0.82474  1.0000
  H   H2285     1.0  0.87303  0.26753  0.89661  1.0000
  H   H2286     1.0  0.90125  0.27473  0.85970  1.0000
  H   H2287     1.0  0.94517  0.40222  0.68719  1.0000
  H   H2288     1.0  0.91596  0.47260  0.60841  1.0000
  H   H2289     1.0  0.47771  0.23112  0.50354  1.0000
  H   H2290     1.0  0.90629  0.39567  0.61418  1.0000
  H   H2291     1.0  0.93810  0.42751  0.65587  1.0000
  H   H2292     1.0  0.76197  0.33435  0.63477  1.0000
  H   H2293     1.0  0.92910  0.35449  0.58521  1.0000
  N   N74       1.0  0.94924  0.39592  0.63736  1.0000
  H   H2294     1.0  0.81819  0.23095  0.66991  1.0000
  H   H2295     1.0  0.55821  0.25925  0.48039  1.0000
  H   H2296     1.0  0.95617  0.36788  0.61331  1.0000
  H   H2297     1.0  0.96098  0.44575  0.71272  1.0000
  C   C1289     1.0  0.83353  0.25028  0.55754  1.0000
  H   H2298     1.0  0.92076  0.38475  0.57341  1.0000
  H   H2299     1.0  0.88846  0.34403  0.51267  1.0000
  C   C1290     1.0  0.94403  0.37811  0.65857  1.0000
  H   H2300     1.0  0.90556  0.35225  0.85819  1.0000
  H   H2301     1.0  0.91351  0.36550  0.62647  1.0000
  H   H2302     1.0  0.94645  0.23746  0.80379  1.0000
  H   H2303     1.0  0.57227  0.23266  0.54302  1.0000
  H   H2304     1.0  0.92711  0.43051  0.60277  1.0000
  C   C1291     1.0  0.96636  0.40371  0.55007  1.0000
  H   H2305     1.0  0.91886  0.31843  0.81489  1.0000
  C   C1292     1.0  0.57688  0.25232  0.48337  1.0000
  C   C1293     1.0  0.54234  0.25516  0.52924  1.0000
  H   H2306     1.0  0.91758  0.36034  0.82786  1.0000
  C   C1294     1.0  0.53599  0.26641  0.55291  1.0000
  H   H2307     1.0  0.65977  0.23754  0.51103  1.0000
  H   H2308     1.0  0.87298  0.30343  0.52064  1.0000
  C   C1295     1.0  0.88174  0.26609  0.49409  1.0000
  H   H2309     1.0  0.85906  0.30987  0.81783  1.0000
  C   C1296     1.0  0.62149  0.23842  0.50933  1.0000
  C   C1297     1.0  0.72020  0.32655  0.61496  1.0000
  H   H2310     1.0  0.92156  0.46793  0.63959  1.0000
  H   H2311     1.0  0.79672  0.25060  0.70231  1.0000
  C   C1298     1.0  0.87321  0.29777  0.80922  1.0000
  H   H2312     1.0  0.61820  0.24630  0.52677  1.0000
  S   S279      1.0  0.49564  0.38651  0.52482  1.0000
  C   C1299     1.0  0.96661  0.33335  0.78994  1.0000
  C   C1300     1.0  0.86287  0.30595  0.50442  1.0000
  C   C1301     1.0  0.84187  0.27006  0.51546  1.0000
  H   H2313     1.0  0.97389  0.29825  0.72852  1.0000
  H   H2314     1.0  0.77155  0.35744  0.61255  1.0000
  H   H2315     1.0  0.94980  0.34775  0.69987  1.0000
  S   S280      1.0  0.77173  0.23087  0.58643  1.0000
  H   H2316     1.0  0.54750  0.28104  0.55431  1.0000
  C   C1302     1.0  0.87906  0.34664  0.49601  1.0000
  H   H2317     1.0  0.96928  0.25377  0.74793  1.0000
  H   H2318     1.0  0.91908  0.23411  0.47788  1.0000
  H   H2319     1.0  0.97645  0.42138  0.93935  1.0000
  C   C1303     1.0  0.95398  0.25433  0.80674  1.0000
  H   H2320     1.0  0.62192  0.25318  0.49490  1.0000
  H   H2321     1.0  0.86110  0.35603  0.49977  1.0000
  H   H2322     1.0  0.96190  0.45666  0.94776  1.0000
  H   H2323     1.0  0.97443  0.38934  0.56155  1.0000
  C   C1304     1.0  0.97478  0.40213  0.63554  1.0000
  H   H2324     1.0  0.89551  0.31466  0.48247  1.0000
  C   C1305     1.0  0.51998  0.44776  0.47660  1.0000
  H   H2325     1.0  0.97086  0.24974  0.81545  1.0000
  H   H2326     1.0  0.55550  0.44087  0.48879  1.0000
  C   C1306     1.0  0.64631  0.22502  0.50863  1.0000
  C   C1307     1.0  0.82196  0.29901  0.47345  1.0000
  H   H2327     1.0  0.48903  0.65017  0.24093  1.0000
  H   H2328     1.0  0.75344  0.68671  0.04268  1.0000
  C   C1308     1.0  0.54660  0.55061  0.11415  1.0000
  H   H2329     1.0  0.60062  0.66139  0.17783  1.0000
  Fe  Fe143     1.0  0.62068  0.67907  0.24693  1.0000
  S   S281      1.0  0.60053  0.70101  0.21874  1.0000
  S   S282      1.0  0.61750  0.63874  0.25395  1.0000
  Fe  Fe144     1.0  0.51241  0.59721  0.99287  1.0000
  H   H2330     1.0  0.58212  0.69033  0.00913  1.0000
  S   S283      1.0  0.65599  0.69304  0.23258  1.0000
  C   C1309     1.0  0.66128  0.65932  0.29707  1.0000
  Fe  Fe145     1.0  0.51139  0.50541  0.29432  1.0000
  S   S284      1.0  0.54247  0.51681  0.31149  1.0000
  H   H2331     1.0  0.57544  0.48156  0.13650  1.0000
  S   S285      1.0  0.96631  0.64269  0.97778  1.0000
  S   S286      1.0  0.50395  0.53569  0.35394  1.0000
  H   H2332     1.0  0.68661  0.67088  0.14870  1.0000
  Fe  Fe146     1.0  0.51916  0.55059  0.31747  1.0000
  S   S287      1.0  0.52860  0.58958  0.31086  1.0000
  Fe  Fe147     1.0  0.52445  0.50067  0.34598  1.0000
  H   H2333     1.0  0.55717  0.54465  0.07673  1.0000
  H   H2334     1.0  0.58130  0.61711  0.35876  1.0000
  S   S288      1.0  0.49876  0.58158  0.03003  1.0000
  C   C1310     1.0  0.50764  0.52153  0.13928  1.0000
  H   H2335     1.0  0.52628  0.48219  0.16506  1.0000
  H   H2336     1.0  0.50532  0.54867  0.17794  1.0000
  S   S289      1.0  0.75655  0.70109  0.12643  1.0000
  C   C1311     1.0  0.76560  0.71023  0.97715  1.0000
  H   H2337     1.0  0.55232  0.56189  0.12725  1.0000
  H   H2338     1.0  0.74185  0.66341  0.06340  1.0000
  C   C1312     1.0  0.47789  0.48682  0.24355  1.0000
  H   H2339     1.0  0.71945  0.66846  0.11373  1.0000
  H   H2340     1.0  0.78626  0.71444  0.19680  1.0000
  H   H2341     1.0  0.72881  0.72445  0.03415  1.0000
  C   C1313     1.0  0.88745  0.66321  0.00127  1.0000
  C   C1314     1.0  0.86343  0.66627  0.01063  1.0000
  C   C1315     1.0  0.85569  0.68383  0.02661  1.0000
  C   C1316     1.0  0.87196  0.69845  0.03367  1.0000
  C   C1317     1.0  0.89593  0.69556  0.02411  1.0000
  C   C1318     1.0  0.90364  0.67813  0.00797  1.0000
  H   H2342     1.0  0.85072  0.65487  0.00562  1.0000
  H   H2343     1.0  0.83722  0.68578  0.03376  1.0000
  H   H2344     1.0  0.53251  0.54863  0.21029  1.0000
  H   H2345     1.0  0.92212  0.67616  0.00086  1.0000
  H   H2346     1.0  0.61832  0.63928  0.30639  1.0000
  C   C1319     1.0  0.68569  0.65131  0.14834  1.0000
  S   S290      1.0  0.49514  0.48710  0.32834  1.0000
  C   C1320     1.0  0.64391  0.66017  0.31958  1.0000
  C   C1321     1.0  0.71149  0.64038  0.14196  1.0000
  H   H2347     1.0  0.49253  0.51166  0.17633  1.0000
  C   C1322     1.0  0.62827  0.63871  0.32258  1.0000
  C   C1323     1.0  0.59217  0.62526  0.26874  1.0000
  C   C1324     1.0  0.57232  0.63890  0.27851  1.0000
  C   C1325     1.0  0.55294  0.62765  0.29095  1.0000
  C   C1326     1.0  0.55302  0.60260  0.29369  1.0000
  C   C1327     1.0  0.57276  0.58891  0.28365  1.0000
  C   C1328     1.0  0.59226  0.60020  0.27138  1.0000
  H   H2348     1.0  0.57202  0.65816  0.27669  1.0000
  H   H2349     1.0  0.53786  0.63843  0.29873  1.0000
  H   H2350     1.0  0.57318  0.56963  0.28568  1.0000
  H   H2351     1.0  0.60754  0.58941  0.26398  1.0000
  H   H2352     1.0  0.51541  0.71763  0.19947  1.0000
  C   C1329     1.0  0.69654  0.70845  0.17210  1.0000
  C   C1330     1.0  0.72012  0.70268  0.16249  1.0000
  C   C1331     1.0  0.72783  0.71116  0.13900  1.0000
  C   C1332     1.0  0.58124  0.66975  0.32725  1.0000
  H   H2353     1.0  0.65143  0.65951  0.28090  1.0000
  S   S291      1.0  0.79167  0.71662  0.06158  1.0000
  H   H2354     1.0  0.65466  0.66015  0.33507  1.0000
  H   H2355     1.0  0.63519  0.64756  0.36949  1.0000
  H   H2356     1.0  0.64220  0.67480  0.14115  1.0000
  Fe  Fe148     1.0  0.64688  0.72247  0.25702  1.0000
  H   H2357     1.0  0.52802  0.55646  0.11014  1.0000
  H   H2358     1.0  0.55996  0.57442  0.08429  1.0000
  H   H2359     1.0  0.60509  0.60599  0.38955  1.0000
  C   C1333     1.0  0.51762  0.50658  0.06669  1.0000
  C   C1334     1.0  0.53274  0.51592  0.04747  1.0000
  C   C1335     1.0  0.52700  0.53863  0.03565  1.0000
  C   C1336     1.0  0.50632  0.55245  0.04334  1.0000
  C   C1337     1.0  0.49135  0.54321  0.06271  1.0000
  C   C1338     1.0  0.49673  0.52026  0.07405  1.0000
  H   H2360     1.0  0.54903  0.50557  0.04171  1.0000
  H   H2361     1.0  0.53883  0.54568  0.02096  1.0000
  H   H2362     1.0  0.59752  0.63668  0.39539  1.0000
  H   H2363     1.0  0.74826  0.69077  0.07443  1.0000
  C   C1339     1.0  0.56233  0.55521  0.09081  1.0000
  H   H2364     1.0  0.50289  0.54105  0.13686  1.0000
  C   C1340     1.0  0.47965  0.47941  0.41338  1.0000
  H   H2365     1.0  0.56857  0.52045  0.12766  1.0000
  H   H2366     1.0  0.70951  0.68399  0.04157  1.0000
  C   C1341     1.0  0.62625  0.63153  0.36634  1.0000
  S   S292      1.0  0.52619  0.47855  0.08203  1.0000
  H   H2367     1.0  0.53324  0.65122  0.24584  1.0000
  H   H2368     1.0  0.90863  0.70682  0.02933  1.0000
  C   C1342     1.0  0.72046  0.64864  0.11630  1.0000
  H   H2369     1.0  0.55883  0.70119  0.31540  1.0000
  H   H2370     1.0  0.53458  0.51442  0.18378  1.0000
  C   C1343     1.0  0.48851  0.51054  0.15757  1.0000
  H   H2371     1.0  0.56662  0.65817  0.32626  1.0000
  H   H2372     1.0  0.52719  0.67822  0.22668  1.0000
  H   H2373     1.0  0.59218  0.67056  0.30987  1.0000
  H   H2374     1.0  0.97041  0.49733  0.97812  1.0000
  H   H2375     1.0  0.50577  0.66620  0.27836  1.0000
  H   H2376     1.0  0.50180  0.69507  0.26236  1.0000
  H   H2377     1.0  0.67544  0.64938  0.13280  1.0000
  C   C1344     1.0  0.48341  0.66795  0.24765  1.0000
  C   C1345     1.0  0.74148  0.68306  0.05922  1.0000
  H   H2378     1.0  0.97180  0.63988  0.03150  1.0000
  H   H2379     1.0  0.54232  0.67933  0.25316  1.0000
  H   H2380     1.0  0.53014  0.49072  0.97533  1.0000
  C   C1346     1.0  0.53762  0.48909  0.14917  1.0000
  H   H2381     1.0  0.55784  0.52911  0.16695  1.0000
  H   H2382     1.0  0.67389  0.64302  0.29830  1.0000
  H   H2383     1.0  0.48798  0.49138  0.15484  1.0000
  H   H2384     1.0  0.49929  0.47968  0.40994  1.0000
  H   H2385     1.0  0.55299  0.56501  0.18962  1.0000
  H   H2386     1.0  0.70977  0.64191  0.10321  1.0000
  C   C1347     1.0  0.61247  0.62338  0.39049  1.0000
  H   H2387     1.0  0.59805  0.67492  0.14772  1.0000
  H   H2388     1.0  0.64393  0.60646  0.40707  1.0000
  H   H2389     1.0  0.49065  0.63176  0.28768  1.0000
  H   H2390     1.0  0.71246  0.62057  0.14379  1.0000
  C   C1348     1.0  0.59004  0.57309  0.34609  1.0000
  C   C1349     1.0  0.52448  0.55104  0.17290  1.0000
  H   H2391     1.0  0.61047  0.69090  0.16898  1.0000
  H   H2392     1.0  0.52168  0.71888  0.99670  1.0000
  H   H2393     1.0  0.57070  0.48835  0.16740  1.0000
  H   H2394     1.0  0.93270  0.47779  0.98990  1.0000
  H   H2395     1.0  0.64119  0.61767  0.36266  1.0000
  S   S293      1.0  0.48879  0.54001  0.29851  1.0000
  H   H2396     1.0  0.67171  0.67524  0.29502  1.0000
  H   H2397     1.0  0.48248  0.68073  0.23131  1.0000
  H   H2398     1.0  0.63270  0.67736  0.31793  1.0000
  H   H2399     1.0  0.72391  0.64639  0.15390  1.0000
  H   H2400     1.0  0.59922  0.55524  0.34298  1.0000
  H   H2401     1.0  0.92753  0.50761  0.97572  1.0000
  H   H2402     1.0  0.53368  0.51763  0.98931  1.0000
  H   H2403     1.0  0.73241  0.69150  0.17324  1.0000
  H   H2404     1.0  0.50539  0.51489  0.12174  1.0000
  H   H2405     1.0  0.57545  0.57676  0.33403  1.0000
  H   H2406     1.0  0.69087  0.70204  0.19024  1.0000
  C   C1350     1.0  0.56362  0.47919  0.15333  1.0000
  H   H2407     1.0  0.60759  0.67438  0.35188  1.0000
  H   H2408     1.0  0.48465  0.51324  0.08847  1.0000
  C   C1351     1.0  0.56974  0.69496  0.33059  1.0000
  C   C1352     1.0  0.59529  0.61755  0.34341  1.0000
  H   H2409     1.0  0.66775  0.69301  0.06656  1.0000
  S   S294      1.0  0.86335  0.72036  0.05442  1.0000
  H   H2410     1.0  0.73943  0.64176  0.11267  1.0000
  C   C1353     1.0  0.62890  0.62014  0.41084  1.0000
  H   H2411     1.0  0.58515  0.62149  0.32731  1.0000
  N   N75       1.0  0.53317  0.51595  0.14519  1.0000
  H   H2412     1.0  0.64359  0.71269  0.05583  1.0000
  N   N76       1.0  0.67290  0.64103  0.17136  1.0000
  C   C1354     1.0  0.65036  0.65712  0.17623  1.0000
  C   C1355     1.0  0.68895  0.64176  0.19124  1.0000
  H   H2413     1.0  0.64070  0.62224  0.32169  1.0000
  C   C1356     1.0  0.66806  0.61560  0.16845  1.0000
  C   C1357     1.0  0.64575  0.60593  0.18326  1.0000
  C   C1358     1.0  0.63422  0.66192  0.15510  1.0000
  C   C1359     1.0  0.50437  0.67558  0.26032  1.0000
  C   C1360     1.0  0.67928  0.63249  0.21674  1.0000
  C   C1361     1.0  0.69610  0.63679  0.23534  1.0000
  C   C1362     1.0  0.64579  0.57894  0.18254  1.0000
  C   C1363     1.0  0.60932  0.67289  0.16304  1.0000
  H   H2414     1.0  0.65491  0.67483  0.18074  1.0000
  H   H2415     1.0  0.63938  0.65024  0.19235  1.0000
  H   H2416     1.0  0.70605  0.63069  0.18773  1.0000
  H   H2417     1.0  0.69381  0.66030  0.19192  1.0000
  H   H2418     1.0  0.58957  0.47815  0.32399  1.0000
  H   H2419     1.0  0.50916  0.68201  0.98299  1.0000
  H   H2420     1.0  0.66562  0.61330  0.14942  1.0000
  H   H2421     1.0  0.68397  0.60320  0.17264  1.0000
  H   H2422     1.0  0.62915  0.61429  0.17581  1.0000
  H   H2423     1.0  0.64450  0.60971  0.20228  1.0000
  C   C1364     1.0  0.71598  0.69346  0.05572  1.0000
  H   H2424     1.0  0.63236  0.64529  0.14669  1.0000
  S   S295      1.0  0.52630  0.63354  0.98449  1.0000
  H   H2425     1.0  0.58146  0.55043  0.09359  1.0000
  H   H2426     1.0  0.66157  0.64146  0.22204  1.0000
  H   H2427     1.0  0.67805  0.61292  0.21772  1.0000
  H   H2428     1.0  0.71391  0.62706  0.23162  1.0000
  H   H2429     1.0  0.69828  0.65614  0.23535  1.0000
  H   H2430     1.0  0.68854  0.63023  0.25346  1.0000
  H   H2431     1.0  0.62939  0.57269  0.19275  1.0000
  H   H2432     1.0  0.64611  0.57427  0.16377  1.0000
  H   H2433     1.0  0.66153  0.56955  0.19089  1.0000
  H   H2434     1.0  0.77298  0.69181  0.97854  1.0000
  S   S296      1.0  0.52244  0.48639  0.26067  1.0000
  H   H2435     1.0  0.63240  0.69420  0.09609  1.0000
  C   C1365     1.0  0.52819  0.67073  0.24556  1.0000
  H   H2436     1.0  0.58214  0.57261  0.36496  1.0000
  C   C1366     1.0  0.60789  0.59209  0.34121  1.0000
  C   C1367     1.0  0.53842  0.52682  0.16748  1.0000
  N   N77       1.0  0.61152  0.63695  0.34512  1.0000
  H   H2437     1.0  0.62177  0.58756  0.35391  1.0000
  H   H2438     1.0  0.48114  0.49255  0.46189  1.0000
  Fe  Fe149     1.0  0.63535  0.71702  0.20649  1.0000
  H   H2439     1.0  0.61655  0.59078  0.32274  1.0000
  H   H2440     1.0  0.63616  0.63728  0.41328  1.0000
  H   H2441     1.0  0.61869  0.61409  0.42784  1.0000
  C   C1368     1.0  0.59638  0.66014  0.34827  1.0000
  H   H2442     1.0  0.70530  0.68961  0.07298  1.0000
  H   H2443     1.0  0.49149  0.51839  0.00864  1.0000
  H   H2444     1.0  0.48945  0.49060  0.99743  1.0000
  H   H2445     1.0  0.55594  0.68117  0.99777  1.0000
  H   H2446     1.0  0.54752  0.51320  0.10848  1.0000
  C   C1369     1.0  0.54958  0.52394  0.12371  1.0000
  H   H2447     1.0  0.52548  0.56451  0.15733  1.0000
  C   C1370     1.0  0.53401  0.56130  0.19393  1.0000
  H   H2448     1.0  0.58365  0.70758  0.33082  1.0000
  S   S297      1.0  0.61380  0.70620  0.27411  1.0000
  H   H2449     1.0  0.65755  0.70502  0.10781  1.0000
  H   H2450     1.0  0.52342  0.57831  0.19781  1.0000
  C   C1371     1.0  0.50239  0.48009  0.24036  1.0000
  H   H2451     1.0  0.96887  0.65504  0.05846  1.0000
  H   H2452     1.0  0.58348  0.65823  0.36439  1.0000
  C   C1372     1.0  0.48522  0.51015  0.99345  1.0000
  H   H2453     1.0  0.55792  0.69518  0.34753  1.0000
  C   C1373     1.0  0.57484  0.68497  0.99300  1.0000
  C   C1374     1.0  0.68728  0.70995  0.97980  1.0000
  H   H2454     1.0  0.94625  0.71177  0.04716  1.0000
  C   C1375     1.0  0.68013  0.72172  0.15788  1.0000
  H   H2455     1.0  0.77528  0.71693  0.01197  1.0000
  S   S298      1.0  0.89606  0.64102  0.98078  1.0000
  C   C1376     1.0  0.64446  0.70883  0.09411  1.0000
  H   H2456     1.0  0.96758  0.67219  0.02982  1.0000
  H   H2457     1.0  0.53235  0.48053  0.13364  1.0000
  H   H2458     1.0  0.77285  0.71555  0.16877  1.0000
  H   H2459     1.0  0.67783  0.70340  0.02721  1.0000
  C   C1377     1.0  0.65737  0.71035  0.06892  1.0000
  H   H2460     1.0  0.68555  0.69087  0.98603  1.0000
  H   H2461     1.0  0.86283  0.71350  0.97538  1.0000
  S   S299      1.0  0.54468  0.47750  0.37426  1.0000
  H   H2462     1.0  0.58529  0.66839  0.98751  1.0000
  H   H2463     1.0  0.82144  0.70890  0.98885  1.0000
  C   C1378     1.0  0.50809  0.72006  0.98422  1.0000
  H   H2464     1.0  0.71571  0.71337  0.00140  1.0000
  H   H2465     1.0  0.56664  0.72127  0.97955  1.0000
  C   C1379     1.0  0.50108  0.69913  0.97639  1.0000
  C   C1380     1.0  0.68152  0.72227  0.02247  1.0000
  C   C1381     1.0  0.71491  0.72074  0.04904  1.0000
  C   C1382     1.0  0.69786  0.72261  0.99864  1.0000
  H   H2466     1.0  0.66951  0.71879  0.97581  1.0000
  C   C1383     1.0  0.97625  0.65603  0.03942  1.0000
  C   C1384     1.0  0.76693  0.72443  0.99612  1.0000
  C   C1385     1.0  0.52747  0.51053  0.97347  1.0000
  C   C1386     1.0  0.87296  0.71081  0.92678  1.0000
  N   N78       1.0  0.56752  0.71578  0.92826  1.0000
  H   H2467     1.0  0.80363  0.69540  0.84243  1.0000
  H   H2468     1.0  0.84582  0.69786  0.63827  1.0000
  H   H2469     1.0  0.91687  0.62668  0.85009  1.0000
  H   H2470     1.0  0.96913  0.51064  0.68655  1.0000
  S   S300      1.0  0.95942  0.50398  0.61119  1.0000
  Fe  Fe150     1.0  0.90655  0.65876  0.70250  1.0000
  S   S301      1.0  0.92627  0.66601  0.73379  1.0000
  S   S302      1.0  0.90718  0.62313  0.68569  1.0000
  H   H2471     1.0  0.90930  0.66690  0.64064  1.0000
  Fe  Fe151     1.0  0.89098  0.68359  0.74890  1.0000
  S   S303      1.0  0.87639  0.68028  0.78823  1.0000
  S   S304      1.0  0.91300  0.69378  0.68170  1.0000
  S   S305      1.0  0.87100  0.67336  0.71952  1.0000
  H   H2472     1.0  0.92046  0.67148  0.80998  1.0000
  H   H2473     1.0  0.81179  0.71386  0.93404  1.0000
  S   S306      1.0  0.94950  0.59269  0.96096  1.0000
  Fe  Fe152     1.0  0.51039  0.59022  0.94032  1.0000
  C   C1387     1.0  0.95525  0.53939  0.90133  1.0000
  H   H2474     1.0  0.74225  0.61256  0.81232  1.0000
  Fe  Fe153     1.0  0.55089  0.61723  0.95524  1.0000
  C   C1388     1.0  0.93519  0.48915  0.97276  1.0000
  S   S307      1.0  0.58949  0.62775  0.95354  1.0000
  H   H2475     1.0  0.91477  0.64175  0.62376  1.0000
  Fe  Fe154     1.0  0.49981  0.64026  0.95677  1.0000
  H   H2476     1.0  0.90142  0.58501  0.83457  1.0000
  C   C1389     1.0  0.89533  0.69960  0.93914  1.0000
  S   S308      1.0  0.52479  0.62560  0.92708  1.0000
  Fe  Fe155     1.0  0.74168  0.70276  0.84696  1.0000
  C   C1390     1.0  0.96360  0.50681  0.87494  1.0000
  S   S309      1.0  0.76362  0.68662  0.81544  1.0000
  Fe  Fe156     1.0  0.69127  0.70195  0.87471  1.0000
  C   C1391     1.0  0.93842  0.66898  0.61266  1.0000
  S   S310      1.0  0.65606  0.68488  0.87350  1.0000
  H   H2477     1.0  0.78077  0.62956  0.81287  1.0000
  H   H2478     1.0  0.94271  0.68307  0.82402  1.0000
  Fe  Fe157     1.0  0.93379  0.63088  0.96403  1.0000
  H   H2479     1.0  0.90464  0.71539  0.59984  1.0000
  S   S311      1.0  0.72679  0.68142  0.87983  1.0000
  H   H2480     1.0  0.97348  0.65885  0.75597  1.0000
  H   H2481     1.0  0.94429  0.50366  0.90981  1.0000
  H   H2482     1.0  0.91897  0.71007  0.85090  1.0000
  H   H2483     1.0  0.76479  0.72431  0.75044  1.0000
  H   H2484     1.0  0.82041  0.66746  0.65908  1.0000
  C   C1392     1.0  0.60749  0.64392  0.93101  1.0000
  C   C1393     1.0  0.60231  0.64714  0.90704  1.0000
  C   C1394     1.0  0.61739  0.65969  0.88977  1.0000
  C   C1395     1.0  0.63776  0.66931  0.89620  1.0000
  C   C1396     1.0  0.64277  0.66640  0.92022  1.0000
  C   C1397     1.0  0.62780  0.65366  0.93746  1.0000
  H   H2485     1.0  0.58682  0.63973  0.90176  1.0000
  H   H2486     1.0  0.61325  0.66190  0.87127  1.0000
  H   H2487     1.0  0.65831  0.67372  0.92550  1.0000
  H   H2488     1.0  0.63202  0.65127  0.95593  1.0000
  C   C1398     1.0  0.92618  0.62576  0.83180  1.0000
  C   C1399     1.0  0.91820  0.70342  0.92290  1.0000
  H   H2489     1.0  0.60550  0.70531  0.92828  1.0000
  H   H2490     1.0  0.96017  0.52341  0.78268  1.0000
  S   S312      1.0  0.94469  0.64168  0.92514  1.0000
  H   H2491     1.0  0.53980  0.66972  0.88481  1.0000
  N   N79       1.0  0.94420  0.64424  0.82719  1.0000
  H   H2492     1.0  0.57180  0.68800  0.90411  1.0000
  H   H2493     1.0  0.85011  0.65226  0.62761  1.0000
  C   C1400     1.0  0.53374  0.69568  0.91151  1.0000
  H   H2494     1.0  0.87344  0.70202  0.90995  1.0000
  C   C1401     1.0  0.84496  0.68258  0.79566  1.0000
  C   C1402     1.0  0.82920  0.67792  0.77929  1.0000
  C   C1403     1.0  0.80444  0.67923  0.78573  1.0000
  C   C1404     1.0  0.79500  0.68568  0.80844  1.0000
  C   C1405     1.0  0.81067  0.69060  0.82483  1.0000
  C   C1406     1.0  0.83556  0.68884  0.81852  1.0000
  H   H2495     1.0  0.83609  0.67292  0.76174  1.0000
  H   H2496     1.0  0.84927  0.71655  0.59877  1.0000
  C   C1407     1.0  0.74393  0.62501  0.82601  1.0000
  C   C1408     1.0  0.91216  0.67311  0.84801  1.0000
  C   C1409     1.0  0.67060  0.57666  0.81087  1.0000
  S   S313      1.0  0.49917  0.56250  0.91775  1.0000
  C   C1410     1.0  0.96219  0.58365  0.63353  1.0000
  C   C1411     1.0  0.94044  0.57440  0.64161  1.0000
  C   C1412     1.0  0.92382  0.58680  0.65739  1.0000
  C   C1413     1.0  0.92864  0.60863  0.66533  1.0000
  C   C1414     1.0  0.95034  0.61794  0.65717  1.0000
  C   C1415     1.0  0.55939  0.70398  0.90783  1.0000
  H   H2497     1.0  0.93634  0.55778  0.63550  1.0000
  H   H2498     1.0  0.90707  0.57943  0.66346  1.0000
  H   H2499     1.0  0.95437  0.63466  0.66312  1.0000
  H   H2500     1.0  0.96054  0.53894  0.67188  1.0000
  Fe  Fe158     1.0  0.97490  0.48821  0.57709  1.0000
  H   H2501     1.0  0.84322  0.66506  0.67985  1.0000
  C   C1416     1.0  0.95767  0.60677  0.72337  1.0000
  H   H2502     1.0  0.90441  0.50794  0.68018  1.0000
  H   H2503     1.0  0.48307  0.72119  0.86852  1.0000
  H   H2504     1.0  0.92691  0.51893  0.65810  1.0000
  H   H2505     1.0  0.89608  0.66350  0.84674  1.0000
  C   C1417     1.0  0.85666  0.65978  0.64295  1.0000
  C   C1418     1.0  0.59332  0.72128  0.92298  1.0000
  H   H2506     1.0  0.96604  0.50653  0.72926  1.0000
  H   H2507     1.0  0.77334  0.63667  0.84328  1.0000
  C   C1419     1.0  0.77043  0.62410  0.83000  1.0000
  C   C1420     1.0  0.96832  0.58089  0.72656  1.0000
  H   H2508     1.0  0.83452  0.63857  0.66877  1.0000
  H   H2509     1.0  0.79251  0.67531  0.77295  1.0000
  H   H2510     1.0  0.69480  0.68411  0.81068  1.0000
  H   H2511     1.0  0.90254  0.67591  0.58700  1.0000
  C   C1421     1.0  0.95360  0.51549  0.89664  1.0000
  H   H2512     1.0  0.73848  0.64351  0.81894  1.0000
  H   H2513     1.0  0.94840  0.53138  0.74072  1.0000
  S   S314      1.0  0.48362  0.60565  0.96769  1.0000
  C   C1422     1.0  0.93630  0.59934  0.83000  1.0000
  C   C1423     1.0  0.96168  0.48942  0.96426  1.0000
  H   H2514     1.0  0.91193  0.62961  0.81915  1.0000
  H   H2515     1.0  0.83022  0.67931  0.60369  1.0000
  Fe  Fe159     1.0  0.93107  0.70199  0.71363  1.0000
  H   H2516     1.0  0.88404  0.65572  0.60286  1.0000
  H   H2517     1.0  0.97009  0.67690  0.79447  1.0000
  S   S315      1.0  0.75350  0.70107  0.93322  1.0000
  S   S316      1.0  0.89766  0.72018  0.73121  1.0000
  H   H2518     1.0  0.67793  0.67635  0.78747  1.0000
  H   H2519     1.0  0.97295  0.49501  0.77269  1.0000
  H   H2520     1.0  0.93394  0.69570  0.93235  1.0000
  H   H2521     1.0  0.72889  0.70890  0.78630  1.0000
  H   H2522     1.0  0.88999  0.70211  0.86371  1.0000
  H   H2523     1.0  0.67364  0.58823  0.79394  1.0000
  C   C1424     1.0  0.48388  0.70045  0.95994  1.0000
  C   C1425     1.0  0.96111  0.64039  0.84680  1.0000
  H   H2524     1.0  0.52035  0.71075  0.91543  1.0000
  C   C1426     1.0  0.86280  0.68607  0.63704  1.0000
  H   H2525     1.0  0.94433  0.64242  0.78898  1.0000
  C   C1427     1.0  0.84348  0.68260  0.58813  1.0000
  N   N80       1.0  0.97055  0.54024  0.70802  1.0000
  H   H2526     1.0  0.94400  0.66169  0.59515  1.0000
  H   H2527     1.0  0.85729  0.63444  0.95063  1.0000
  H   H2528     1.0  0.66376  0.67836  0.81745  1.0000
  C   C1428     1.0  0.96691  0.60559  0.64130  1.0000
  H   H2529     1.0  0.57488  0.68042  0.94584  1.0000
  H   H2530     1.0  0.71086  0.58096  0.83748  1.0000
  H   H2531     1.0  0.89448  0.68008  0.94311  1.0000
  C   C1429     1.0  0.92382  0.50985  0.67638  1.0000
  H   H2532     1.0  0.92635  0.56328  0.83992  1.0000
  H   H2533     1.0  0.77732  0.60575  0.83637  1.0000
  C   C1430     1.0  0.89392  0.67124  0.60529  1.0000
  H   H2534     1.0  0.49981  0.53863  0.96840  1.0000
  H   H2535     1.0  0.92875  0.51436  0.71282  1.0000
  H   H2536     1.0  0.85294  0.66539  0.58333  1.0000
  S   S317      1.0  0.96816  0.58579  0.88839  1.0000
  H   H2537     1.0  0.96902  0.70891  0.75424  1.0000
  H   H2538     1.0  0.89582  0.70646  0.83162  1.0000
  Fe  Fe160     1.0  0.96340  0.60460  0.92325  1.0000
  H   H2539     1.0  0.93883  0.68865  0.61057  1.0000
  H   H2540     1.0  0.87274  0.64831  0.64815  1.0000
  S   S318      1.0  0.70550  0.72086  0.83984  1.0000
  H   H2541     1.0  0.96323  0.61504  0.70526  1.0000
  H   H2542     1.0  0.92125  0.54160  0.69467  1.0000
  H   H2543     1.0  0.93946  0.59557  0.81088  1.0000
  S   S319      1.0  0.96557  0.71951  0.70273  1.0000
  H   H2544     1.0  0.90380  0.70717  0.63110  1.0000
  C   C1431     1.0  0.75475  0.71969  0.95646  1.0000
  N   N81       1.0  0.70251  0.61677  0.84830  1.0000
  C   C1432     1.0  0.69945  0.59751  0.83226  1.0000
  C   C1433     1.0  0.72884  0.61860  0.84977  1.0000
  C   C1434     1.0  0.69193  0.60882  0.87317  1.0000
  C   C1435     1.0  0.69014  0.64074  0.84018  1.0000
  C   C1436     1.0  0.68844  0.64660  0.81279  1.0000
  C   C1437     1.0  0.67357  0.59025  0.83246  1.0000
  C   C1438     1.0  0.69556  0.62463  0.89339  1.0000
  C   C1439     1.0  0.68070  0.67298  0.80682  1.0000
  C   C1440     1.0  0.84129  0.64112  0.94112  1.0000
  C   C1441     1.0  0.68148  0.61641  0.91681  1.0000
  C   C1442     1.0  0.96633  0.52584  0.73194  1.0000
  H   H2545     1.0  0.96662  0.62263  0.80259  1.0000
  H   H2546     1.0  0.73161  0.63272  0.86144  1.0000
  H   H2547     1.0  0.73714  0.60155  0.85827  1.0000
  H   H2548     1.0  0.69923  0.59028  0.87875  1.0000
  H   H2549     1.0  0.67226  0.60821  0.87331  1.0000
  H   H2550     1.0  0.67136  0.64255  0.84836  1.0000
  H   H2551     1.0  0.69875  0.65542  0.84698  1.0000
  H   H2552     1.0  0.67499  0.63611  0.80649  1.0000
  H   H2553     1.0  0.70553  0.64244  0.80213  1.0000
  H   H2554     1.0  0.66920  0.57833  0.84888  1.0000
  H   H2555     1.0  0.66031  0.60606  0.83248  1.0000
  H   H2556     1.0  0.68953  0.64358  0.88848  1.0000
  H   H2557     1.0  0.71460  0.62344  0.89712  1.0000
  Fe  Fe161     1.0  0.87920  0.70903  0.70109  1.0000
  C   C1443     1.0  0.93054  0.66858  0.82625  1.0000
  H   H2558     1.0  0.49630  0.51194  0.95444  1.0000
  H   H2559     1.0  0.85969  0.66664  0.91746  1.0000
  H   H2560     1.0  0.65216  0.57107  0.81202  1.0000
  H   H2561     1.0  0.68395  0.62829  0.93085  1.0000
  H   H2562     1.0  0.66211  0.61720  0.91441  1.0000
  H   H2563     1.0  0.68784  0.59785  0.92304  1.0000
  H   H2564     1.0  0.94732  0.54577  0.91806  1.0000
  H   H2565     1.0  0.95163  0.66163  0.62543  1.0000
  C   C1444     1.0  0.52716  0.68534  0.88915  1.0000
  H   H2566     1.0  0.93338  0.49172  0.67694  1.0000
  H   H2567     1.0  0.83986  0.62931  0.92673  1.0000
  C   C1445     1.0  0.56595  0.69811  0.95019  1.0000
  H   H2568     1.0  0.91820  0.69446  0.90616  1.0000
  C   C1446     1.0  0.95896  0.56538  0.70885  1.0000
  H   H2569     1.0  0.92007  0.72277  0.91832  1.0000
  H   H2570     1.0  0.53217  0.68139  0.92639  1.0000
  C   C1447     1.0  0.84454  0.68384  0.94984  1.0000
  H   H2571     1.0  0.91631  0.58396  0.86190  1.0000
  N   N82       1.0  0.87717  0.69195  0.61344  1.0000
  C   C1448     1.0  0.95923  0.52832  0.68952  1.0000
  N   N83       1.0  0.84913  0.70925  0.94132  1.0000
  S   S320      1.0  0.53887  0.58010  0.96595  1.0000
  H   H2572     1.0  0.70594  0.60260  0.81344  1.0000
  C   C1449     1.0  0.86091  0.70039  0.59395  1.0000
  H   H2573     1.0  0.84757  0.69243  0.83135  1.0000
  H   H2574     1.0  0.87223  0.69030  0.65242  1.0000
  H   H2575     1.0  0.85812  0.67591  0.96196  1.0000
  H   H2576     1.0  0.92530  0.48234  0.95903  1.0000
  H   H2577     1.0  0.50890  0.67926  0.89250  1.0000
  H   H2578     1.0  0.93786  0.60770  0.72592  1.0000
  H   H2579     1.0  0.91971  0.66668  0.86520  1.0000
  Fe  Fe162     1.0  0.73446  0.71239  0.89964  1.0000
  H   H2580     1.0  0.68335  0.56043  0.81050  1.0000
  H   H2581     1.0  0.52745  0.69905  0.87362  1.0000
  H   H2582     1.0  0.96023  0.57503  0.69070  1.0000
  C   C1450     1.0  0.91892  0.58192  0.84235  1.0000
  C   C1451     1.0  0.82950  0.69276  0.56693  1.0000
  C   C1452     1.0  0.84345  0.66675  0.93017  1.0000
  C   C1453     1.0  0.95735  0.64087  0.80291  1.0000
  H   H2583     1.0  0.56038  0.71577  0.89093  1.0000
  C   C1454     1.0  0.90379  0.69961  0.84854  1.0000
  H   H2584     1.0  0.54710  0.69497  0.95596  1.0000
  H   H2585     1.0  0.95339  0.59548  0.83835  1.0000
  H   H2586     1.0  0.93948  0.56522  0.71400  1.0000
  C   C1455     1.0  0.83751  0.65766  0.66394  1.0000
  H   H2587     1.0  0.83789  0.70171  0.89423  1.0000
  H   H2588     1.0  0.95189  0.63304  0.86396  1.0000
  H   H2589     1.0  0.82511  0.64012  0.95394  1.0000
  C   C1456     1.0  0.91363  0.66162  0.62218  1.0000
  H   H2590     1.0  0.81688  0.67985  0.56332  1.0000
  H   H2591     1.0  0.82719  0.68329  0.96093  1.0000
  H   H2592     1.0  0.96297  0.50140  0.94754  1.0000
  H   H2593     1.0  0.89719  0.70763  0.95600  1.0000
  H   H2594     1.0  0.82739  0.67200  0.92032  1.0000
  C   C1457     1.0  0.93234  0.52429  0.69506  1.0000
  H   H2595     1.0  0.96275  0.57413  0.74522  1.0000
  H   H2596     1.0  0.79500  0.71541  0.89490  1.0000
  C   C1458     1.0  0.89221  0.71213  0.61619  1.0000
  H   H2597     1.0  0.96405  0.61726  0.73683  1.0000
  H   H2598     1.0  0.95947  0.67412  0.86375  1.0000
  S   S321      1.0  0.96085  0.47653  0.86992  1.0000
  H   H2599     1.0  0.53847  0.51730  0.95726  1.0000
  H   H2600     1.0  0.72335  0.71241  0.75497  1.0000
  C   C1459     1.0  0.96641  0.55514  0.88404  1.0000
  H   H2601     1.0  0.60428  0.71237  0.88623  1.0000
  S   S322      1.0  0.95380  0.47627  0.54846  1.0000
  H   H2602     1.0  0.84169  0.72226  0.74603  1.0000
  H   H2603     1.0  0.81903  0.70981  0.57094  1.0000
  H   H2604     1.0  0.87175  0.70592  0.57706  1.0000
  C   C1460     1.0  0.97273  0.66257  0.85324  1.0000
  H   H2605     1.0  0.48148  0.72219  0.90064  1.0000
  C   C1461     1.0  0.83208  0.71989  0.89944  1.0000
  H   H2606     1.0  0.84180  0.69594  0.55055  1.0000
  C   C1462     1.0  0.82909  0.72111  0.92706  1.0000
  H   H2607     1.0  0.97548  0.69344  0.97199  1.0000
  H   H2608     1.0  0.69930  0.71072  0.96296  1.0000
  C   C1463     1.0  0.72150  0.72133  0.77188  1.0000
  H   H2609     1.0  0.59568  0.70827  0.96909  1.0000
  C   C1464     1.0  0.84984  0.72275  0.96317  1.0000
  C   C1465     1.0  0.97502  0.52249  0.85778  1.0000
  C   C1466     1.0  0.97609  0.54655  0.86218  1.0000
  H   H2610     1.0  0.97567  0.62638  0.84234  1.0000
  C   C1467     1.0  0.57657  0.70502  0.97279  1.0000
  C   C1468     1.0  0.50123  0.51884  0.97093  1.0000
  C   C1469     1.0  0.97659  0.51368  0.77473  1.0000
  C   C1470     1.0  0.75754  0.74829  0.99446  1.0000
  C   C1471     1.0  0.95217  0.77333  0.03862  1.0000
  H   H2611     1.0  0.49992  0.78854  0.21156  1.0000
  C   C1472     1.0  0.75126  0.77938  0.22375  1.0000
  S   S323      1.0  0.84721  0.94410  0.44548  1.0000
  H   H2612     1.0  0.65171  0.92968  0.25066  1.0000
  H   H2613     1.0  0.75091  0.93186  0.00333  1.0000
  C   C1473     1.0  0.94529  0.81661  0.04049  1.0000
  Fe  Fe163     1.0  0.85815  0.96152  0.40864  1.0000
  S   S324      1.0  0.85161  0.95052  0.37130  1.0000
  Fe  Fe164     1.0  0.88316  0.95234  0.45592  1.0000
  H   H2614     1.0  0.68328  0.74725  0.20918  1.0000
  C   C1474     1.0  0.89468  0.91734  0.08341  1.0000
  Fe  Fe165     1.0  0.77146  0.87884  0.28931  1.0000
  S   S325      1.0  0.73566  0.89498  0.27806  1.0000
  S   S326      1.0  0.77913  0.88848  0.32682  1.0000
  Fe  Fe166     1.0  0.77997  0.85073  0.24381  1.0000
  S   S327      1.0  0.74531  0.86562  0.23016  1.0000
  S   S328      1.0  0.80193  0.82234  0.22265  1.0000
  Fe  Fe167     1.0  0.75456  0.90033  0.24142  1.0000
  S   S329      1.0  0.74687  0.93312  0.21636  1.0000
  Fe  Fe168     1.0  0.72951  0.85858  0.26789  1.0000
  S   S330      1.0  0.69223  0.84552  0.27243  1.0000
  S   S331      1.0  0.79080  0.88634  0.25261  1.0000
  S   S332      1.0  0.76373  0.84158  0.28160  1.0000
  S   S333      1.0  0.89071  0.90250  0.00734  1.0000
  H   H2615     1.0  0.51119  0.90191  0.25784  1.0000
  C   C1475     1.0  0.95935  0.90214  0.02382  1.0000
  H   H2616     1.0  0.66000  0.74786  0.06438  1.0000
  H   H2617     1.0  0.53215  0.83699  0.30539  1.0000
  H   H2618     1.0  0.56751  0.84441  0.26019  1.0000
  Fe  Fe169     1.0  0.54085  0.93704  0.34295  1.0000
  S   S334      1.0  0.57695  0.93433  0.35850  1.0000
  S   S335      1.0  0.53688  0.92242  0.30783  1.0000
  H   H2619     1.0  0.83080  0.83967  0.08187  1.0000
  H   H2620     1.0  0.72120  0.72846  0.06451  1.0000
  S   S336      1.0  0.79565  0.80935  0.11174  1.0000
  H   H2621     1.0  0.48010  0.82874  0.31147  1.0000
  C   C1476     1.0  0.49122  0.74836  0.24626  1.0000
  C   C1477     1.0  0.84823  0.84712  0.07598  1.0000
  S   S337      1.0  0.50494  0.92658  0.35898  1.0000
  S   S338      1.0  0.48983  0.87700  0.31646  1.0000
  C   C1478     1.0  0.53567  0.73152  0.22479  1.0000
  H   H2622     1.0  0.75479  0.96842  0.06432  1.0000
  C   C1479     1.0  0.51239  0.75251  0.25583  1.0000
  H   H2623     1.0  0.49295  0.95591  0.40664  1.0000
  H   H2624     1.0  0.66413  0.90739  0.27162  1.0000
  C   C1480     1.0  0.87044  0.91064  0.07752  1.0000
  H   H2625     1.0  0.51147  0.76215  0.27165  1.0000
  H   H2626     1.0  0.49762  0.87829  0.11061  1.0000
  C   C1481     1.0  0.86996  0.88311  0.07815  1.0000
  C   C1482     1.0  0.48537  0.90788  0.04801  1.0000
  H   H2627     1.0  0.68733  0.91957  0.22082  1.0000
  C   C1483     1.0  0.48221  0.91217  0.12437  1.0000
  H   H2628     1.0  0.68866  0.77312  0.07110  1.0000
  H   H2629     1.0  0.53543  0.94742  0.46904  1.0000
  C   C1484     1.0  0.80620  0.88831  0.02270  1.0000
  H   H2630     1.0  0.93803  0.83401  0.03193  1.0000
  C   C1485     1.0  0.93485  0.90840  0.02209  1.0000
  C   C1486     1.0  0.92189  0.89570  0.00845  1.0000
  C   C1487     1.0  0.93375  0.87669  0.99640  1.0000
  H   H2631     1.0  0.73624  0.74511  0.18045  1.0000
  C   C1488     1.0  0.75940  0.75922  0.24270  1.0000
  H   H2632     1.0  0.92595  0.92297  0.03154  1.0000
  N   N84       1.0  0.69095  0.73280  0.04304  1.0000
  H   H2633     1.0  0.95598  0.76544  0.98798  1.0000
  C   C1489     1.0  0.68843  0.81468  0.27288  1.0000
  C   C1490     1.0  0.66661  0.80760  0.26718  1.0000
  C   C1491     1.0  0.66280  0.78321  0.26796  1.0000
  C   C1492     1.0  0.68063  0.76568  0.27489  1.0000
  C   C1493     1.0  0.70228  0.77281  0.28102  1.0000
  C   C1494     1.0  0.70631  0.79718  0.27967  1.0000
  H   H2634     1.0  0.65262  0.82102  0.26214  1.0000
  H   H2635     1.0  0.64592  0.77799  0.26363  1.0000
  H   H2636     1.0  0.71599  0.75942  0.28687  1.0000
  H   H2637     1.0  0.72299  0.80246  0.28455  1.0000
  C   C1495     1.0  0.79976  0.81903  0.19180  1.0000
  C   C1496     1.0  0.78749  0.83636  0.17699  1.0000
  C   C1497     1.0  0.78634  0.83305  0.15259  1.0000
  C   C1498     1.0  0.79685  0.81215  0.14281  1.0000
  C   C1499     1.0  0.80895  0.79471  0.15764  1.0000
  C   C1500     1.0  0.81061  0.79829  0.18190  1.0000
  H   H2638     1.0  0.77920  0.85250  0.18423  1.0000
  H   H2639     1.0  0.77710  0.84672  0.14124  1.0000
  H   H2640     1.0  0.81744  0.77868  0.15033  1.0000
  H   H2641     1.0  0.82031  0.78485  0.19312  1.0000
  H   H2642     1.0  0.53130  0.91658  0.11713  1.0000
  H   H2643     1.0  0.76863  0.94318  0.25834  1.0000
  C   C1501     1.0  0.83180  0.93225  0.35970  1.0000
  C   C1502     1.0  0.81275  0.92239  0.37380  1.0000
  C   C1503     1.0  0.79699  0.90906  0.36343  1.0000
  C   C1504     1.0  0.79984  0.90542  0.33882  1.0000
  C   C1505     1.0  0.81883  0.91536  0.32473  1.0000
  C   C1506     1.0  0.83467  0.92855  0.33513  1.0000
  H   H2644     1.0  0.81014  0.92503  0.39268  1.0000
  H   H2645     1.0  0.78245  0.90149  0.37460  1.0000
  H   H2646     1.0  0.82145  0.91272  0.30584  1.0000
  H   H2647     1.0  0.84934  0.93590  0.32398  1.0000
  H   H2648     1.0  0.51600  0.97233  0.39026  1.0000
  H   H2649     1.0  0.72045  0.85818  0.37317  1.0000
  C   C1507     1.0  0.72340  0.87742  0.37247  1.0000
  H   H2650     1.0  0.79309  0.95539  0.44984  1.0000
  H   H2651     1.0  0.83378  0.85399  0.12684  1.0000
  C   C1508     1.0  0.68620  0.90059  0.22777  1.0000
  C   C1509     1.0  0.58964  0.92865  0.43842  1.0000
  C   C1510     1.0  0.60137  0.94480  0.42204  1.0000
  C   C1511     1.0  0.59674  0.94701  0.39773  1.0000
  C   C1512     1.0  0.57974  0.93372  0.38967  1.0000
  C   C1513     1.0  0.56725  0.91834  0.40624  1.0000
  C   C1514     1.0  0.57224  0.91579  0.43047  1.0000
  H   H2652     1.0  0.61443  0.95518  0.42794  1.0000
  H   H2653     1.0  0.50412  0.95306  0.00960  1.0000
  H   H2654     1.0  0.55438  0.90771  0.40022  1.0000
  H   H2655     1.0  0.56301  0.90328  0.44298  1.0000
  N   N85       1.0  0.67177  0.89828  0.41981  1.0000
  C   C1515     1.0  0.68645  0.90118  0.44022  1.0000
  C   C1516     1.0  0.66190  0.92274  0.41018  1.0000
  H   H2656     1.0  0.92387  0.86682  0.98573  1.0000
  C   C1517     1.0  0.68561  0.88487  0.40018  1.0000
  H   H2657     1.0  0.95038  0.95153  0.00323  1.0000
  C   C1518     1.0  0.68015  0.94015  0.39862  1.0000
  H   H2658     1.0  0.78975  0.77638  0.25227  1.0000
  H   H2659     1.0  0.54456  0.86913  0.03069  1.0000
  H   H2660     1.0  0.53967  0.79425  0.27398  1.0000
  H   H2661     1.0  0.70269  0.91026  0.43374  1.0000
  H   H2662     1.0  0.64980  0.92143  0.39602  1.0000
  H   H2663     1.0  0.65093  0.93164  0.42486  1.0000
  H   H2664     1.0  0.68236  0.73244  0.08143  1.0000
  H   H2665     1.0  0.57006  0.90949  0.22340  1.0000
  H   H2666     1.0  0.67735  0.88967  0.38296  1.0000
  H   H2667     1.0  0.71670  0.90696  0.39405  1.0000
  H   H2668     1.0  0.64082  0.87364  0.39589  1.0000
  H   H2669     1.0  0.62191  0.89830  0.40714  1.0000
  H   H2670     1.0  0.69425  0.94208  0.41052  1.0000
  H   H2671     1.0  0.68849  0.93387  0.38142  1.0000
  H   H2672     1.0  0.97229  0.80010  0.00151  1.0000
  H   H2673     1.0  0.83044  0.76175  0.98930  1.0000
  C   C1519     1.0  0.71425  0.88191  0.47086  1.0000
  C   C1520     1.0  0.48156  0.93148  0.05469  1.0000
  H   H2674     1.0  0.79788  0.88135  0.06045  1.0000
  H   H2675     1.0  0.97323  0.72672  0.04030  1.0000
  C   C1521     1.0  0.74667  0.75775  0.97376  1.0000
  C   C1522     1.0  0.82794  0.74355  0.99799  1.0000
  N   N86       1.0  0.62625  0.90605  0.26901  1.0000
  C   C1523     1.0  0.62068  0.92144  0.28971  1.0000
  C   C1524     1.0  0.62680  0.87978  0.27797  1.0000
  C   C1525     1.0  0.65098  0.91068  0.25779  1.0000
  C   C1526     1.0  0.60902  0.91209  0.24990  1.0000
  C   C1527     1.0  0.58209  0.91402  0.25839  1.0000
  C   C1528     1.0  0.66050  0.89578  0.23650  1.0000
  C   C1529     1.0  0.60964  0.87263  0.30020  1.0000
  C   C1530     1.0  0.61013  0.84548  0.30509  1.0000
  H   H2676     1.0  0.54986  0.78412  0.31580  1.0000
  H   H2677     1.0  0.63374  0.91628  0.30338  1.0000
  H   H2678     1.0  0.60299  0.91825  0.29929  1.0000
  H   H2679     1.0  0.62371  0.86879  0.26333  1.0000
  H   H2680     1.0  0.64494  0.87302  0.28332  1.0000
  H   H2681     1.0  0.61290  0.92923  0.23936  1.0000
  H   H2682     1.0  0.61161  0.89854  0.23656  1.0000
  H   H2683     1.0  0.57775  0.92731  0.27175  1.0000
  H   H2684     1.0  0.51322  0.86423  0.22149  1.0000
  H   H2685     1.0  0.64958  0.90049  0.22107  1.0000
  H   H2686     1.0  0.66021  0.87634  0.24162  1.0000
  H   H2687     1.0  0.61529  0.87959  0.31641  1.0000
  H   H2688     1.0  0.59097  0.87973  0.29812  1.0000
  H   H2689     1.0  0.59843  0.84089  0.32158  1.0000
  H   H2690     1.0  0.60353  0.83752  0.28997  1.0000
  H   H2691     1.0  0.62858  0.83755  0.30777  1.0000
  H   H2692     1.0  0.57835  0.93884  0.04038  1.0000
  C   C1531     1.0  0.53181  0.81262  0.27711  1.0000
  H   H2693     1.0  0.52210  0.91764  0.00305  1.0000
  H   H2694     1.0  0.78922  0.88197  0.01836  1.0000
  H   H2695     1.0  0.52964  0.86164  0.27261  1.0000
  H   H2696     1.0  0.82345  0.90085  0.09550  1.0000
  H   H2697     1.0  0.53070  0.82725  0.21681  1.0000
  N   N87       1.0  0.84583  0.87402  0.07678  1.0000
  H   H2698     1.0  0.81976  0.90556  0.13948  1.0000
  H   H2699     1.0  0.69956  0.75856  0.18281  1.0000
  H   H2700     1.0  0.69286  0.88918  0.21312  1.0000
  H   H2701     1.0  0.81425  0.85690  0.04611  1.0000
  H   H2702     1.0  0.50862  0.88407  0.13842  1.0000
  H   H2703     1.0  0.90982  0.78031  0.01714  1.0000
  H   H2704     1.0  0.58963  0.92158  0.98940  1.0000
  H   H2705     1.0  0.70466  0.78285  0.22845  1.0000
  Fe  Fe170     1.0  0.49138  0.96358  0.34429  1.0000
  H   H2706     1.0  0.57871  0.90815  0.03396  1.0000
  C   C1532     1.0  0.73308  0.96263  0.46505  1.0000
  C   C1533     1.0  0.83654  0.88516  0.05358  1.0000
  H   H2707     1.0  0.48900  0.92675  0.13314  1.0000
  C   C1534     1.0  0.94014  0.74988  0.03733  1.0000
  C   C1535     1.0  0.94923  0.96027  0.98485  1.0000
  H   H2708     1.0  0.52066  0.79802  0.32526  1.0000
  H   H2709     1.0  0.72254  0.87872  0.41042  1.0000
  H   H2710     1.0  0.51254  0.81072  0.28229  1.0000
  H   H2711     1.0  0.67625  0.91323  0.45288  1.0000
  H   H2712     1.0  0.54826  0.85366  0.00380  1.0000
  C   C1536     1.0  0.52491  0.90262  0.10725  1.0000
  S   S339      1.0  0.56087  0.74981  0.25733  1.0000
  C   C1537     1.0  0.49031  0.80630  0.21427  1.0000
  H   H2713     1.0  0.96756  0.85646  0.98799  1.0000
  S   S340      1.0  0.48285  0.95094  0.30918  1.0000
  C   C1538     1.0  0.69406  0.75881  0.03531  1.0000
  S   S341      1.0  0.89484  0.96908  0.02386  1.0000
  S   S342      1.0  0.48447  0.96271  0.16762  1.0000
  C   C1539     1.0  0.82600  0.72618  0.97919  1.0000
  H   H2714     1.0  0.89975  0.83303  0.02771  1.0000
  H   H2715     1.0  0.85319  0.87793  0.12552  1.0000
  H   H2716     1.0  0.65697  0.86646  0.43748  1.0000
  C   C1540     1.0  0.79507  0.94660  0.07832  1.0000
  C   C1541     1.0  0.63212  0.88117  0.41236  1.0000
  H   H2717     1.0  0.65366  0.96444  0.38067  1.0000
  H   H2718     1.0  0.68398  0.80792  0.04069  1.0000
  C   C1542     1.0  0.96835  0.96860  0.45184  1.0000
  H   H2719     1.0  0.49211  0.80430  0.25228  1.0000
  C   C1543     1.0  0.75357  0.94706  0.99043  1.0000
  C   C1544     1.0  0.67292  0.78374  0.19802  1.0000
  S   S343      1.0  0.89551  0.96652  0.41830  1.0000
  C   C1545     1.0  0.53465  0.74404  0.24516  1.0000
  H   H2720     1.0  0.85265  0.84236  0.05720  1.0000
  H   H2721     1.0  0.69800  0.89626  0.24255  1.0000
  H   H2722     1.0  0.53952  0.88818  0.10511  1.0000
  H   H2723     1.0  0.86426  0.83072  0.00689  1.0000
  C   C1546     1.0  0.75499  0.95311  0.45456  1.0000
  H   H2724     1.0  0.78452  0.75820  0.19409  1.0000
  H   H2725     1.0  0.49601  0.94867  0.25310  1.0000
  C   C1547     1.0  0.86773  0.83262  0.09041  1.0000
  C   C1548     1.0  0.86490  0.80582  0.09220  1.0000
  H   H2726     1.0  0.87830  0.87527  0.09446  1.0000
  H   H2727     1.0  0.83332  0.90487  0.05384  1.0000
  H   H2728     1.0  0.88568  0.83552  0.08126  1.0000
  H   H2729     1.0  0.86730  0.83795  0.10886  1.0000
  H   H2730     1.0  0.87985  0.79589  0.10139  1.0000
  H   H2731     1.0  0.84794  0.80180  0.10284  1.0000
  H   H2732     1.0  0.86493  0.79940  0.07417  1.0000
  H   H2733     1.0  0.74390  0.75084  0.25240  1.0000
  H   H2734     1.0  0.70002  0.74116  0.99089  1.0000
  Fe  Fe171     1.0  0.49954  0.91472  0.32251  1.0000
  C   C1549     1.0  0.71278  0.88804  0.39553  1.0000
  H   H2735     1.0  0.88250  0.87716  0.06289  1.0000
  C   C1550     1.0  0.83500  0.87351  0.12285  1.0000
  H   H2736     1.0  0.53868  0.87689  0.23055  1.0000
  H   H2737     1.0  0.50508  0.90696  0.22674  1.0000
  H   H2738     1.0  0.75550  0.93835  0.44354  1.0000
  H   H2739     1.0  0.68432  0.86527  0.40399  1.0000
  H   H2740     1.0  0.74295  0.87908  0.37015  1.0000
  C   C1551     1.0  0.77549  0.95743  0.98804  1.0000
  H   H2741     1.0  0.71500  0.85306  0.17862  1.0000
  H   H2742     1.0  0.96911  0.91200  0.03465  1.0000
  C   C1552     1.0  0.53973  0.80115  0.32046  1.0000
  C   C1553     1.0  0.54220  0.95801  0.01136  1.0000
  H   H2743     1.0  0.93805  0.74637  0.01868  1.0000
  H   H2744     1.0  0.77854  0.75432  0.27475  1.0000
  C   C1554     1.0  0.52059  0.87140  0.23663  1.0000
  C   C1555     1.0  0.71185  0.72581  0.12537  1.0000
  H   H2745     1.0  0.71936  0.76755  0.05996  1.0000
  H   H2746     1.0  0.85027  0.88206  0.03831  1.0000
  H   H2747     1.0  0.87338  0.80035  0.00051  1.0000
  C   C1556     1.0  0.82804  0.88123  0.09713  1.0000
  Fe  Fe172     1.0  0.77814  0.75443  0.05095  1.0000
  H   H2748     1.0  0.71538  0.88710  0.35664  1.0000
  C   C1557     1.0  0.58586  0.92552  0.02779  1.0000
  S   S344      1.0  0.83981  0.95395  0.02363  1.0000
  H   H2749     1.0  0.85676  0.91852  0.09063  1.0000
  H   H2750     1.0  0.67730  0.76778  0.02843  1.0000
  H   H2751     1.0  0.79743  0.93504  0.06322  1.0000
  C   C1558     1.0  0.49123  0.95471  0.21525  1.0000
  S   S345      1.0  0.67655  0.73480  0.27604  1.0000
  C   C1559     1.0  0.94786  0.78359  0.98286  1.0000
  C   C1560     1.0  0.81284  0.87653  0.04707  1.0000
  H   H2752     1.0  0.48780  0.83398  0.23788  1.0000
  H   H2753     1.0  0.66481  0.78880  0.21578  1.0000
  H   H2754     1.0  0.77292  0.76041  0.16522  1.0000
  H   H2755     1.0  0.81082  0.87343  0.09610  1.0000
  H   H2756     1.0  0.69483  0.94440  0.28624  1.0000
  H   H2757     1.0  0.52375  0.94524  0.40885  1.0000
  H   H2758     1.0  0.86741  0.91917  0.05934  1.0000
  H   H2759     1.0  0.70068  0.86325  0.44400  1.0000
  S   S346      1.0  0.81200  0.77028  0.05637  1.0000
  H   H2760     1.0  0.79130  0.90848  0.46141  1.0000
  H   H2761     1.0  0.67559  0.74160  0.12381  1.0000
  H   H2762     1.0  0.57927  0.80014  0.26424  1.0000
  Fe  Fe173     1.0  0.52045  0.95886  0.29639  1.0000
  C   C1561     1.0  0.70127  0.77391  0.05475  1.0000
  C   C1562     1.0  0.70194  0.80016  0.04531  1.0000
  H   H2763     1.0  0.86528  0.80736  0.03105  1.0000
  H   H2764     1.0  0.65979  0.97264  0.40968  1.0000
  H   H2765     1.0  0.76748  0.78737  0.21501  1.0000
  C   C1563     1.0  0.69229  0.76310  0.20089  1.0000
  N   N88       1.0  0.53489  0.82909  0.25453  1.0000
  C   C1564     1.0  0.77282  0.75008  0.18306  1.0000
  H   H2766     1.0  0.60008  0.86301  0.41133  1.0000
  H   H2767     1.0  0.82210  0.87886  0.15973  1.0000
  Fe  Fe174     1.0  0.79678  0.77408  0.09449  1.0000
  H   H2768     1.0  0.78628  0.95743  0.31227  1.0000
  H   H2769     1.0  0.65863  0.77809  0.18808  1.0000
  H   H2770     1.0  0.59068  0.95961  0.30833  1.0000
  C   C1565     1.0  0.61386  0.86426  0.42389  1.0000
  C   C1566     1.0  0.68804  0.73082  0.13468  1.0000
  H   H2771     1.0  0.62264  0.84611  0.42815  1.0000
  H   H2772     1.0  0.70476  0.82967  0.16349  1.0000
  N   N89       1.0  0.94093  0.79622  0.02635  1.0000
  H   H2773     1.0  0.57252  0.79800  0.23394  1.0000
  C   C1567     1.0  0.97392  0.83764  0.06175  1.0000
  C   C1568     1.0  0.54207  0.82033  0.29951  1.0000
  H   H2774     1.0  0.58805  0.95116  0.99705  1.0000
  C   C1569     1.0  0.56082  0.83296  0.24769  1.0000
  C   C1570     1.0  0.49786  0.81628  0.23642  1.0000
  H   H2775     1.0  0.52073  0.91053  0.08915  1.0000
  H   H2776     1.0  0.97513  0.95352  0.46419  1.0000
  H   H2777     1.0  0.89504  0.93709  0.08114  1.0000
  C   C1571     1.0  0.57823  0.81007  0.24632  1.0000
  S   S347      1.0  0.62780  0.74708  0.23023  1.0000
  H   H2778     1.0  0.63939  0.95374  0.27911  1.0000
  C   C1572     1.0  0.62081  0.94881  0.28335  1.0000
  C   C1573     1.0  0.81790  0.88603  0.14138  1.0000
  H   H2779     1.0  0.68026  0.79947  0.18766  1.0000
  H   H2780     1.0  0.72172  0.95125  0.26811  1.0000
  C   C1574     1.0  0.51648  0.96731  0.00549  1.0000
  H   H2781     1.0  0.61672  0.91611  0.04808  1.0000
  C   C1575     1.0  0.52156  0.85292  0.25879  1.0000
  H   H2782     1.0  0.70780  0.81041  0.05927  1.0000
  H   H2783     1.0  0.90805  0.82429  0.99786  1.0000
  C   C1576     1.0  0.60344  0.81627  0.23706  1.0000
  H   H2784     1.0  0.47891  0.92005  0.10609  1.0000
  N   N90       1.0  0.73617  0.77233  0.20523  1.0000
  H   H2785     1.0  0.49340  0.93792  0.06608  1.0000
  C   C1577     1.0  0.95847  0.87076  0.99770  1.0000
  S   S348      1.0  0.76153  0.76171  0.08777  1.0000
  H   H2786     1.0  0.49397  0.81867  0.19806  1.0000
  H   H2787     1.0  0.70811  0.76057  0.02019  1.0000
  H   H2788     1.0  0.81144  0.94395  0.08810  1.0000
  C   C1578     1.0  0.77626  0.96275  0.45807  1.0000
  H   H2789     1.0  0.47810  0.88019  0.16393  1.0000
  H   H2790     1.0  0.74149  0.79391  0.23383  1.0000
  H   H2791     1.0  0.57121  0.94030  0.22954  1.0000
  H   H2792     1.0  0.49985  0.89607  0.05486  1.0000
  H   H2793     1.0  0.56281  0.84310  0.22977  1.0000
  H   H2794     1.0  0.61022  0.82839  0.24873  1.0000
  H   H2795     1.0  0.73567  0.83613  0.15898  1.0000
  C   C1579     1.0  0.74682  0.74965  0.19476  1.0000
  C   C1580     1.0  0.95254  0.80089  0.00127  1.0000
  C   C1581     1.0  0.71171  0.76808  0.21732  1.0000
  C   C1582     1.0  0.50475  0.89380  0.24266  1.0000
  H   H2796     1.0  0.60364  0.82488  0.21846  1.0000
  H   H2797     1.0  0.70952  0.81680  0.20638  1.0000
  H   H2798     1.0  0.60656  0.95888  0.38504  1.0000
  C   C1583     1.0  0.87420  0.81382  0.01351  1.0000
  H   H2799     1.0  0.54779  0.92333  0.24405  1.0000
  H   H2800     1.0  0.95249  0.77495  0.05819  1.0000
  H   H2801     1.0  0.71305  0.75232  0.23074  1.0000
  C   C1584     1.0  0.90012  0.81826  0.01594  1.0000
  C   C1585     1.0  0.73465  0.79224  0.18544  1.0000
  H   H2802     1.0  0.61567  0.79969  0.23692  1.0000
  C   C1586     1.0  0.95472  0.72839  0.04898  1.0000
  H   H2803     1.0  0.90925  0.90934  0.07124  1.0000
  H   H2804     1.0  0.52113  0.87217  0.01056  1.0000
  H   H2805     1.0  0.94738  0.81942  0.99385  1.0000
  C   C1587     1.0  0.52533  0.81784  0.23451  1.0000
  H   H2806     1.0  0.82036  0.88365  0.00839  1.0000
  C   C1588     1.0  0.54103  0.91546  0.00743  1.0000
  H   H2807     1.0  0.92852  0.78298  0.98131  1.0000
  H   H2808     1.0  0.71483  0.80205  0.02918  1.0000
  Fe  Fe175     1.0  0.87660  0.94165  0.00771  1.0000
  H   H2809     1.0  0.53349  0.79918  0.23346  1.0000
  H   H2810     1.0  0.72355  0.78783  0.17145  1.0000
  C   C1589     1.0  0.49903  0.96637  0.19317  1.0000
  H   H2811     1.0  0.97169  0.94608  0.42231  1.0000
  H   H2812     1.0  0.92213  0.75081  0.04725  1.0000
  H   H2813     1.0  0.74583  0.73418  0.20856  1.0000
  H   H2814     1.0  0.56123  0.82332  0.29597  1.0000
  C   C1590     1.0  0.69434  0.87791  0.45544  1.0000
  C   C1591     1.0  0.54073  0.87040  0.01159  1.0000
  H   H2815     1.0  0.73985  0.82428  0.20267  1.0000
  C   C1592     1.0  0.51452  0.72734  0.21524  1.0000
  H   H2816     1.0  0.62112  0.90834  0.01750  1.0000
  H   H2817     1.0  0.80373  0.90805  0.02295  1.0000
  H   H2818     1.0  0.73284  0.96193  0.32939  1.0000
  S   S349      1.0  0.64937  0.72573  0.16765  1.0000
  H   H2819     1.0  0.78966  0.95018  0.99896  1.0000
  C   C1593     1.0  0.50295  0.89237  0.12100  1.0000
  C   C1594     1.0  0.76017  0.95818  0.22321  1.0000
  H   H2820     1.0  0.90644  0.79174  0.04552  1.0000
  H   H2821     1.0  0.64095  0.89369  0.44542  1.0000
  H   H2822     1.0  0.93561  0.81459  0.05870  1.0000
  H   H2823     1.0  0.55341  0.97331  0.00839  1.0000
  C   C1595     1.0  0.91423  0.79541  0.02671  1.0000
  H   H2824     1.0  0.79911  0.88297  0.13928  1.0000
  C   C1596     1.0  0.60988  0.96263  0.30438  1.0000
  H   H2825     1.0  0.57647  0.89643  0.26602  1.0000
  C   C1597     1.0  0.51120  0.96151  0.40729  1.0000
  H   H2826     1.0  0.55272  0.72523  0.21624  1.0000
  N   N91       1.0  0.55356  0.93732  0.99800  1.0000
  S   S350      1.0  0.50647  0.96973  0.09997  1.0000
  C   C1598     1.0  0.71993  0.83506  0.17231  1.0000
  H   H2827     1.0  0.56738  0.97189  0.46372  1.0000
  C   C1599     1.0  0.56700  0.92222  0.23747  1.0000
  C   C1600     1.0  0.72568  0.81727  0.19361  1.0000
  H   H2828     1.0  0.53991  0.91324  0.02737  1.0000
  C   C1601     1.0  0.76854  0.95888  0.24570  1.0000
  S   S351      1.0  0.75823  0.76656  0.01814  1.0000
  C   C1602     1.0  0.67310  0.73177  0.06493  1.0000
  C   C1603     1.0  0.50204  0.95776  0.23613  1.0000
  C   C1604     1.0  0.65072  0.88471  0.43006  1.0000
  C   C1605     1.0  0.55182  0.89170  0.99759  1.0000
  H   H2829     1.0  0.61933  0.95693  0.32070  1.0000
  C   C1606     1.0  0.61285  0.92207  0.02936  1.0000
  C   C1607     1.0  0.49801  0.74248  0.97560  1.0000
  H   H2830     1.0  0.77137  0.74509  0.23424  1.0000
  C   C1608     1.0  0.77131  0.96455  0.32456  1.0000
  C   C1609     1.0  0.77329  0.76893  0.26113  1.0000
  Fe  Fe176     1.0  0.82510  0.73255  0.06871  1.0000
  S   S352      1.0  0.70688  0.95039  0.45968  1.0000
  H   H2831     1.0  0.89785  0.91109  0.10225  1.0000
  H   H2832     1.0  0.75259  0.79444  0.17590  1.0000
  H   H2833     1.0  0.76222  0.78317  0.27040  1.0000
  C   C1610     1.0  0.97132  0.88338  0.01160  1.0000
  C   C1611     1.0  0.74834  0.95654  0.31681  1.0000
  H   H2834     1.0  0.51591  0.97397  0.98636  1.0000
  S   S353      1.0  0.81250  0.73765  0.10758  1.0000
  C   C1612     1.0  0.57979  0.93403  0.00187  1.0000
  H   H2835     1.0  0.66398  0.73186  0.01848  1.0000
  Fe  Fe177     1.0  0.59525  0.72884  0.24518  1.0000
  H   H2836     1.0  0.62108  0.93909  0.02405  1.0000
  S   S354      1.0  0.59717  0.92285  0.46845  1.0000
  H   H2837     1.0  0.54700  0.80710  0.33634  1.0000
  H   H2838     1.0  0.61044  0.95495  0.26781  1.0000
  C   C1613     1.0  0.95777  0.95789  0.43171  1.0000
  H   H2839     1.0  0.50304  0.85054  0.26646  1.0000
  H   H2840     1.0  0.77367  0.95612  0.34288  1.0000
  C   C1614     1.0  0.73520  0.95605  0.97600  1.0000
  H   H2841     1.0  0.95541  0.73026  0.06837  1.0000
  H   H2842     1.0  0.50678  0.96451  0.44513  1.0000
  H   H2843     1.0  0.96692  0.83061  0.07990  1.0000
  H   H2844     1.0  0.95105  0.97223  0.41848  1.0000
  H   H2845     1.0  0.73027  0.88733  0.45936  1.0000
  C   C1615     1.0  0.70194  0.95326  0.26890  1.0000
  H   H2846     1.0  0.48605  0.88948  0.24755  1.0000
  H   H2847     1.0  0.97127  0.77015  0.03173  1.0000
  H   H2848     1.0  0.54146  0.95320  0.03107  1.0000
  H   H2849     1.0  0.78504  0.96648  0.40205  1.0000
  H   H2850     1.0  0.80195  0.72591  0.16930  1.0000
  H   H2851     1.0  0.77970  0.94133  0.09087  1.0000
  H   H2852     1.0  0.77460  0.88260  0.46366  1.0000
  H   H2853     1.0  0.81128  0.74449  0.01013  1.0000
  C   C1616     1.0  0.97189  0.81977  0.04344  1.0000
  S   S355      1.0  0.50658  0.83728  0.97820  1.0000
  H   H2854     1.0  0.96389  0.85500  0.05675  1.0000
  C   C1617     1.0  0.78605  0.89264  0.47334  1.0000
  H   H2855     1.0  0.60479  0.87111  0.44060  1.0000
  H   H2856     1.0  0.72667  0.96947  0.03805  1.0000
  Fe  Fe178     1.0  0.77763  0.72518  0.09910  1.0000
  C   C1618     1.0  0.66784  0.96508  0.39294  1.0000
  H   H2857     1.0  0.71765  0.73263  0.10739  1.0000
  H   H2858     1.0  0.55030  0.97038  0.42735  1.0000
  H   H2859     1.0  0.57137  0.88874  0.99865  1.0000
  H   H2860     1.0  0.69626  0.94402  0.25412  1.0000
  C   C1619     1.0  0.78408  0.72491  0.17929  1.0000
  H   H2861     1.0  0.94293  0.94704  0.43907  1.0000
  C   C1620     1.0  0.52042  0.97282  0.23506  1.0000
  S   S356      1.0  0.50937  0.76823  0.98366  1.0000
  H   H2862     1.0  0.54804  0.89173  0.97863  1.0000
  H   H2863     1.0  0.74990  0.93677  0.31682  1.0000
  H   H2864     1.0  0.74524  0.96439  0.29840  1.0000
  H   H2865     1.0  0.84310  0.73753  0.00889  1.0000
  H   H2866     1.0  0.77395  0.96783  0.03732  1.0000
  H   H2867     1.0  0.67904  0.87205  0.46780  1.0000
  S   S357      1.0  0.70793  0.94263  0.97962  1.0000
  C   C1621     1.0  0.79124  0.97286  0.06898  1.0000
  H   H2868     1.0  0.93060  0.96053  0.98003  1.0000
  C   C1622     1.0  0.49229  0.73567  0.22597  1.0000
  H   H2869     1.0  0.80185  0.97360  0.35901  1.0000
  S   S358      1.0  0.63974  0.97374  0.46369  1.0000
  H   H2870     1.0  0.63358  0.72584  0.09744  1.0000
  S   S359      1.0  0.52745  0.97426  0.33008  1.0000
  Fe  Fe179     1.0  0.48973  0.80387  0.97347  1.0000
  H   H2871     1.0  0.96426  0.79490  0.72697  1.0000
  C   C1623     1.0  0.64159  0.92461  0.86794  1.0000
  C   C1624     1.0  0.81514  0.74464  0.76648  1.0000
  H   H2872     1.0  0.84567  0.73197  0.89128  1.0000
  Fe  Fe180     1.0  0.67848  0.95330  0.95488  1.0000
  Fe  Fe181     1.0  0.64613  0.95319  0.53117  1.0000
  H   H2873     1.0  0.70992  0.93580  0.65555  1.0000
  S   S360      1.0  0.65065  0.94476  0.57133  1.0000
  C   C1625     1.0  0.74525  0.74351  0.95480  1.0000
  H   H2874     1.0  0.80786  0.72943  0.77779  1.0000
  H   H2875     1.0  0.80135  0.73681  0.73389  1.0000
  S   S361      1.0  0.65571  0.92846  0.50201  1.0000
  Fe  Fe182     1.0  0.77590  0.85335  0.69901  1.0000
  S   S362      1.0  0.74792  0.83540  0.68352  1.0000
  S   S363      1.0  0.81369  0.83709  0.70420  1.0000
  Fe  Fe183     1.0  0.74066  0.89588  0.71183  1.0000
  S   S364      1.0  0.71001  0.88043  0.69766  1.0000
  S   S365      1.0  0.73144  0.93012  0.73006  1.0000
  Fe  Fe184     1.0  0.72448  0.84563  0.71628  1.0000
  S   S366      1.0  0.70241  0.81803  0.73790  1.0000
  Fe  Fe185     1.0  0.73618  0.87202  0.66627  1.0000
  S   S367      1.0  0.73042  0.87817  0.62611  1.0000
  S   S368      1.0  0.75303  0.86174  0.73260  1.0000
  S   S369      1.0  0.76627  0.88937  0.67963  1.0000
  S   S370      1.0  0.62069  0.89616  0.93595  1.0000
  C   C1626     1.0  0.76146  0.73928  0.76218  1.0000
  S   S371      1.0  0.70982  0.78870  0.84936  1.0000
  H   H2876     1.0  0.95588  0.77842  0.94512  1.0000
  C   C1627     1.0  0.62441  0.84946  0.88713  1.0000
  S   S372      1.0  0.51505  0.87521  0.91703  1.0000
  H   H2877     1.0  0.47815  0.74948  0.88144  1.0000
  H   H2878     1.0  0.59033  0.80190  0.90792  1.0000
  C   C1628     1.0  0.93886  0.80292  0.70116  1.0000
  C   C1629     1.0  0.71064  0.95182  0.66528  1.0000
  H   H2879     1.0  0.84961  0.75231  0.74829  1.0000
  H   H2880     1.0  0.74514  0.93613  0.88084  1.0000
  H   H2881     1.0  0.96689  0.90103  0.92293  1.0000
  H   H2882     1.0  0.71345  0.95401  0.77784  1.0000
  H   H2883     1.0  0.95715  0.84451  0.71974  1.0000
  C   C1630     1.0  0.84091  0.73695  0.75796  1.0000
  C   C1631     1.0  0.59079  0.89160  0.93147  1.0000
  C   C1632     1.0  0.57726  0.90709  0.91606  1.0000
  C   C1633     1.0  0.55407  0.90199  0.91190  1.0000
  C   C1634     1.0  0.54404  0.88150  0.92329  1.0000
  C   C1635     1.0  0.55767  0.86601  0.93865  1.0000
  C   C1636     1.0  0.58095  0.87094  0.94253  1.0000
  H   H2884     1.0  0.58490  0.92269  0.90691  1.0000
  H   H2885     1.0  0.54385  0.91394  0.89974  1.0000
  H   H2886     1.0  0.55046  0.84998  0.94725  1.0000
  H   H2887     1.0  0.74969  0.87012  0.81965  1.0000
  H   H2888     1.0  0.74004  0.93916  0.61432  1.0000
  S   S373      1.0  0.92625  0.94382  0.58691  1.0000
  H   H2889     1.0  0.77768  0.93674  0.70329  1.0000
  C   C1637     1.0  0.75668  0.95535  0.79231  1.0000
  C   C1638     1.0  0.70430  0.81071  0.76903  1.0000
  C   C1639     1.0  0.69392  0.79036  0.78007  1.0000
  C   C1640     1.0  0.69598  0.78323  0.80450  1.0000
  C   C1641     1.0  0.70809  0.79664  0.81830  1.0000
  C   C1642     1.0  0.71755  0.81762  0.80755  1.0000
  C   C1643     1.0  0.71589  0.82450  0.78296  1.0000
  H   H2890     1.0  0.68455  0.77982  0.76956  1.0000
  H   H2891     1.0  0.68796  0.76746  0.81269  1.0000
  H   H2892     1.0  0.72646  0.82841  0.81821  1.0000
  H   H2893     1.0  0.72349  0.84050  0.77481  1.0000
  C   C1644     1.0  0.63370  0.90010  0.86462  1.0000
  C   C1645     1.0  0.61665  0.82378  0.88846  1.0000
  H   H2894     1.0  0.94858  0.89009  0.68582  1.0000
  H   H2895     1.0  0.77409  0.86646  0.58925  1.0000
  C   C1646     1.0  0.67305  0.92607  0.58609  1.0000
  C   C1647     1.0  0.69172  0.91307  0.57355  1.0000
  C   C1648     1.0  0.70890  0.89837  0.58613  1.0000
  C   C1649     1.0  0.70780  0.89652  0.61133  1.0000
  C   C1650     1.0  0.68900  0.90931  0.62385  1.0000
  C   C1651     1.0  0.67187  0.92409  0.61131  1.0000
  H   H2896     1.0  0.69272  0.91409  0.55419  1.0000
  H   H2897     1.0  0.72292  0.88802  0.57632  1.0000
  H   H2898     1.0  0.68735  0.90738  0.64320  1.0000
  H   H2899     1.0  0.65733  0.93376  0.62124  1.0000
  C   C1652     1.0  0.92253  0.94045  0.55637  1.0000
  H   H2900     1.0  0.92835  0.77107  0.72339  1.0000
  C   C1653     1.0  0.89744  0.94769  0.52269  1.0000
  C   C1654     1.0  0.91428  0.93429  0.50840  1.0000
  C   C1655     1.0  0.93533  0.92413  0.51819  1.0000
  C   C1656     1.0  0.93958  0.92739  0.54195  1.0000
  C   C1657     1.0  0.90145  0.95053  0.54658  1.0000
  H   H2901     1.0  0.67321  0.96123  0.65865  1.0000
  H   H2902     1.0  0.94840  0.91361  0.50736  1.0000
  H   H2903     1.0  0.75759  0.95202  0.77303  1.0000
  C   C1658     1.0  0.83996  0.76020  0.68790  1.0000
  C   C1659     1.0  0.81904  0.77136  0.67870  1.0000
  C   C1660     1.0  0.81095  0.79498  0.68336  1.0000
  C   C1661     1.0  0.82366  0.80763  0.69732  1.0000
  C   C1662     1.0  0.84487  0.79665  0.70607  1.0000
  C   C1663     1.0  0.85300  0.77305  0.70137  1.0000
  H   H2904     1.0  0.80899  0.76168  0.66801  1.0000
  H   H2905     1.0  0.79495  0.80350  0.67605  1.0000
  H   H2906     1.0  0.85495  0.80638  0.71670  1.0000
  H   H2907     1.0  0.86925  0.76474  0.70829  1.0000
  H   H2908     1.0  0.73930  0.77618  0.97239  1.0000
  H   H2909     1.0  0.64981  0.84300  0.79677  1.0000
  C   C1664     1.0  0.89328  0.75255  0.63276  1.0000
  H   H2910     1.0  0.64223  0.92654  0.88726  1.0000
  H   H2911     1.0  0.73139  0.75281  0.78564  1.0000
  C   C1665     1.0  0.75964  0.75409  0.71022  1.0000
  C   C1666     1.0  0.64095  0.82923  0.80903  1.0000
  C   C1667     1.0  0.55169  0.73798  0.93377  1.0000
  S   S374      1.0  0.90946  0.92916  0.47860  1.0000
  N   N92       1.0  0.72382  0.97057  0.64982  1.0000
  H   H2912     1.0  0.63167  0.89960  0.84527  1.0000
  H   H2913     1.0  0.65947  0.92710  0.85847  1.0000
  S   S375      1.0  0.62459  0.96717  0.91658  1.0000
  Fe  Fe186     1.0  0.96151  0.94288  0.60410  1.0000
  H   H2914     1.0  0.61037  0.82046  0.87110  1.0000
  H   H2915     1.0  0.70816  0.89611  0.48302  1.0000
  H   H2916     1.0  0.68445  0.93628  0.70773  1.0000
  C   C1668     1.0  0.68984  0.94613  0.80976  1.0000
  C   C1669     1.0  0.96534  0.79925  0.70715  1.0000
  H   H2917     1.0  0.63959  0.72607  0.90389  1.0000
  H   H2918     1.0  0.53218  0.94202  0.96760  1.0000
  H   H2919     1.0  0.86164  0.73428  0.63269  1.0000
  H   H2920     1.0  0.81254  0.95453  0.51430  1.0000
  S   S376      1.0  0.84905  0.73021  0.68236  1.0000
  C   C1670     1.0  0.74825  0.95502  0.72327  1.0000
  S   S377      1.0  0.61026  0.96592  0.51708  1.0000
  H   H2921     1.0  0.62127  0.83294  0.80925  1.0000
  H   H2922     1.0  0.81313  0.97280  0.56391  1.0000
  H   H2923     1.0  0.96083  0.96841  0.55418  1.0000
  H   H2924     1.0  0.63317  0.74195  0.87565  1.0000
  C   C1671     1.0  0.67500  0.83821  0.90366  1.0000
  Fe  Fe187     1.0  0.71462  0.74912  0.86179  1.0000
  H   H2925     1.0  0.75844  0.95523  0.66007  1.0000
  C   C1672     1.0  0.59578  0.82033  0.90748  1.0000
  H   H2926     1.0  0.95086  0.97073  0.51152  1.0000
  C   C1673     1.0  0.96612  0.84348  0.70130  1.0000
  H   H2927     1.0  0.71196  0.97446  0.56307  1.0000
  H   H2928     1.0  0.71171  0.97469  0.80003  1.0000
  H   H2929     1.0  0.53319  0.93481  0.51200  1.0000
  H   H2930     1.0  0.95167  0.80935  0.95149  1.0000
  H   H2931     1.0  0.97034  0.93030  0.76444  1.0000
  H   H2932     1.0  0.80237  0.88090  0.47732  1.0000
  H   H2933     1.0  0.81569  0.75949  0.77790  1.0000
  S   S378      1.0  0.47854  0.81638  0.93678  1.0000
  H   H2934     1.0  0.75488  0.87223  0.78728  1.0000
  H   H2935     1.0  0.96522  0.83512  0.65356  1.0000
  C   C1674     1.0  0.76315  0.90359  0.80371  1.0000
  H   H2936     1.0  0.77403  0.94751  0.79865  1.0000
  H   H2937     1.0  0.75939  0.97270  0.63197  1.0000
  H   H2938     1.0  0.80197  0.74622  0.89294  1.0000
  C   C1675     1.0  0.80001  0.75229  0.74495  1.0000
  Fe  Fe188     1.0  0.62213  0.94429  0.48569  1.0000
  H   H2939     1.0  0.51333  0.77153  0.92413  1.0000
  H   H2940     1.0  0.67444  0.92256  0.68308  1.0000
  H   H2941     1.0  0.62630  0.85390  0.90568  1.0000
  C   C1676     1.0  0.84855  0.95360  0.90766  1.0000
  C   C1677     1.0  0.72699  0.93285  0.87656  1.0000
  H   H2942     1.0  0.58020  0.83310  0.90332  1.0000
  C   C1678     1.0  0.69580  0.81952  0.90852  1.0000
  H   H2943     1.0  0.76365  0.85316  0.56461  1.0000
  C   C1679     1.0  0.92708  0.77940  0.70480  1.0000
  N   N93       1.0  0.64657  0.85457  0.87096  1.0000
  C   C1680     1.0  0.66803  0.83807  0.87766  1.0000
  C   C1681     1.0  0.64251  0.85318  0.84489  1.0000
  C   C1682     1.0  0.65201  0.87980  0.87393  1.0000
  H   H2944     1.0  0.96709  0.80272  0.65600  1.0000
  C   C1683     1.0  0.74895  0.76731  0.68822  1.0000
  H   H2945     1.0  0.76719  0.88394  0.50743  1.0000
  H   H2946     1.0  0.62361  0.85917  0.84171  1.0000
  C   C1684     1.0  0.73736  0.94595  0.83269  1.0000
  H   H2947     1.0  0.89765  0.74424  0.65071  1.0000
  N   N94       1.0  0.73627  0.94325  0.80632  1.0000
  C   C1685     1.0  0.64898  0.82876  0.83426  1.0000
  H   H2948     1.0  0.77033  0.90739  0.82049  1.0000
  H   H2949     1.0  0.68396  0.84242  0.86529  1.0000
  H   H2950     1.0  0.84764  0.95142  0.88837  1.0000
  H   H2951     1.0  0.66561  0.81923  0.87512  1.0000
  H   H2952     1.0  0.65358  0.86569  0.83310  1.0000
  H   H2953     1.0  0.66989  0.88329  0.86473  1.0000
  H   H2954     1.0  0.65309  0.88231  0.89318  1.0000
  H   H2955     1.0  0.55789  0.74623  0.94897  1.0000
  H   H2956     1.0  0.59726  0.73548  0.93412  1.0000
  H   H2957     1.0  0.92864  0.81545  0.71325  1.0000
  H   H2958     1.0  0.83448  0.94361  0.91824  1.0000
  H   H2959     1.0  0.68080  0.85581  0.90674  1.0000
  H   H2960     1.0  0.92690  0.96889  0.89598  1.0000
  H   H2961     1.0  0.60103  0.82303  0.92550  1.0000
  H   H2962     1.0  0.88294  0.77001  0.63527  1.0000
  H   H2963     1.0  0.75613  0.94700  0.83683  1.0000
  H   H2964     1.0  0.87329  0.74613  0.60376  1.0000
  C   C1686     1.0  0.77676  0.92982  0.62084  1.0000
  H   H2965     1.0  0.71477  0.94920  0.87913  1.0000
  C   C1687     1.0  0.48026  0.74388  0.95966  1.0000
  H   H2966     1.0  0.93575  0.76672  0.69202  1.0000
  H   H2967     1.0  0.91382  0.96894  0.64413  1.0000
  H   H2968     1.0  0.90793  0.78277  0.70150  1.0000
  H   H2969     1.0  0.73165  0.77736  0.69350  1.0000
  H   H2970     1.0  0.56053  0.92684  0.96185  1.0000
  C   C1688     1.0  0.96307  0.88886  0.69804  1.0000
  Fe  Fe189     1.0  0.67249  0.95981  0.48188  1.0000
  H   H2971     1.0  0.64606  0.81160  0.80191  1.0000
  H   H2972     1.0  0.70779  0.95635  0.53951  1.0000
  H   H2973     1.0  0.73802  0.93781  0.56727  1.0000
  C   C1689     1.0  0.55422  0.97056  0.93377  1.0000
  H   H2974     1.0  0.78818  0.92656  0.63604  1.0000
  C   C1690     1.0  0.54986  0.75816  0.91326  1.0000
  Fe  Fe190     1.0  0.66351  0.97205  0.90548  1.0000
  S   S379      1.0  0.96723  0.92557  0.64120  1.0000
  C   C1691     1.0  0.53127  0.77830  0.92032  1.0000
  H   H2975     1.0  0.66862  0.82479  0.83282  1.0000
  H   H2976     1.0  0.78377  0.94410  0.60788  1.0000
  H   H2977     1.0  0.76133  0.77997  0.67886  1.0000
  H   H2978     1.0  0.54456  0.75165  0.89675  1.0000
  H   H2979     1.0  0.56716  0.76612  0.90946  1.0000
  H   H2980     1.0  0.68972  0.92654  0.80972  1.0000
  C   C1692     1.0  0.62639  0.73877  0.89477  1.0000
  H   H2981     1.0  0.73494  0.91654  0.78141  1.0000
  C   C1693     1.0  0.80870  0.72795  0.88834  1.0000
  H   H2982     1.0  0.95509  0.88911  0.71684  1.0000
  C   C1694     1.0  0.72749  0.92603  0.85087  1.0000
  H   H2983     1.0  0.64107  0.81382  0.84542  1.0000
  H   H2984     1.0  0.82640  0.74060  0.92945  1.0000
  H   H2985     1.0  0.53602  0.78608  0.93646  1.0000
  N   N95       1.0  0.77418  0.76059  0.75128  1.0000
  C   C1695     1.0  0.77181  0.77915  0.76911  1.0000
  C   C1696     1.0  0.76358  0.77167  0.72872  1.0000
  H   H2986     1.0  0.93689  0.81044  0.68251  1.0000
  C   C1697     1.0  0.78566  0.80152  0.76134  1.0000
  H   H2987     1.0  0.65529  0.94509  0.69772  1.0000
  C   C1698     1.0  0.78467  0.81779  0.78162  1.0000
  H   H2988     1.0  0.53042  0.79270  0.90546  1.0000
  H   H2989     1.0  0.77709  0.77111  0.78688  1.0000
  H   H2990     1.0  0.75274  0.78585  0.77264  1.0000
  H   H2991     1.0  0.74631  0.78229  0.73299  1.0000
  H   H2992     1.0  0.77516  0.78508  0.71924  1.0000
  C   C1699     1.0  0.77052  0.95350  0.71005  1.0000
  H   H2993     1.0  0.58966  0.74172  0.88737  1.0000
  H   H2994     1.0  0.61592  0.89881  0.87464  1.0000
  S   S380      1.0  0.87210  0.96363  0.97269  1.0000
  H   H2995     1.0  0.77774  0.81206  0.74592  1.0000
  H   H2996     1.0  0.80476  0.79673  0.75595  1.0000
  H   H2997     1.0  0.68714  0.95115  0.82846  1.0000
  S   S381      1.0  0.69792  0.73180  0.89653  1.0000
  H   H2998     1.0  0.71164  0.82307  0.89583  1.0000
  H   H2999     1.0  0.79446  0.83371  0.77530  1.0000
  H   H3000     1.0  0.76594  0.82395  0.78721  1.0000
  H   H3001     1.0  0.79314  0.80827  0.79727  1.0000
  H   H3002     1.0  0.79342  0.84490  0.57337  1.0000
  C   C1700     1.0  0.78379  0.97363  0.70604  1.0000
  H   H3003     1.0  0.59136  0.85868  0.95426  1.0000
  C   C1701     1.0  0.80347  0.95774  0.53220  1.0000
  H   H3004     1.0  0.72545  0.75616  0.75461  1.0000
  H   H3005     1.0  0.70920  0.92239  0.84775  1.0000
  Fe  Fe191     1.0  0.49266  0.85126  0.94334  1.0000
  C   C1702     1.0  0.73849  0.91754  0.80045  1.0000
  H   H3006     1.0  0.77971  0.86725  0.80557  1.0000
  H   H3007     1.0  0.91006  0.75571  0.62141  1.0000
  H   H3008     1.0  0.80486  0.88563  0.56129  1.0000
  C   C1703     1.0  0.67411  0.93948  0.69172  1.0000
  H   H3009     1.0  0.73688  0.75097  0.93892  1.0000
  H   H3010     1.0  0.95143  0.84525  0.68933  1.0000
  C   C1704     1.0  0.77238  0.90033  0.49652  1.0000
  H   H3011     1.0  0.80916  0.76629  0.73330  1.0000
  Fe  Fe192     1.0  0.63713  0.93181  0.93481  1.0000
  H   H3012     1.0  0.65985  0.83400  0.91695  1.0000
  C   C1705     1.0  0.74887  0.95966  0.64354  1.0000
  S   S382      1.0  0.67573  0.93526  0.92141  1.0000
  H   H3013     1.0  0.77611  0.90888  0.78844  1.0000
  H   H3014     1.0  0.62477  0.75599  0.90307  1.0000
  H   H3015     1.0  0.70221  0.72571  0.77702  1.0000
  C   C1706     1.0  0.76167  0.87665  0.80408  1.0000
  H   H3016     1.0  0.73901  0.90908  0.84970  1.0000
  H   H3017     1.0  0.74485  0.92152  0.64205  1.0000
  C   C1707     1.0  0.75091  0.93678  0.62993  1.0000
  H   H3018     1.0  0.96505  0.95755  0.94923  1.0000
  H   H3019     1.0  0.77761  0.91308  0.61176  1.0000
  H   H3020     1.0  0.69075  0.80128  0.90660  1.0000
  C   C1708     1.0  0.53468  0.96158  0.48160  1.0000
  C   C1709     1.0  0.96608  0.94704  0.96676  1.0000
  H   H3021     1.0  0.72054  0.94552  0.68124  1.0000
  H   H3022     1.0  0.66965  0.95251  0.77824  1.0000
  H   H3023     1.0  0.85607  0.74079  0.95767  1.0000
  H   H3024     1.0  0.86621  0.94587  0.91325  1.0000
  C   C1710     1.0  0.72072  0.96696  0.54661  1.0000
  H   H3025     1.0  0.79493  0.87224  0.53663  1.0000
  H   H3026     1.0  0.56007  0.95551  0.92272  1.0000
  H   H3027     1.0  0.72464  0.90734  0.81100  1.0000
  H   H3028     1.0  0.70405  0.96220  0.62102  1.0000
  H   H3029     1.0  0.85105  0.73057  0.77364  1.0000
  N   N96       1.0  0.77702  0.92230  0.53408  1.0000
  C   C1711     1.0  0.79541  0.93410  0.54553  1.0000
  C   C1712     1.0  0.76967  0.90106  0.55054  1.0000
  C   C1713     1.0  0.78786  0.91494  0.51006  1.0000
  C   C1714     1.0  0.75508  0.93914  0.53023  1.0000
  C   C1715     1.0  0.74330  0.95127  0.55257  1.0000
  H   H3030     1.0  0.51583  0.96813  0.48583  1.0000
  H   H3031     1.0  0.74575  0.75430  0.67552  1.0000
  C   C1716     1.0  0.78904  0.87992  0.55385  1.0000
  C   C1717     1.0  0.77939  0.85993  0.57131  1.0000
  H   H3032     1.0  0.62861  0.93887  0.86072  1.0000
  H   H3033     1.0  0.56276  0.94329  0.50253  1.0000
  H   H3034     1.0  0.97333  0.90481  0.69371  1.0000
  H   H3035     1.0  0.81199  0.92191  0.54689  1.0000
  H   H3036     1.0  0.78906  0.93747  0.56432  1.0000
  H   H3037     1.0  0.76390  0.90653  0.56883  1.0000
  H   H3038     1.0  0.75371  0.89401  0.54447  1.0000
  H   H3039     1.0  0.80559  0.90478  0.51181  1.0000
  H   H3040     1.0  0.79163  0.93098  0.49770  1.0000
  H   H3041     1.0  0.75906  0.95337  0.51579  1.0000
  H   H3042     1.0  0.74098  0.92959  0.52361  1.0000
  H   H3043     1.0  0.60879  0.86138  0.88140  1.0000
  H   H3044     1.0  0.81093  0.73351  0.96870  1.0000
  H   H3045     1.0  0.63133  0.81019  0.89314  1.0000
  C   C1718     1.0  0.54371  0.95007  0.50514  1.0000
  H   H3046     1.0  0.72052  0.91810  0.88928  1.0000
  H   H3047     1.0  0.70077  0.82014  0.92707  1.0000
  H   H3048     1.0  0.86665  0.96740  0.71153  1.0000
  H   H3049     1.0  0.95906  0.92958  0.96519  1.0000
  H   H3050     1.0  0.54176  0.96323  0.51883  1.0000
  H   H3051     1.0  0.95576  0.91935  0.54928  1.0000
  H   H3052     1.0  0.53453  0.97424  0.93408  1.0000
  C   C1719     1.0  0.68436  0.95897  0.67405  1.0000
  H   H3053     1.0  0.77677  0.74428  0.70416  1.0000
  H   H3054     1.0  0.80114  0.97232  0.69606  1.0000
  C   C1720     1.0  0.56169  0.96486  0.95920  1.0000
  H   H3055     1.0  0.75589  0.91123  0.49158  1.0000
  H   H3056     1.0  0.81156  0.72808  0.86852  1.0000
  S   S383      1.0  0.75174  0.73223  0.86690  1.0000
  H   H3057     1.0  0.74697  0.74095  0.71793  1.0000
  H   H3058     1.0  0.76888  0.73190  0.77923  1.0000
  H   H3059     1.0  0.53338  0.73335  0.94009  1.0000
  C   C1721     1.0  0.71333  0.95533  0.79750  1.0000
  H   H3060     1.0  0.78818  0.97133  0.52984  1.0000
  H   H3061     1.0  0.72786  0.96331  0.83740  1.0000
  S   S384      1.0  0.64096  0.94682  0.96967  1.0000
  H   H3062     1.0  0.75559  0.96280  0.55927  1.0000
  H   H3063     1.0  0.88109  0.95546  0.51550  1.0000
  C   C1722     1.0  0.73424  0.74425  0.76854  1.0000
  C   C1723     1.0  0.66833  0.95752  0.79698  1.0000
  C   C1724     1.0  0.60215  0.72843  0.89649  1.0000
  H   H3064     1.0  0.97366  0.78262  0.69942  1.0000
  H   H3065     1.0  0.83751  0.95584  0.54803  1.0000
  H   H3066     1.0  0.65168  0.95117  0.80654  1.0000
  H   H3067     1.0  0.88811  0.96056  0.55759  1.0000
  C   C1725     1.0  0.55117  0.94185  0.97146  1.0000
  H   H3068     1.0  0.85132  0.95770  0.75310  1.0000
  H   H3069     1.0  0.71928  0.86516  0.48192  1.0000
  C   C1726     1.0  0.95927  0.79126  0.95792  1.0000
  H   H3070     1.0  0.58150  0.96248  0.95809  1.0000
  C   C1727     1.0  0.87829  0.73654  0.62099  1.0000
  H   H3071     1.0  0.87567  0.72991  0.92110  1.0000
  C   C1728     1.0  0.82134  0.96845  0.54596  1.0000
  H   H3072     1.0  0.93532  0.97374  0.47351  1.0000
