data_image0
_chemical_formula_structural       CS2FeS2FeSCFeSFeS3CH2SCHFeS2HCH2CHC6H5C7H4C2H2C2H3CHCHFeHCH9SCH2CHCH3CH2CHCH8FeCH2NC12H28CNC8FeC3H2CH10FeH2CH3SNH4C4H3C3SCHCSH4C2SCHSH2CHCH14CNC3H3CH3CHSCH6C2HC2HNH6CHSH4C2H3CH2C2H3CH4C2H3CHSCH3SHFeSH2CHFeSH2SH2FeS2FeSHCH8CHCFeC4HC7H4CH2NH3CHC2H2CHSH3CHCH3SH2CFeH2CHCHNH6CH2C2HCH4CH2CH2CHC2HC2HCNH2C4HCHCH6CHC2HC2H7CHCSH4CH3SH2CHC3H3SHNH6C2SFeH2C3H4FeSHFeS2FeSFeS3HSH2CFeS5FeS3FeSFeSCHC2H2CH2C6H6SH2SHC7H4CHC4HC6H4NH2CH3NHSCHC3H2SH8CH2NC4HC4HC2H7CH13C2H9NC11H13C2H4CH16NC3FeHC2FeC4HFeH4CH3CH14C2H2CH2C3H2C2H3CSH2SC2H5C2HCH3C2H2CH3CH6FeNC2H4CH2C4HCH2CH2SH2FeC2H2CHFeCH2C2H4C2H2C3HC3HCHCHNFeS4FeHC4FeH3NHCHFeS3FeS2FeSFeHSFeS2FeSFeSFeS2Fe2HSH2C9H4C3H2C6H5CH3C7H5SHSFeH2CHC6H4C2H8CSNC5HCH11CH4CH2SH6CHC3HC3H5C2H5C4H7C3HC5H12CHC2HCH2CHSFeH3CH5CHNHCH11C2HS2C4H3CNCSC2H5SCHCHCH2CSCH3CH7C2H2CH2CSH5SH2CH2CNH4CH2FeH3CH3CH4C2FeH3SH4C2HCHCHC2H2CH2CH2C2H8C2H2NCH3CHSH3CHNCH2C2HCNHCH2CH3CH2CHNCH7CH2CHSC3H3CSH2CHCHC2SH2CH2CH2FeS2HCH3CH6C2H6CSCSHCS2FeS2FeS2FeSFeHS2H4CH2C7H5C2NHFeH7CHCH2CH2CHCFeC2HFeH3CHCHCHCH2SH2CHCH7SC3H4CHCHC2H2NH5CHCH3CH3CH4C2HCH3CSCHC2H6CH3CSC2H5CHSCS2FeHSFeSH2CH2CHS2HCHSHCH5C6H2C2H2CHCH3CH3CH3C2FeNH3CHCHSC4FeHC3SCH6CH2C2HCHCH6FeHSH3C2H3CHC2H2SCNH4C2HCHNC2HSHCH2C2H3C2H8FeH2SH2CS2FeS2FeHSCHFeS3H3SHCHC2H5C3H3CH2C6H4C3HCH3CH5CHC2HCH3NCH2C3H5CH5NFeHSHC2HFeH9CHC3H2CH2CH3CHC3H4CHCHCHCH2CH2NCH6CH3C2H4FeH4C2H3C2SC5HCHC2HC2HSHCHFeCH2C2H4CHCH12C2H5CH3CHC3H2CH5C2H2CH2SH4CNCH3C3HCHCH2CFeH2SHCH5CHC2SHCHC2HSH2CH4SHCH2CHC2H2NH3CH4C3H2CH3C2H3CH3SH4CHFeCNHC2HC2NC2H7CSH2SH2CSHCHCHSCH6SHCH7FeH2FeHCH2SCHCHCHCH4FeCHCHS2CHCH2FeCHC2HC2HCHSC2H2FeH3CHC4H2CHCH2CSFeS2FeSCFeSFeS3HCHFeSFeSHSNSCH5C3H2C6H6C7H7NC11H27CH2CH3FeCH3CH2CHC2H7CH2CH2CHCH3CHCSH2CH2C2HC2HCHC3FeH2CNHCH3C2H3C2NCH3CH3C2SHFeSCH3C3H13CHCH3CHSCH3CH6CH3CH3FeS2FeSFeSHSHFeS2HCHFeSFeHC2HFeC3H5SCHFeCSCH2C7H3C6H5NC12H27CHCH4CH5SH2C3HSH5SCH3CH2CHCHCH2CH3SCH2SCHC2HC2H5FeCH4CHCH2CSH3C2NH3C4HNH6SHCHSHC2H4CHC3H7C4H2CH2CHFeHC5H2C2HCH12CH4NC3H3S2H2CH2CH2C2HNCH7CH2C2HCH3SHCS2HCSH4FeHSFeHSHC3HSHCHC4H4CH2CH2NHCH3C5HCH5C6H3C2HCH3CH5CHCH8CH6CH3CH4CHFe2CHC2H3CH5CHFeSCFeSH2SFe2SFeSHFeS2FeSFeS3C2SCH2SHFeS2FeSFeSFeS3HCSHS2H2C6H4CH2C6H4C6H4CHCH2C6H3SC6H3SH4CHC6HCH2CH8CH3C2H2CSC2SCH2CH3CHCHSH4CH2C4HCH3CHC2HCHCHCH2CHNC10H24FeH6CH4CHC2HNC5HCH12NH11SCHFeH6CH4SH4CHCH3CH4NC10HCH19C2H7SH2FeH2CNCHFeH2C2HCH9SC3H2SH2SHS2FeS2FeCFeSFeSH4FeS2H3SHFeCHFeS2FeS2FeSFeS3CSCSHSHCHC7H7C2SHC6H2C6H5CFeC2H4CFeC2HCH3C4H2C3H2CH2CH2NHSH6C2HCH3CH2CH3C3H2NH4CSH2FeHC3HCNHC4HC6H8CHCH3CH2CH10C3HCHC2H4CHSH2C2H11CH2SHCHCH2NH2CHNH5CHC2HC4H6CH2CH3NH3NC10H20C2H10CH4C2FeH2C3H5C2HCHCH4CHCH3CHCH2CHC2NHCH2CHCH2FeC2HCSHCH2C6H3CFeCHC2H2CSHCNH2C3H5FeCHC2H2SCH5NH5CH7FeCSH2CHCSFeSH2SCFeSFeS2H2C2H2C2H3CH3C6H4CHCH3SH2C2H2CSCH4NCH3CH3CHCHCH3SH2CH7C3SNH4C5HCH2CH2CH7C3NC6HCH8CNH4CH2CH8CHC2H3CH3CHCH7C2H2CH2C2NH2CH3CH3C3H3C4H2CH2S3FeS2FeS2FeSFeS3HSC3H2C4H3C6H4CH3C6H4CH2C2HNC12H3SH12FeHCH8CH2SCH4CHCH7CH2CHCH4Fe2HS2CFeCH3NHCHCH3NSCH2CH4C2H3CH5SH3C4HCH3SH3CHCH2CH2CH6CH2C3NH2CH12FeH2CH2C2H2CH2CH2C3HCH2C2H5CHCH2C4H2CHCH13CH2SCHC2N
_chemical_formula_sum              "C1296 S288 Fe144 H2304 N72"
_cell_length_a       61.7208
_cell_length_b       69.9415
_cell_length_c       32.2252
_cell_angle_alpha    85.1045
_cell_angle_beta     87.5758
_cell_angle_gamma    107.841

_space_group_name_H-M_alt    "P 1"
_space_group_IT_number       1

loop_
  _space_group_symop_operation_xyz
  'x, y, z'

loop_
  _atom_site_type_symbol
  _atom_site_label
  _atom_site_symmetry_multiplicity
  _atom_site_fract_x
  _atom_site_fract_y
  _atom_site_fract_z
  _atom_site_occupancy
  C   C1        1.0  0.30542  0.09575  0.50906  1.0000
  S   S1        1.0  0.27723  0.07900  0.07745  1.0000
  S   S2        1.0  0.33878  0.07442  0.07579  1.0000
  Fe  Fe1       1.0  0.26188  0.04843  0.32265  1.0000
  S   S3        1.0  0.28295  0.07905  0.33682  1.0000
  S   S4        1.0  0.24175  0.04474  0.26531  1.0000
  Fe  Fe2       1.0  0.27272  0.02716  0.40226  1.0000
  S   S5        1.0  0.29529  0.05624  0.42190  1.0000
  C   C2        1.0  0.39322  0.06172  0.28166  1.0000
  Fe  Fe3       1.0  0.26788  0.06921  0.40218  1.0000
  S   S6        1.0  0.26021  0.09148  0.44201  1.0000
  Fe  Fe4       1.0  0.30837  0.06356  0.35496  1.0000
  S   S7        1.0  0.34471  0.08101  0.33531  1.0000
  S   S8        1.0  0.24405  0.03954  0.38748  1.0000
  S   S9        1.0  0.28844  0.03341  0.33596  1.0000
  C   C3        1.0  0.35038  0.04219  0.44766  1.0000
  H   H1        1.0  0.40063  0.02933  0.47910  1.0000
  H   H2        1.0  0.41737  0.12484  0.36677  1.0000
  S   S10       1.0  0.98331  0.21120  0.42817  1.0000
  C   C4        1.0  0.38506  0.04079  0.29188  1.0000
  H   H3        1.0  0.20510  0.04355  0.33019  1.0000
  Fe  Fe5       1.0  0.28688  0.20071  0.36129  1.0000
  S   S11       1.0  0.25983  0.17353  0.34257  1.0000
  S   S12       1.0  0.31481  0.19626  0.39968  1.0000
  H   H4        1.0  0.97678  0.21190  0.17764  1.0000
  C   C5        1.0  0.38092  0.07401  0.29576  1.0000
  H   H5        1.0  0.99019  0.20932  0.31053  1.0000
  H   H6        1.0  0.34362  0.21381  0.24432  1.0000
  C   C6        1.0  0.37710  0.22161  0.26741  1.0000
  H   H7        1.0  0.38729  0.09018  0.28757  1.0000
  C   C7        1.0  0.25932  0.11403  0.41453  1.0000
  C   C8        1.0  0.25185  0.11426  0.37413  1.0000
  C   C9        1.0  0.25128  0.13248  0.35285  1.0000
  C   C10       1.0  0.25912  0.15065  0.37104  1.0000
  C   C11       1.0  0.26659  0.15038  0.41139  1.0000
  C   C12       1.0  0.26636  0.13207  0.43331  1.0000
  H   H8        1.0  0.24603  0.10033  0.35978  1.0000
  H   H9        1.0  0.24481  0.13254  0.32228  1.0000
  H   H10       1.0  0.27202  0.16421  0.42615  1.0000
  H   H11       1.0  0.27188  0.13194  0.46472  1.0000
  H   H12       1.0  0.17524  0.04047  0.33947  1.0000
  C   C13       1.0  0.36167  0.22049  0.23618  1.0000
  C   C14       1.0  0.26872  0.06753  0.12917  1.0000
  C   C15       1.0  0.24551  0.06199  0.14196  1.0000
  C   C16       1.0  0.23778  0.05473  0.18348  1.0000
  C   C17       1.0  0.25315  0.05321  0.21329  1.0000
  C   C18       1.0  0.27649  0.05842  0.20080  1.0000
  C   C19       1.0  0.28427  0.06544  0.15857  1.0000
  H   H13       1.0  0.23341  0.06358  0.11961  1.0000
  H   H14       1.0  0.21975  0.05067  0.19268  1.0000
  H   H15       1.0  0.28850  0.05716  0.22357  1.0000
  H   H16       1.0  0.30227  0.06979  0.14908  1.0000
  C   C20       1.0  0.36023  0.06538  0.31961  1.0000
  C   C21       1.0  0.35206  0.04446  0.33014  1.0000
  H   H17       1.0  0.33623  0.03774  0.34900  1.0000
  H   H18       1.0  0.35966  0.06672  0.20071  1.0000
  C   C22       1.0  0.40048  0.22989  0.25659  1.0000
  C   C23       1.0  0.30444  0.21920  0.14109  1.0000
  H   H19       1.0  0.28859  0.21876  0.12561  1.0000
  H   H20       1.0  0.36443  0.00141  0.18039  1.0000
  H   H21       1.0  0.33803  0.09627  0.48307  1.0000
  C   C24       1.0  0.18865  0.03316  0.34494  1.0000
  H   H22       1.0  0.39001  0.18628  0.06980  1.0000
  C   C25       1.0  0.18245  0.01303  0.32598  1.0000
  H   H23       1.0  0.33432  0.03167  0.22631  1.0000
  Fe  Fe6       1.0  0.31262  0.22378  0.42945  1.0000
  H   H24       1.0  0.33950  0.04276  0.15079  1.0000
  C   C26       1.0  0.00602  0.20872  0.29364  1.0000
  H   H25       1.0  0.29200  0.01852  0.06630  1.0000
  H   H26       1.0  0.45253  0.21350  0.06633  1.0000
  H   H27       1.0  0.45409  0.00547  0.42033  1.0000
  H   H28       1.0  0.34924  0.05774  0.44745  1.0000
  H   H29       1.0  0.22963  0.10608  0.08548  1.0000
  H   H30       1.0  0.39297  0.10242  0.37301  1.0000
  H   H31       1.0  0.98975  0.19978  0.23801  1.0000
  H   H32       1.0  0.36063  0.10205  0.15881  1.0000
  H   H33       1.0  0.20224  0.01369  0.24123  1.0000
  S   S13       1.0  0.36818  0.21134  0.31949  1.0000
  C   C27       1.0  0.99383  0.22148  0.16326  1.0000
  H   H34       1.0  0.43240  0.22569  0.08349  1.0000
  H   H35       1.0  0.37492  0.07089  0.14997  1.0000
  C   C28       1.0  0.39400  0.01358  0.49125  1.0000
  H   H36       1.0  0.38127  0.20036  0.41269  1.0000
  C   C29       1.0  0.34632  0.99552  0.17231  1.0000
  H   H37       1.0  0.32019  0.18285  0.09844  1.0000
  H   H38       1.0  0.36912  0.11724  0.44666  1.0000
  H   H39       1.0  0.04128  0.22828  0.16041  1.0000
  C   C30       1.0  0.00578  0.22913  0.49377  1.0000
  H   H40       1.0  0.36190  0.15579  0.21595  1.0000
  H   H41       1.0  0.18126  0.23963  0.46079  1.0000
  C   C31       1.0  0.36455  0.03217  0.31645  1.0000
  H   H42       1.0  0.30993  0.15649  0.11959  1.0000
  C   C32       1.0  0.98473  0.21814  0.47981  1.0000
  H   H43       1.0  0.23480  0.01053  0.19758  1.0000
  H   H44       1.0  0.42723  0.21145  0.03873  1.0000
  H   H45       1.0  0.39702  0.19548  0.17668  1.0000
  H   H46       1.0  0.40476  0.17307  0.18243  1.0000
  H   H47       1.0  0.18080  0.01619  0.29235  1.0000
  H   H48       1.0  0.40199  0.15374  0.12696  1.0000
  H   H49       1.0  0.35879  0.04084  0.51160  1.0000
  H   H50       1.0  0.38809  0.11506  0.13165  1.0000
  Fe  Fe7       1.0  0.33766  0.21772  0.34868  1.0000
  C   C33       1.0  0.35382  0.03991  0.16724  1.0000
  H   H51       1.0  0.40904  0.06841  0.26256  1.0000
  H   H52       1.0  0.98114  0.21015  0.06150  1.0000
  N   N1        1.0  0.26523  0.12273  0.21114  1.0000
  C   C34       1.0  0.25602  0.12856  0.17094  1.0000
  C   C35       1.0  0.27129  0.14081  0.23595  1.0000
  C   C36       1.0  0.28590  0.11632  0.20097  1.0000
  C   C37       1.0  0.24770  0.10543  0.23700  1.0000
  C   C38       1.0  0.22374  0.10780  0.24462  1.0000
  C   C39       1.0  0.24691  0.11144  0.14251  1.0000
  C   C40       1.0  0.29617  0.10826  0.23918  1.0000
  C   C41       1.0  0.29282  0.15854  0.21898  1.0000
  C   C42       1.0  0.29371  0.17796  0.23826  1.0000
  C   C43       1.0  0.20826  0.08994  0.27362  1.0000
  C   C44       1.0  0.23538  0.11848  0.10580  1.0000
  C   C45       1.0  0.32010  0.10733  0.22844  1.0000
  H   H53       1.0  0.26944  0.14057  0.15129  1.0000
  H   H54       1.0  0.24226  0.13535  0.17745  1.0000
  H   H55       1.0  0.25673  0.14702  0.23833  1.0000
  H   H56       1.0  0.27390  0.13641  0.26887  1.0000
  H   H57       1.0  0.29936  0.12864  0.18197  1.0000
  H   H58       1.0  0.28154  0.10373  0.18090  1.0000
  H   H59       1.0  0.24557  0.09104  0.22296  1.0000
  H   H60       1.0  0.25379  0.10288  0.26846  1.0000
  H   H61       1.0  0.21537  0.10832  0.21494  1.0000
  H   H62       1.0  0.22480  0.12179  0.25932  1.0000
  H   H63       1.0  0.26116  0.10688  0.12904  1.0000
  H   H64       1.0  0.23426  0.09798  0.15968  1.0000
  H   H65       1.0  0.28522  0.09266  0.25000  1.0000
  H   H66       1.0  0.29700  0.11755  0.26550  1.0000
  H   H67       1.0  0.30847  0.15462  0.22643  1.0000
  H   H68       1.0  0.29333  0.16200  0.18478  1.0000
  H   H69       1.0  0.27895  0.18306  0.22979  1.0000
  H   H70       1.0  0.29349  0.17578  0.27273  1.0000
  H   H71       1.0  0.30964  0.19005  0.22651  1.0000
  H   H72       1.0  0.21533  0.08928  0.30468  1.0000
  H   H73       1.0  0.19105  0.09168  0.27810  1.0000
  H   H74       1.0  0.20652  0.07550  0.26003  1.0000
  H   H75       1.0  0.29596  0.08233  0.49377  1.0000
  H   H76       1.0  0.98467  0.23193  0.24896  1.0000
  H   H77       1.0  0.35404  0.17609  0.06418  1.0000
  H   H78       1.0  0.32041  0.09908  0.20056  1.0000
  H   H79       1.0  0.33226  0.12282  0.22273  1.0000
  H   H80       1.0  0.32566  0.09928  0.25515  1.0000
  C   C46       1.0  0.34612  0.03155  0.49210  1.0000
  N   N2        1.0  0.34516  0.12935  0.41478  1.0000
  C   C47       1.0  0.33896  0.13277  0.37062  1.0000
  C   C48       1.0  0.36355  0.11921  0.41464  1.0000
  C   C49       1.0  0.32429  0.11473  0.43919  1.0000
  C   C50       1.0  0.35246  0.14862  0.43596  1.0000
  C   C51       1.0  0.36443  0.16859  0.40774  1.0000
  C   C52       1.0  0.31738  0.13948  0.36640  1.0000
  C   C53       1.0  0.32803  0.10701  0.48416  1.0000
  C   C54       1.0  0.38574  0.12998  0.38679  1.0000
  Fe  Fe8       1.0  0.33753  0.04904  0.03691  1.0000
  C   C55       1.0  0.37335  0.18626  0.43380  1.0000
  C   C56       1.0  0.31784  0.15126  0.32413  1.0000
  C   C57       1.0  0.20030  0.00186  0.33451  1.0000
  H   H81       1.0  0.33598  0.11867  0.35491  1.0000
  H   H82       1.0  0.35328  0.14405  0.35143  1.0000
  C   C58       1.0  0.37022  0.11522  0.13649  1.0000
  H   H83       1.0  0.35651  0.10368  0.40504  1.0000
  H   H84       1.0  0.31713  0.10124  0.42207  1.0000
  H   H85       1.0  0.31038  0.12169  0.44209  1.0000
  H   H86       1.0  0.33746  0.15118  0.45235  1.0000
  H   H87       1.0  0.36389  0.14723  0.46110  1.0000
  H   H88       1.0  0.35223  0.17254  0.38698  1.0000
  H   H89       1.0  0.37892  0.16755  0.38769  1.0000
  H   H90       1.0  0.30212  0.12583  0.36946  1.0000
  H   H91       1.0  0.31536  0.14908  0.39104  1.0000
  H   H92       1.0  0.35914  0.18839  0.45330  1.0000
  Fe  Fe9       1.0  0.30866  0.07676  0.04216  1.0000
  H   H93       1.0  0.38232  0.13318  0.35388  1.0000
  H   H94       1.0  0.36210  0.11370  0.10637  1.0000
  C   C59       1.0  0.40143  0.11677  0.38640  1.0000
  H   H95       1.0  0.33728  0.11974  0.50152  1.0000
  H   H96       1.0  0.16537  0.00382  0.34025  1.0000
  H   H97       1.0  0.31973  0.01220  0.28495  1.0000
  S   S14       1.0  0.36268  0.21946  0.05065  1.0000
  N   N3        1.0  0.00258  0.23963  0.18730  1.0000
  H   H98       1.0  0.33088  0.16640  0.32222  1.0000
  H   H99       1.0  0.32170  0.14301  0.29835  1.0000
  H   H100      1.0  0.30091  0.15334  0.32075  1.0000
  H   H101      1.0  0.36772  0.04316  0.43477  1.0000
  C   C60       1.0  0.98375  0.20647  0.09479  1.0000
  C   C61       1.0  0.40848  0.23738  0.21529  1.0000
  C   C62       1.0  0.36978  0.22765  0.19426  1.0000
  C   C63       1.0  0.32051  0.16735  0.09398  1.0000
  H   H102      1.0  0.39525  0.14421  0.39931  1.0000
  H   H103      1.0  0.36412  0.03426  0.14517  1.0000
  H   H104      1.0  0.31517  0.01222  0.14556  1.0000
  C   C64       1.0  0.26989  0.23947  0.05967  1.0000
  C   C65       1.0  0.99076  0.22588  0.11625  1.0000
  C   C66       1.0  0.39055  0.99850  0.46359  1.0000
  S   S15       1.0  0.33898  0.01819  0.06061  1.0000
  C   C67       1.0  0.39536  0.18960  0.10156  1.0000
  H   H105      1.0  0.02093  0.22032  0.30408  1.0000
  C   C68       1.0  0.30911  0.23472  0.17281  1.0000
  S   S16       1.0  0.28283  0.22654  0.39466  1.0000
  H   H106      1.0  0.35807  0.22655  0.16996  1.0000
  H   H107      1.0  0.00496  0.21171  0.16545  1.0000
  H   H108      1.0  0.38439  0.05826  0.19326  1.0000
  H   H109      1.0  0.31780  0.04285  0.50338  1.0000
  C   C69       1.0  0.34467  0.02479  0.20690  1.0000
  C   C70       1.0  0.37279  0.17163  0.21555  1.0000
  S   S17       1.0  0.40026  0.02588  0.27130  1.0000
  C   C71       1.0  0.36909  0.06019  0.17867  1.0000
  H   H110      1.0  0.40599  0.11323  0.41850  1.0000
  S   S18       1.0  0.31002  0.22120  0.30908  1.0000
  H   H111      1.0  0.35812  0.01606  0.32431  1.0000
  H   H112      1.0  0.41251  0.23062  0.28036  1.0000
  C   C72       1.0  0.34494  0.16644  0.09242  1.0000
  H   H113      1.0  0.38050  0.15093  0.09176  1.0000
  C   C73       1.0  0.32136  0.02824  0.50978  1.0000
  H   H114      1.0  0.34628  0.00114  0.13903  1.0000
  H   H115      1.0  0.34407  0.15061  0.08849  1.0000
  H   H116      1.0  0.35129  0.13402  0.15628  1.0000
  H   H117      1.0  0.31902  0.22291  0.11722  1.0000
  H   H118      1.0  0.29468  0.22981  0.19707  1.0000
  H   H119      1.0  0.39455  0.00266  0.43037  1.0000
  H   H120      1.0  0.34553  0.16345  0.15870  1.0000
  H   H121      1.0  0.39269  0.20433  0.10657  1.0000
  H   H122      1.0  0.37228  0.17020  0.28320  1.0000
  H   H123      1.0  0.30225  0.20396  0.15696  1.0000
  H   H124      1.0  0.22522  0.99741  0.46214  1.0000
  H   H125      1.0  0.36140  0.18123  0.21596  1.0000
  H   H126      1.0  0.35580  0.18881  0.13673  1.0000
  H   H127      1.0  0.35957  0.02452  0.22501  1.0000
  C   C74       1.0  0.35674  0.17339  0.13263  1.0000
  N   N4        1.0  0.38119  0.17336  0.13445  1.0000
  C   C75       1.0  0.38498  0.17332  0.25602  1.0000
  C   C76       1.0  0.38396  0.15348  0.12478  1.0000
  C   C77       1.0  0.36943  0.13469  0.15350  1.0000
  H   H128      1.0  0.42862  0.19478  0.12983  1.0000
  H   H129      1.0  0.39706  0.18873  0.25667  1.0000
  H   H130      1.0  0.37620  0.13486  0.18487  1.0000
  C   C78       1.0  0.39004  0.17875  0.17653  1.0000
  H   H131      1.0  0.39456  0.16222  0.25914  1.0000
  H   H132      1.0  0.15376  0.24513  0.51684  1.0000
  H   H133      1.0  0.38645  0.18368  0.45422  1.0000
  C   C79       1.0  0.00465  0.21209  0.24641  1.0000
  H   H134      1.0  0.19157  0.22358  0.49679  1.0000
  S   S19       1.0  0.31728  0.23181  0.49604  1.0000
  C   C80       1.0  0.31268  0.99910  0.05883  1.0000
  H   H135      1.0  0.46144  0.02167  0.48720  1.0000
  H   H136      1.0  0.02026  0.21054  0.23081  1.0000
  H   H137      1.0  0.42524  0.18008  0.08584  1.0000
  H   H138      1.0  0.21758  0.01294  0.32710  1.0000
  H   H139      1.0  0.29462  0.10578  0.51166  1.0000
  H   H140      1.0  0.24755  0.13172  0.08679  1.0000
  C   C81       1.0  0.29212  0.00362  0.06039  1.0000
  C   C82       1.0  0.42147  0.19301  0.09889  1.0000
  H   H141      1.0  0.00789  0.19360  0.30209  1.0000
  C   C83       1.0  0.45430  0.00682  0.50626  1.0000
  C   C84       1.0  0.27399  0.23503  0.50887  1.0000
  H   H142      1.0  0.00669  0.23606  0.09943  1.0000
  N   N5        1.0  0.33113  0.00352  0.19944  1.0000
  H   H143      1.0  0.43550  0.00395  0.50821  1.0000
  H   H144      1.0  0.26944  0.22621  0.48282  1.0000
  H   H145      1.0  0.22027  0.12253  0.11709  1.0000
  H   H146      1.0  0.30969  0.01798  0.49010  1.0000
  H   H147      1.0  0.97692  0.23279  0.11257  1.0000
  H   H148      1.0  0.02100  0.23321  0.47279  1.0000
  C   C85       1.0  0.00156  0.23297  0.23362  1.0000
  H   H149      1.0  0.18999  0.03080  0.37915  1.0000
  S   S20       1.0  0.27241  0.99841  0.44105  1.0000
  H   H150      1.0  0.33773  0.03368  0.42701  1.0000
  H   H151      1.0  0.26251  0.24165  0.26559  1.0000
  H   H152      1.0  0.34923  0.01680  0.49097  1.0000
  H   H153      1.0  0.26104  0.22347  0.06635  1.0000
  C   C86       1.0  0.43411  0.21207  0.07005  1.0000
  C   C87       1.0  0.39325  0.23636  0.18403  1.0000
  H   H154      1.0  0.31295  0.16319  0.06404  1.0000
  H   H155      1.0  0.30188  0.01420  0.19335  1.0000
  H   H156      1.0  0.99727  0.19904  0.09601  1.0000
  C   C88       1.0  0.29619  0.23982  0.52178  1.0000
  H   H157      1.0  0.21015  0.00899  0.16867  1.0000
  H   H158      1.0  0.27010  0.99919  0.14116  1.0000
  C   C89       1.0  0.21700  0.00116  0.19390  1.0000
  C   C90       1.0  0.31023  0.00443  0.17769  1.0000
  H   H159      1.0  0.29483  0.00039  0.25826  1.0000
  H   H160      1.0  0.19916  0.99831  0.36909  1.0000
  H   H161      1.0  0.32482  0.23417  0.18702  1.0000
  C   C91       1.0  0.30983  0.99797  0.27282  1.0000
  H   H162      1.0  0.45349  0.04573  0.52112  1.0000
  H   H163      1.0  0.32439  0.99706  0.44061  1.0000
  H   H164      1.0  0.27973  0.03431  0.52253  1.0000
  H   H165      1.0  0.24011  0.23688  0.52083  1.0000
  C   C92       1.0  0.25733  0.24098  0.53068  1.0000
  C   C93       1.0  0.20221  0.99845  0.23460  1.0000
  H   H166      1.0  0.22934  0.99865  0.27393  1.0000
  H   H167      1.0  0.04802  0.23946  0.20880  1.0000
  H   H168      1.0  0.01437  0.24441  0.24939  1.0000
  C   C94       1.0  0.04537  0.24253  0.17536  1.0000
  H   H169      1.0  0.42664  0.24400  0.20756  1.0000
  S   S21       1.0  0.33921  0.24457  0.38299  1.0000
  C   C95       1.0  0.19350  0.23946  0.48501  1.0000
  H   H170      1.0  0.02001  0.21870  0.91207  1.0000
  H   H171      1.0  0.33314  0.02017  0.92005  1.0000
  H   H172      1.0  0.18172  0.22841  0.69167  1.0000
  S   S22       1.0  0.42557  0.03302  0.67314  1.0000
  H   H173      1.0  0.34631  0.04153  0.57701  1.0000
  Fe  Fe10      1.0  0.40027  0.03333  0.72580  1.0000
  S   S23       1.0  0.40531  0.05787  0.76958  1.0000
  H   H174      1.0  0.28614  0.00611  0.59761  1.0000
  H   H175      1.0  0.27080  0.02756  0.87249  1.0000
  C   C96       1.0  0.24714  0.01341  0.94784  1.0000
  H   H176      1.0  0.43989  0.21327  0.80201  1.0000
  Fe  Fe11      1.0  0.39469  0.01888  0.63816  1.0000
  S   S24       1.0  0.30625  0.05033  0.00630  1.0000
  H   H177      1.0  0.45928  0.02275  0.60424  1.0000
  H   H178      1.0  0.44183  0.19888  0.85005  1.0000
  S   S25       1.0  0.32873  0.09870  0.98834  1.0000
  H   H179      1.0  0.97969  0.21374  0.89428  1.0000
  H   H180      1.0  0.47297  0.02856  0.70082  1.0000
  Fe  Fe12      1.0  0.33009  0.07154  0.95633  1.0000
  S   S26       1.0  0.32342  0.06398  0.88978  1.0000
  S   S27       1.0  0.36151  0.06892  0.98520  1.0000
  Fe  Fe13      1.0  0.38410  0.23012  0.99061  1.0000
  S   S28       1.0  0.39754  0.20998  0.95303  1.0000
  H   H181      1.0  0.98694  0.23875  0.78130  1.0000
  C   C97       1.0  0.33345  0.05305  0.64966  1.0000
  H   H182      1.0  0.43865  0.00347  0.90873  1.0000
  H   H183      1.0  0.42785  0.15631  0.00443  1.0000
  H   H184      1.0  0.25458  0.21940  0.86506  1.0000
  H   H185      1.0  0.46675  0.99638  0.85950  1.0000
  H   H186      1.0  0.43091  0.19099  0.97517  1.0000
  H   H187      1.0  0.28440  0.21101  0.95820  1.0000
  H   H188      1.0  0.32887  0.06655  0.63750  1.0000
  H   H189      1.0  0.24502  0.00819  0.86814  1.0000
  C   C98       1.0  0.02512  0.22013  0.87817  1.0000
  H   H190      1.0  0.25584  0.22352  0.93080  1.0000
  C   C99       1.0  0.39114  0.14573  0.00806  1.0000
  Fe  Fe14      1.0  0.42121  0.00133  0.70004  1.0000
  C   C100      1.0  0.41425  0.18004  0.98309  1.0000
  C   C101      1.0  0.39461  0.18556  0.97672  1.0000
  C   C102      1.0  0.37310  0.17113  0.98637  1.0000
  C   C103      1.0  0.37136  0.15117  0.00176  1.0000
  H   H191      1.0  0.35784  0.17520  0.98085  1.0000
  C   C104      1.0  0.32545  0.00352  0.56737  1.0000
  C   C105      1.0  0.38217  0.05991  0.80155  1.0000
  C   C106      1.0  0.38676  0.07189  0.83490  1.0000
  C   C107      1.0  0.36894  0.07303  0.86240  1.0000
  C   C108      1.0  0.34627  0.06250  0.85631  1.0000
  C   C109      1.0  0.34161  0.05082  0.82243  1.0000
  C   C110      1.0  0.35948  0.04937  0.79539  1.0000
  H   H192      1.0  0.40421  0.08028  0.83960  1.0000
  H   H193      1.0  0.37275  0.08234  0.88794  1.0000
  H   H194      1.0  0.32412  0.04280  0.81717  1.0000
  H   H195      1.0  0.35569  0.04023  0.76960  1.0000
  C   C111      1.0  0.29347  0.21459  0.92662  1.0000
  H   H196      1.0  0.29570  0.02589  0.92264  1.0000
  H   H197      1.0  0.32469  0.21152  0.95156  1.0000
  N   N6        1.0  0.26209  0.00394  0.92392  1.0000
  H   H198      1.0  0.35220  0.05623  0.64455  1.0000
  H   H199      1.0  0.97605  0.24352  0.70966  1.0000
  H   H200      1.0  0.98402  0.19876  0.85450  1.0000
  C   C112      1.0  0.39422  0.00208  0.93246  1.0000
  H   H201      1.0  0.41775  0.01635  0.83025  1.0000
  C   C113      1.0  0.45734  0.05936  0.57846  1.0000
  C   C114      1.0  0.45468  0.02275  0.57116  1.0000
  H   H202      1.0  0.17830  0.21770  0.60096  1.0000
  H   H203      1.0  0.43575  0.01804  0.57342  1.0000
  C   C115      1.0  0.00713  0.23537  0.53433  1.0000
  H   H204      1.0  0.29437  0.00731  0.85262  1.0000
  S   S29       1.0  0.39845  0.00260  0.75522  1.0000
  H   H205      1.0  0.33545  0.99762  0.94930  1.0000
  H   H206      1.0  0.28537  0.04258  0.57355  1.0000
  H   H207      1.0  0.08825  0.22739  0.61254  1.0000
  C   C116      1.0  0.27329  0.00838  0.80238  1.0000
  H   H208      1.0  0.33442  0.00774  0.85006  1.0000
  C   C117      1.0  0.37920  0.01529  0.86922  1.0000
  H   H209      1.0  0.28341  0.00197  0.78139  1.0000
  H   H210      1.0  0.41786  0.04575  0.86659  1.0000
  H   H211      1.0  0.31273  0.24355  0.94220  1.0000
  S   S30       1.0  0.39340  0.02748  0.56874  1.0000
  H   H212      1.0  0.23001  0.23787  0.99765  1.0000
  H   H213      1.0  0.36925  0.02293  0.88728  1.0000
  C   C118      1.0  0.41252  0.16037  0.99946  1.0000
  Fe  Fe15      1.0  0.35896  0.09481  0.02025  1.0000
  H   H214      1.0  0.30574  0.18867  0.93566  1.0000
  H   H215      1.0  0.40779  0.00766  0.95427  1.0000
  C   C119      1.0  0.26264  0.01089  0.87816  1.0000
  H   H216      1.0  0.35477  0.14004  0.00878  1.0000
  C   C120      1.0  0.40211  0.04677  0.92775  1.0000
  H   H217      1.0  0.34440  0.00884  0.56406  1.0000
  N   N7        1.0  0.40031  0.01461  0.89059  1.0000
  H   H218      1.0  0.01541  0.23028  0.81930  1.0000
  H   H219      1.0  0.04281  0.23066  0.87253  1.0000
  H   H220      1.0  0.21734  0.22300  0.95639  1.0000
  H   H221      1.0  0.24870  0.06166  0.97281  1.0000
  H   H222      1.0  0.38667  0.04932  0.91543  1.0000
  H   H223      1.0  0.30215  0.03216  0.63464  1.0000
  C   C121      1.0  0.27591  0.00177  0.84784  1.0000
  H   H224      1.0  0.38426  0.02454  0.83848  1.0000
  H   H225      1.0  0.02330  0.24428  0.54437  1.0000
  C   C122      1.0  0.32539  0.00829  0.94620  1.0000
  C   C123      1.0  0.32741  0.03794  0.58055  1.0000
  H   H226      1.0  0.24412  0.03184  0.56241  1.0000
  C   C124      1.0  0.44696  0.21431  0.83318  1.0000
  H   H227      1.0  0.39712  0.03781  0.95869  1.0000
  H   H228      1.0  0.32162  0.99831  0.60120  1.0000
  H   H229      1.0  0.24572  0.00793  0.98174  1.0000
  H   H230      1.0  0.13126  0.22321  0.59444  1.0000
  C   C125      1.0  0.24338  0.04491  0.97773  1.0000
  H   H231      1.0  0.43386  0.06584  0.94934  1.0000
  H   H232      1.0  0.42368  0.07724  0.90476  1.0000
  C   C126      1.0  0.26935  0.22934  0.84478  1.0000
  H   H233      1.0  0.16073  0.22577  0.54618  1.0000
  H   H234      1.0  0.32883  0.05013  0.68383  1.0000
  C   C127      1.0  0.41359  0.03611  0.89714  1.0000
  H   H235      1.0  0.44466  0.22798  0.88948  1.0000
  C   C128      1.0  0.18718  0.22233  0.66368  1.0000
  C   C129      1.0  0.98403  0.21426  0.86024  1.0000
  H   H236      1.0  0.43015  0.03671  0.91013  1.0000
  C   C130      1.0  0.30275  0.23787  0.91527  1.0000
  C   C131      1.0  0.25283  0.02038  0.57006  1.0000
  H   H237      1.0  0.28461  0.01386  0.97305  1.0000
  C   C132      1.0  0.41844  0.06745  0.93477  1.0000
  N   N8        1.0  0.31617  0.02069  0.55560  1.0000
  H   H238      1.0  0.31541  0.24107  0.88785  1.0000
  H   H239      1.0  0.09326  0.21631  0.56581  1.0000
  C   C133      1.0  0.17236  0.22427  0.62769  1.0000
  C   C134      1.0  0.00908  0.22842  0.85261  1.0000
  C   C135      1.0  0.32065  0.03462  0.62821  1.0000
  C   C136      1.0  0.41487  0.00716  0.86117  1.0000
  H   H240      1.0  0.41891  0.22109  0.86260  1.0000
  C   C137      1.0  0.31287  0.20526  0.92753  1.0000
  H   H241      1.0  0.15457  0.21515  0.63816  1.0000
  C   C138      1.0  0.25477  0.03689  0.94308  1.0000
  H   H242      1.0  0.08055  0.23638  0.56307  1.0000
  H   H243      1.0  0.35947  0.23617  0.82733  1.0000
  H   H244      1.0  0.01063  0.24354  0.86240  1.0000
  H   H245      1.0  0.45068  0.02383  0.86840  1.0000
  H   H246      1.0  0.35003  0.00491  0.80345  1.0000
  H   H247      1.0  0.22945  0.00872  0.93778  1.0000
  C   C139      1.0  0.16499  0.24249  0.54122  1.0000
  H   H248      1.0  0.39970  0.23843  0.81910  1.0000
  C   C140      1.0  0.26087  0.23237  0.80157  1.0000
  C   C141      1.0  0.28572  0.01111  0.93965  1.0000
  H   H249      1.0  0.32251  0.20815  0.89655  1.0000
  C   C142      1.0  0.98747  0.23021  0.56154  1.0000
  C   C143      1.0  0.38893  0.00835  0.53446  1.0000
  H   H250      1.0  0.24480  0.00695  0.55353  1.0000
  H   H251      1.0  0.98502  0.21291  0.78283  1.0000
  H   H252      1.0  0.46323  0.07494  0.56238  1.0000
  H   H253      1.0  0.28246  0.22161  0.84110  1.0000
  H   H254      1.0  0.46589  0.22006  0.82920  1.0000
  H   H255      1.0  0.24990  0.04248  0.91266  1.0000
  H   H256      1.0  0.26918  0.23857  0.96936  1.0000
  C   C144      1.0  0.27823  0.02921  0.55644  1.0000
  H   H257      1.0  0.28133  0.20689  0.90460  1.0000
  C   C145      1.0  0.43770  0.22803  0.85832  1.0000
  S   S31       1.0  0.37000  0.02256  0.68804  1.0000
  H   H258      1.0  0.27343  0.04371  0.94383  1.0000
  H   H259      1.0  0.20543  0.23064  0.65451  1.0000
  H   H260      1.0  0.32483  0.02145  0.64319  1.0000
  H   H261      1.0  0.40987  0.07504  0.95601  1.0000
  C   C146      1.0  0.22501  0.23858  0.96497  1.0000
  H   H262      1.0  0.32409  0.05205  0.56809  1.0000
  H   H263      1.0  0.27467  0.24299  0.78000  1.0000
  H   H264      1.0  0.18552  0.20618  0.67198  1.0000
  S   S32       1.0  0.98766  0.23890  0.61155  1.0000
  H   H265      1.0  0.02498  0.20515  0.86889  1.0000
  H   H266      1.0  0.25502  0.21767  0.78821  1.0000
  C   C147      1.0  0.29065  0.01322  0.56485  1.0000
  H   H267      1.0  0.25029  0.01590  0.60426  1.0000
  C   C148      1.0  0.09337  0.23060  0.57858  1.0000
  C   C149      1.0  0.13514  0.23979  0.59542  1.0000
  C   C150      1.0  0.26430  0.23939  0.93652  1.0000
  H   H268      1.0  0.24621  0.23839  0.80385  1.0000
  H   H269      1.0  0.22451  0.03896  0.97765  1.0000
  H   H270      1.0  0.43868  0.05522  0.58627  1.0000
  S   S33       1.0  0.30592  0.22824  0.03226  1.0000
  H   H271      1.0  0.27969  0.02511  0.79615  1.0000
  N   N9        1.0  0.46313  0.00790  0.54921  1.0000
  H   H272      1.0  0.40782  0.24412  0.89603  1.0000
  H   H273      1.0  0.32609  0.01573  0.97534  1.0000
  H   H274      1.0  0.25513  0.00285  0.79507  1.0000
  H   H275      1.0  0.30870  0.09055  0.54101  1.0000
  H   H276      1.0  0.45002  0.99924  0.81626  1.0000
  H   H277      1.0  0.28271  0.00086  0.54543  1.0000
  C   C151      1.0  0.37054  0.24137  0.85306  1.0000
  C   C152      1.0  0.43896  0.00811  0.87489  1.0000
  S   S34       1.0  0.39008  0.12118  0.02836  1.0000
  Fe  Fe16      1.0  0.34400  0.24051  0.02637  1.0000
  H   H278      1.0  0.24872  0.04053  0.00871  1.0000
  H   H279      1.0  0.37858  0.00413  0.94750  1.0000
  C   C153      1.0  0.34295  0.99791  0.83538  1.0000
  C   C154      1.0  0.46261  0.04479  0.54986  1.0000
  C   C155      1.0  0.30073  0.99694  0.93848  1.0000
  H   H280      1.0  0.46623  0.05922  0.60770  1.0000
  H   H281      1.0  0.98005  0.21922  0.70435  1.0000
  H   H282      1.0  0.36847  0.22823  0.87659  1.0000
  H   H283      1.0  0.13166  0.24178  0.62875  1.0000
  Fe  Fe17      1.0  0.42469  0.42599  0.30515  1.0000
  S   S35       1.0  0.39491  0.43525  0.32852  1.0000
  H   H284      1.0  0.24130  0.24825  0.08188  1.0000
  Fe  Fe18      1.0  0.39844  0.38087  0.32596  1.0000
  S   S36       1.0  0.36739  0.38701  0.35177  1.0000
  S   S37       1.0  0.40051  0.34926  0.32602  1.0000
  Fe  Fe19      1.0  0.37367  0.40957  0.29509  1.0000
  S   S38       1.0  0.34286  0.40843  0.25851  1.0000
  Fe  Fe20      1.0  0.39171  0.41158  0.38252  1.0000
  S   S39       1.0  0.38527  0.41681  0.44993  1.0000
  S   S40       1.0  0.40370  0.40210  0.26764  1.0000
  S   S41       1.0  0.42250  0.40372  0.36076  1.0000
  H   H285      1.0  0.30496  0.28083  0.23744  1.0000
  S   S42       1.0  0.30813  0.27747  0.32393  1.0000
  H   H286      1.0  0.30243  0.25489  0.23827  1.0000
  H   H287      1.0  0.42864  0.44546  0.40362  1.0000
  C   C156      1.0  0.25288  0.26610  0.39503  1.0000
  Fe  Fe21      1.0  0.04879  0.31027  0.04736  1.0000
  S   S43       1.0  0.08180  0.37840  0.09862  1.0000
  S   S44       1.0  0.07700  0.32400  0.08736  1.0000
  S   S45       1.0  0.27208  0.34846  0.08524  1.0000
  S   S46       1.0  0.33979  0.37820  0.07746  1.0000
  S   S47       1.0  0.25517  0.29107  0.07079  1.0000
  Fe  Fe22      1.0  0.01322  0.40329  0.28490  1.0000
  S   S48       1.0  0.04375  0.39990  0.31642  1.0000
  S   S49       1.0  0.01090  0.40338  0.21449  1.0000
  S   S50       1.0  0.01455  0.39563  0.40575  1.0000
  Fe  Fe23      1.0  0.03648  0.42095  0.36040  1.0000
  S   S51       1.0  0.05889  0.44699  0.39069  1.0000
  Fe  Fe24      1.0  0.01777  0.37519  0.35766  1.0000
  S   S52       1.0  0.02049  0.34385  0.37004  1.0000
  C   C157      1.0  0.05995  0.47088  0.36666  1.0000
  H   H288      1.0  0.35802  0.34692  0.50498  1.0000
  C   C158      1.0  0.06321  0.47527  0.32325  1.0000
  C   C159      1.0  0.99590  0.27718  0.45441  1.0000
  H   H289      1.0  0.06444  0.46369  0.30388  1.0000
  H   H290      1.0  0.02366  0.46974  0.47803  1.0000
  C   C160      1.0  0.03129  0.33410  0.25454  1.0000
  H   H291      1.0  0.46227  0.47763  0.38546  1.0000
  H   H292      1.0  0.11188  0.41321  0.17026  1.0000
  C   C161      1.0  0.06012  0.38212  0.13188  1.0000
  C   C162      1.0  0.04070  0.38547  0.11594  1.0000
  C   C163      1.0  0.02568  0.39181  0.14162  1.0000
  C   C164      1.0  0.02976  0.39465  0.18361  1.0000
  C   C165      1.0  0.04885  0.39075  0.19977  1.0000
  C   C166      1.0  0.06399  0.38464  0.17399  1.0000
  H   H293      1.0  0.03783  0.38410  0.08329  1.0000
  H   H294      1.0  0.01107  0.39491  0.12868  1.0000
  H   H295      1.0  0.05230  0.39287  0.23187  1.0000
  H   H296      1.0  0.07897  0.38219  0.18663  1.0000
  H   H297      1.0  0.11832  0.40385  0.22097  1.0000
  H   H298      1.0  0.24185  0.25254  0.24441  1.0000
  S   S53       1.0  0.01750  0.28763  0.07976  1.0000
  H   H299      1.0  0.27141  0.27678  0.19621  1.0000
  H   H300      1.0  0.00049  0.29366  0.44538  1.0000
  S   S54       1.0  0.46036  0.44655  0.28296  1.0000
  H   H301      1.0  0.33969  0.25099  0.23504  1.0000
  C   C167      1.0  0.26010  0.25573  0.25079  1.0000
  C   C168      1.0  0.37459  0.32962  0.32567  1.0000
  C   C169      1.0  0.35378  0.33349  0.32176  1.0000
  C   C170      1.0  0.33350  0.31744  0.32068  1.0000
  C   C171      1.0  0.33386  0.29744  0.32421  1.0000
  C   C172      1.0  0.35471  0.29367  0.32766  1.0000
  C   C173      1.0  0.37498  0.30967  0.32831  1.0000
  H   H302      1.0  0.35329  0.34884  0.31879  1.0000
  H   H303      1.0  0.31751  0.32057  0.31726  1.0000
  H   H304      1.0  0.35546  0.27848  0.32877  1.0000
  H   H305      1.0  0.39102  0.30654  0.33087  1.0000
  C   C174      1.0  0.40157  0.40933  0.48817  1.0000
  H   H306      1.0  0.34004  0.32643  0.06999  1.0000
  C   C175      1.0  0.05848  0.48601  0.39148  1.0000
  C   C176      1.0  0.42945  0.39290  0.50876  1.0000
  C   C177      1.0  0.41743  0.39961  0.47774  1.0000
  C   C178      1.0  0.46876  0.47210  0.29345  1.0000
  H   H307      1.0  0.41994  0.39661  0.44604  1.0000
  C   C179      1.0  0.34017  0.38668  0.12767  1.0000
  C   C180      1.0  0.36123  0.39617  0.14335  1.0000
  C   C181      1.0  0.36224  0.40268  0.18354  1.0000
  C   C182      1.0  0.34214  0.39998  0.20825  1.0000
  C   C183      1.0  0.32104  0.39080  0.19229  1.0000
  C   C184      1.0  0.32004  0.38402  0.15228  1.0000
  H   H308      1.0  0.37686  0.39863  0.12430  1.0000
  H   H309      1.0  0.37854  0.41018  0.19505  1.0000
  H   H310      1.0  0.30541  0.38884  0.21106  1.0000
  H   H311      1.0  0.30370  0.37688  0.14046  1.0000
  N   N10       1.0  0.47503  0.45879  0.42809  1.0000
  H   H312      1.0  0.24354  0.24975  0.40237  1.0000
  H   H313      1.0  0.42181  0.47752  0.37785  1.0000
  C   C185      1.0  0.97714  0.26410  0.05620  1.0000
  H   H314      1.0  0.26972  0.25116  0.18853  1.0000
  H   H315      1.0  0.99996  0.32374  0.08396  1.0000
  H   H316      1.0  0.01045  0.30186  0.35780  1.0000
  N   N11       1.0  0.97696  0.47193  0.38650  1.0000
  H   H317      1.0  0.02658  0.25822  0.13789  1.0000
  S   S55       1.0  0.98759  0.37792  0.32483  1.0000
  C   C186      1.0  0.31929  0.29175  0.44272  1.0000
  H   H318      1.0  0.18714  0.31044  0.52733  1.0000
  C   C187      1.0  0.34477  0.30251  0.44944  1.0000
  C   C188      1.0  0.35853  0.28771  0.45200  1.0000
  C   C189      1.0  0.26985  0.27415  0.05907  1.0000
  H   H319      1.0  0.33009  0.33248  0.44674  1.0000
  H   H320      1.0  0.31335  0.27765  0.46464  1.0000
  S   S56       1.0  0.13099  0.31205  0.04080  1.0000
  H   H321      1.0  0.01914  0.44619  0.45515  1.0000
  H   H322      1.0  0.21282  0.33317  0.05953  1.0000
  H   H323      1.0  0.35260  0.31407  0.42265  1.0000
  H   H324      1.0  0.34683  0.31011  0.47837  1.0000
  H   H325      1.0  0.37641  0.29576  0.45828  1.0000
  H   H326      1.0  0.35114  0.27534  0.47745  1.0000
  H   H327      1.0  0.35884  0.28119  0.42188  1.0000
  H   H328      1.0  0.30101  0.29671  0.03400  1.0000
  C   C190      1.0  0.28368  0.29582  0.41849  1.0000
  H   H329      1.0  0.26054  0.26973  0.45830  1.0000
  H   H330      1.0  0.32967  0.36755  0.43313  1.0000
  N   N12       1.0  0.15429  0.37982  0.13549  1.0000
  C   C191      1.0  0.13750  0.38614  0.16207  1.0000
  C   C192      1.0  0.14343  0.35810  0.12752  1.0000
  C   C193      1.0  0.17580  0.38244  0.15801  1.0000
  C   C194      1.0  0.16050  0.39262  0.09397  1.0000
  H   H331      1.0  0.02069  0.37233  0.47930  1.0000
  C   C195      1.0  0.14520  0.40858  0.17120  1.0000
  C   C196      1.0  0.19379  0.37406  0.13750  1.0000
  C   C197      1.0  0.13838  0.34223  0.16632  1.0000
  C   C198      1.0  0.13050  0.32077  0.15351  1.0000
  H   H332      1.0  0.08155  0.24929  0.15806  1.0000
  C   C199      1.0  0.12555  0.41411  0.19209  1.0000
  C   C200      1.0  0.21476  0.37741  0.16284  1.0000
  H   H333      1.0  0.13371  0.37705  0.19305  1.0000
  H   H334      1.0  0.12075  0.38271  0.14795  1.0000
  H   H335      1.0  0.12681  0.35614  0.11351  1.0000
  H   H336      1.0  0.15408  0.35367  0.10384  1.0000
  H   H337      1.0  0.17174  0.37563  0.19101  1.0000
  H   H338      1.0  0.18459  0.39875  0.16022  1.0000
  H   H339      1.0  0.17210  0.40799  0.09755  1.0000
  C   C201      1.0  0.99442  0.30497  0.36214  1.0000
  H   H340      1.0  0.00918  0.48450  0.41407  1.0000
  H   H341      1.0  0.98449  0.32244  0.27327  1.0000
  H   H342      1.0  0.15921  0.41132  0.19262  1.0000
  H   H343      1.0  0.15129  0.41906  0.14238  1.0000
  H   H344      1.0  0.19973  0.38183  0.10573  1.0000
  H   H345      1.0  0.18680  0.35761  0.13508  1.0000
  H   H346      1.0  0.15366  0.34356  0.18407  1.0000
  H   H347      1.0  0.12460  0.34397  0.18749  1.0000
  H   H348      1.0  0.12636  0.30968  0.18174  1.0000
  H   H349      1.0  0.11502  0.31832  0.13578  1.0000
  H   H350      1.0  0.14418  0.31794  0.13377  1.0000
  H   H351      1.0  0.47493  0.38861  0.23109  1.0000
  H   H352      1.0  0.44988  0.37699  0.17350  1.0000
  C   C202      1.0  0.05308  0.40381  0.49939  1.0000
  C   C203      1.0  0.41805  0.47144  0.41120  1.0000
  H   H353      1.0  0.13179  0.42984  0.20056  1.0000
  H   H354      1.0  0.17053  0.38617  0.07306  1.0000
  H   H355      1.0  0.22734  0.37144  0.14709  1.0000
  H   H356      1.0  0.22302  0.39377  0.16503  1.0000
  H   H357      1.0  0.20998  0.36937  0.19474  1.0000
  H   H358      1.0  0.02618  0.32739  0.28731  1.0000
  H   H359      1.0  0.33382  0.33242  0.12128  1.0000
  H   H360      1.0  0.06981  0.41234  0.51021  1.0000
  H   H361      1.0  0.45189  0.37510  0.26923  1.0000
  N   N13       1.0  0.40634  0.34765  0.18090  1.0000
  C   C204      1.0  0.38185  0.33848  0.19823  1.0000
  C   C205      1.0  0.41627  0.33094  0.17301  1.0000
  C   C206      1.0  0.41951  0.35901  0.21444  1.0000
  C   C207      1.0  0.40889  0.36208  0.14193  1.0000
  C   C208      1.0  0.38900  0.35736  0.11247  1.0000
  C   C209      1.0  0.37057  0.35363  0.21490  1.0000
  C   C210      1.0  0.44569  0.36844  0.20494  1.0000
  C   C211      1.0  0.40526  0.31686  0.14004  1.0000
  C   C212      1.0  0.41597  0.29995  0.13726  1.0000
  C   C213      1.0  0.97873  0.34027  0.17208  1.0000
  C   C214      1.0  0.34453  0.34545  0.21729  1.0000
  H   H362      1.0  0.47384  0.46572  0.49225  1.0000
  H   H363      1.0  0.38060  0.32677  0.22477  1.0000
  H   H364      1.0  0.37099  0.33036  0.17479  1.0000
  H   H365      1.0  0.43458  0.33731  0.16180  1.0000
  H   H366      1.0  0.41568  0.32136  0.20284  1.0000
  H   H367      1.0  0.41679  0.34892  0.24414  1.0000
  H   H368      1.0  0.41307  0.37165  0.22140  1.0000
  H   H369      1.0  0.41093  0.37767  0.15021  1.0000
  H   H370      1.0  0.42495  0.36336  0.12318  1.0000
  H   H371      1.0  0.37402  0.36063  0.12670  1.0000
  H   H372      1.0  0.38314  0.34139  0.10605  1.0000
  H   H373      1.0  0.37583  0.35674  0.24679  1.0000
  H   H374      1.0  0.37606  0.36825  0.19520  1.0000
  C   C215      1.0  0.31211  0.25619  0.15165  1.0000
  C   C216      1.0  0.02880  0.33586  0.47840  1.0000
  H   H375      1.0  0.38677  0.30966  0.14781  1.0000
  H   H376      1.0  0.40826  0.32541  0.10863  1.0000
  H   H377      1.0  0.45443  0.44228  0.48337  1.0000
  H   H378      1.0  0.98224  0.46585  0.47578  1.0000
  C   C217      1.0  0.30070  0.26792  0.21802  1.0000
  H   H379      1.0  0.04146  0.41317  0.50114  1.0000
  H   H380      1.0  0.26440  0.26746  0.27293  1.0000
  H   H381      1.0  0.45552  0.42783  0.42078  1.0000
  H   H382      1.0  0.33832  0.34560  0.18553  1.0000
  H   H383      1.0  0.33832  0.32986  0.23322  1.0000
  H   H384      1.0  0.33730  0.35528  0.23513  1.0000
  H   H385      1.0  0.99149  0.46569  0.30386  1.0000
  H   H386      1.0  0.32585  0.25942  0.12614  1.0000
  H   H387      1.0  0.01281  0.35546  0.25603  1.0000
  H   H388      1.0  0.37465  0.26528  0.26907  1.0000
  H   H389      1.0  0.44140  0.38509  0.50037  1.0000
  H   H390      1.0  0.06647  0.25984  0.12039  1.0000
  H   H391      1.0  0.12817  0.38016  0.06483  1.0000
  H   H392      1.0  0.05593  0.48262  0.42491  1.0000
  H   H393      1.0  0.46250  0.44399  0.37339  1.0000
  H   H394      1.0  0.21111  0.24647  0.47039  1.0000
  N   N14       1.0  0.31718  0.27297  0.17982  1.0000
  C   C218      1.0  0.29235  0.28081  0.04146  1.0000
  C   C219      1.0  0.34160  0.27825  0.19229  1.0000
  C   C220      1.0  0.31445  0.29151  0.15571  1.0000
  Fe  Fe25      1.0  0.30968  0.24655  0.34720  1.0000
  H   H395      1.0  0.29640  0.25547  0.13519  1.0000
  C   C221      1.0  0.27026  0.27297  0.42742  1.0000
  C   C222      1.0  0.33188  0.30093  0.11769  1.0000
  Fe  Fe26      1.0  0.98610  0.40016  0.37033  1.0000
  C   C223      1.0  0.37181  0.27352  0.23981  1.0000
  C   C224      1.0  0.00069  0.27145  0.04675  1.0000
  C   C225      1.0  0.19876  0.33787  0.04833  1.0000
  C   C226      1.0  0.32895  0.32074  0.09924  1.0000
  H   H396      1.0  0.98940  0.27697  0.52015  1.0000
  Fe  Fe27      1.0  0.38583  0.24683  0.07502  1.0000
  H   H397      1.0  0.35301  0.27587  0.16684  1.0000
  H   H398      1.0  0.34819  0.29459  0.19687  1.0000
  H   H399      1.0  0.31547  0.30353  0.17692  1.0000
  H   H400      1.0  0.29728  0.28811  0.14313  1.0000
  C   C227      1.0  0.39807  0.41253  0.53006  1.0000
  H   H401      1.0  0.97761  0.33524  0.08670  1.0000
  H   H402      1.0  0.00780  0.38113  0.52051  1.0000
  H   H403      1.0  0.01954  0.34955  0.20473  1.0000
  C   C228      1.0  0.06601  0.49495  0.30500  1.0000
  H   H404      1.0  0.28469  0.33597  0.41642  1.0000
  H   H405      1.0  0.32936  0.29050  0.09306  1.0000
  H   H406      1.0  0.34975  0.30432  0.12605  1.0000
  H   H407      1.0  0.19269  0.26710  0.50755  1.0000
  H   H408      1.0  0.99493  0.28466  0.18875  1.0000
  H   H409      1.0  0.17407  0.30833  0.06241  1.0000
  H   H410      1.0  0.37881  0.28998  0.24239  1.0000
  H   H411      1.0  0.98123  0.36571  0.47458  1.0000
  H   H412      1.0  0.33800  0.27209  0.26038  1.0000
  H   H413      1.0  0.03699  0.30772  0.49034  1.0000
  H   H414      1.0  0.46069  0.48290  0.43826  1.0000
  H   H415      1.0  0.24034  0.27459  0.39532  1.0000
  H   H416      1.0  0.38116  0.26953  0.21348  1.0000
  H   H417      1.0  0.13087  0.40360  0.08641  1.0000
  C   C229      1.0  0.98812  0.32608  0.14709  1.0000
  C   C230      1.0  0.04474  0.32309  0.47381  1.0000
  H   H418      1.0  0.03172  0.26640  0.18747  1.0000
  H   H419      1.0  0.31091  0.31849  0.09238  1.0000
  C   C231      1.0  0.29250  0.24612  0.04292  1.0000
  H   H420      1.0  0.39974  0.46231  0.41577  1.0000
  H   H421      1.0  0.03357  0.32235  0.23523  1.0000
  C   C232      1.0  0.15837  0.32987  0.03669  1.0000
  C   C233      1.0  0.99443  0.32457  0.36801  1.0000
  C   C234      1.0  0.34627  0.26756  0.23355  1.0000
  H   H422      1.0  0.97773  0.44247  0.45293  1.0000
  H   H423      1.0  0.05578  0.40120  0.46629  1.0000
  C   C235      1.0  0.00122  0.48000  0.31582  1.0000
  C   C236      1.0  0.14025  0.39504  0.06953  1.0000
  H   H424      1.0  0.01174  0.27334  0.46040  1.0000
  H   H425      1.0  0.42102  0.48417  0.43086  1.0000
  H   H426      1.0  0.43459  0.47327  0.30395  1.0000
  C   C237      1.0  0.39594  0.37033  0.07056  1.0000
  S   S57       1.0  0.40480  0.24643  0.13308  1.0000
  H   H427      1.0  0.31867  0.36241  0.38258  1.0000
  H   H428      1.0  0.03743  0.35087  0.46113  1.0000
  S   S58       1.0  0.00773  0.42629  0.32608  1.0000
  C   C238      1.0  0.27505  0.26308  0.20995  1.0000
  C   C239      1.0  0.01342  0.34303  0.23720  1.0000
  H   H429      1.0  0.32076  0.32702  0.39706  1.0000
  H   H430      1.0  0.26156  0.26839  0.36327  1.0000
  H   H431      1.0  0.98674  0.41035  0.47540  1.0000
  H   H432      1.0  0.42753  0.45192  0.45639  1.0000
  H   H433      1.0  0.00422  0.32473  0.15915  1.0000
  C   C240      1.0  0.31392  0.36192  0.41640  1.0000
  C   C241      1.0  0.31454  0.32585  0.43038  1.0000
  H   H434      1.0  0.44956  0.39610  0.23479  1.0000
  C   C242      1.0  0.99002  0.45768  0.45464  1.0000
  H   H435      1.0  0.05532  0.37502  0.52359  1.0000
  H   H436      1.0  0.31952  0.28647  0.41108  1.0000
  H   H437      1.0  0.04789  0.34625  0.25401  1.0000
  C   C243      1.0  0.45256  0.48150  0.30357  1.0000
  C   C244      1.0  0.01102  0.45487  0.47458  1.0000
  H   H438      1.0  0.01299  0.32838  0.46352  1.0000
  H   H439      1.0  0.40779  0.29015  0.11327  1.0000
  C   C245      1.0  0.30933  0.30971  0.52357  1.0000
  H   H440      1.0  0.30352  0.37220  0.42006  1.0000
  H   H441      1.0  0.43452  0.30624  0.12800  1.0000
  H   H442      1.0  0.27846  0.30829  0.49180  1.0000
  C   C246      1.0  0.43278  0.45812  0.42344  1.0000
  H   H443      1.0  0.28186  0.26364  0.42698  1.0000
  H   H444      1.0  0.00646  0.34925  0.09734  1.0000
  H   H445      1.0  0.00588  0.44634  0.50597  1.0000
  H   H446      1.0  0.29039  0.29874  0.38510  1.0000
  H   H447      1.0  0.40156  0.38663  0.07521  1.0000
  H   H448      1.0  0.27066  0.30371  0.42112  1.0000
  Fe  Fe28      1.0  0.07599  0.35342  0.05562  1.0000
  N   N15       1.0  0.30286  0.30393  0.44623  1.0000
  C   C247      1.0  0.29258  0.30151  0.49035  1.0000
  C   C248      1.0  0.30015  0.34043  0.43409  1.0000
  H   H449      1.0  0.29497  0.34094  0.46727  1.0000
  H   H450      1.0  0.28438  0.28528  0.50134  1.0000
  H   H451      1.0  0.07324  0.27105  0.16868  1.0000
  H   H452      1.0  0.99134  0.34758  0.45089  1.0000
  C   C249      1.0  0.98661  0.48673  0.34846  1.0000
  H   H453      1.0  0.41350  0.29047  0.16760  1.0000
  H   H454      1.0  0.98256  0.36349  0.23466  1.0000
  C   C250      1.0  0.45608  0.38292  0.23702  1.0000
  C   C251      1.0  0.45854  0.47040  0.41814  1.0000
  C   C252      1.0  0.01918  0.37198  0.51371  1.0000
  C   C253      1.0  0.17682  0.32383  0.05004  1.0000
  H   H455      1.0  0.32106  0.32497  0.51336  1.0000
  C   C254      1.0  0.02632  0.25248  0.17118  1.0000
  H   H456      1.0  0.06135  0.33036  0.48670  1.0000
  H   H457      1.0  0.00636  0.46148  0.39294  1.0000
  C   C255      1.0  0.99657  0.46953  0.41067  1.0000
  H   H458      1.0  0.45409  0.35647  0.20674  1.0000
  H   H459      1.0  0.99174  0.31303  0.22727  1.0000
  S   S59       1.0  0.36524  0.26722  0.05626  1.0000
  H   H460      1.0  0.04791  0.32166  0.44018  1.0000
  H   H461      1.0  0.38107  0.36740  0.05111  1.0000
  Fe  Fe29      1.0  0.27040  0.32351  0.04479  1.0000
  C   C256      1.0  0.25872  0.25346  0.06832  1.0000
  C   C257      1.0  0.99031  0.27012  0.20905  1.0000
  H   H462      1.0  0.97563  0.31074  0.14869  1.0000
  H   H463      1.0  0.40991  0.36661  0.05354  1.0000
  C   C258      1.0  0.06800  0.25658  0.15433  1.0000
  H   H464      1.0  0.99181  0.35544  0.16877  1.0000
  Fe  Fe30      1.0  0.30615  0.36369  0.05013  1.0000
  C   C259      1.0  0.99331  0.33416  0.10099  1.0000
  H   H465      1.0  0.31928  0.29916  0.53067  1.0000
  H   H466      1.0  0.00431  0.27156  0.23008  1.0000
  C   C260      1.0  0.98962  0.32677  0.23941  1.0000
  C   C261      1.0  0.30384  0.26679  0.03404  1.0000
  H   H467      1.0  0.01651  0.47778  0.32967  1.0000
  H   H468      1.0  0.37017  0.37228  0.51742  1.0000
  H   H469      1.0  0.98937  0.25966  0.14809  1.0000
  H   H470      1.0  0.47244  0.41413  0.34334  1.0000
  C   C262      1.0  0.97956  0.34948  0.47590  1.0000
  C   C263      1.0  0.46940  0.44055  0.40356  1.0000
  H   H471      1.0  0.46862  0.40083  0.39539  1.0000
  H   H472      1.0  0.98798  0.26874  0.42843  1.0000
  C   C264      1.0  0.18960  0.25126  0.52090  1.0000
  C   C265      1.0  0.97958  0.27091  0.49348  1.0000
  C   C266      1.0  0.02315  0.33744  0.52489  1.0000
  H   H473      1.0  0.38862  0.35773  0.50410  1.0000
  C   C267      1.0  0.98466  0.34169  0.51980  1.0000
  C   C268      1.0  0.37214  0.35700  0.52046  1.0000
  C   C269      1.0  0.47207  0.45244  0.47447  1.0000
  H   H474      1.0  0.02048  0.49117  0.25611  1.0000
  C   C270      1.0  0.04316  0.38371  0.52672  1.0000
  H   H475      1.0  0.98003  0.32498  0.52124  1.0000
  C   C271      1.0  0.98713  0.25253  0.18086  1.0000
  H   H476      1.0  0.07195  0.49529  0.48511  1.0000
  N   N16       1.0  0.00855  0.35062  0.53374  1.0000
  Fe  Fe31      1.0  0.40742  0.39734  0.72925  1.0000
  S   S60       1.0  0.40351  0.36949  0.69719  1.0000
  S   S61       1.0  0.37389  0.40147  0.74843  1.0000
  S   S62       1.0  0.42951  0.38994  0.77765  1.0000
  S   S63       1.0  0.43652  0.41709  0.68522  1.0000
  Fe  Fe32      1.0  0.38656  0.27430  0.99504  1.0000
  H   H477      1.0  0.18853  0.30771  0.78687  1.0000
  C   C272      1.0  0.18874  0.36074  0.74613  1.0000
  C   C273      1.0  0.41590  0.32153  0.60494  1.0000
  C   C274      1.0  0.36579  0.29572  0.61838  1.0000
  C   C275      1.0  0.35619  0.39285  0.90385  1.0000
  Fe  Fe33      1.0  0.24721  0.28170  0.63922  1.0000
  H   H478      1.0  0.24099  0.38945  0.65147  1.0000
  H   H479      1.0  0.43298  0.29439  0.84276  1.0000
  H   H480      1.0  0.16880  0.38077  0.75333  1.0000
  N   N17       1.0  0.12703  0.35641  0.71320  1.0000
  H   H481      1.0  0.38750  0.29400  0.56231  1.0000
  C   C276      1.0  0.12353  0.36283  0.59174  1.0000
  H   H482      1.0  0.34619  0.31082  0.89866  1.0000
  Fe  Fe34      1.0  0.07218  0.33672  0.96974  1.0000
  S   S64       1.0  0.07397  0.34363  0.89955  1.0000
  S   S65       1.0  0.07219  0.30609  0.99628  1.0000
  S   S66       1.0  0.05415  0.27397  0.60911  1.0000
  Fe  Fe35      1.0  0.03108  0.27635  0.72315  1.0000
  S   S67       1.0  0.06685  0.29330  0.69890  1.0000
  S   S68       1.0  0.01811  0.27656  0.78985  1.0000
  Fe  Fe36      1.0  0.05122  0.30055  0.64075  1.0000
  S   S69       1.0  0.06285  0.33251  0.61136  1.0000
  Fe  Fe37      1.0  0.06660  0.26525  0.67037  1.0000
  H   H483      1.0  0.12741  0.37913  0.66303  1.0000
  S   S70       1.0  0.01514  0.28576  0.66687  1.0000
  Fe  Fe38      1.0  0.27452  0.32372  0.65803  1.0000
  S   S71       1.0  0.27740  0.29297  0.67720  1.0000
  S   S72       1.0  0.30486  0.34962  0.63090  1.0000
  Fe  Fe39      1.0  0.22262  0.30986  0.67320  1.0000
  S   S73       1.0  0.19245  0.32167  0.67014  1.0000
  Fe  Fe40      1.0  0.25133  0.29233  0.72879  1.0000
  S   S74       1.0  0.25108  0.28174  0.79667  1.0000
  Fe  Fe41      1.0  0.43443  0.38832  0.65723  1.0000
  S   S75       1.0  0.25104  0.32407  0.71262  1.0000
  S   S76       1.0  0.24601  0.31250  0.61650  1.0000
  Fe  Fe42      1.0  0.01900  0.25825  0.63990  1.0000
  Fe  Fe43      1.0  0.28798  0.35206  0.96590  1.0000
  H   H484      1.0  0.14530  0.35317  0.63232  1.0000
  S   S77       1.0  0.29727  0.35564  0.89687  1.0000
  H   H485      1.0  0.21190  0.24646  0.96321  1.0000
  H   H486      1.0  0.11643  0.33626  0.63510  1.0000
  C   C277      1.0  0.39462  0.30638  0.84286  1.0000
  C   C278      1.0  0.27225  0.42355  0.67528  1.0000
  C   C279      1.0  0.26840  0.39842  0.73519  1.0000
  C   C280      1.0  0.26424  0.30197  0.82497  1.0000
  C   C281      1.0  0.28101  0.31897  0.80523  1.0000
  C   C282      1.0  0.29126  0.33520  0.82789  1.0000
  C   C283      1.0  0.28477  0.33457  0.87024  1.0000
  C   C284      1.0  0.26826  0.31740  0.89023  1.0000
  C   C285      1.0  0.25793  0.30114  0.86752  1.0000
  H   H487      1.0  0.28625  0.31955  0.77258  1.0000
  H   H488      1.0  0.30415  0.34835  0.81254  1.0000
  H   H489      1.0  0.26335  0.31667  0.92302  1.0000
  H   H490      1.0  0.24483  0.28806  0.88276  1.0000
  C   C286      1.0  0.05588  0.34763  0.64698  1.0000
  C   C287      1.0  0.04564  0.33902  0.68652  1.0000
  C   C288      1.0  0.03885  0.35081  0.71420  1.0000
  H   H491      1.0  0.04258  0.32319  0.69570  1.0000
  H   H492      1.0  0.03089  0.34403  0.74471  1.0000
  C   C289      1.0  0.12283  0.27300  0.67860  1.0000
  C   C290      1.0  0.12571  0.29232  0.65902  1.0000
  C   C291      1.0  0.14715  0.30716  0.65685  1.0000
  C   C292      1.0  0.16567  0.30287  0.67454  1.0000
  C   C293      1.0  0.16267  0.28364  0.69470  1.0000
  C   C294      1.0  0.14133  0.26870  0.69645  1.0000
  H   H493      1.0  0.11159  0.29564  0.64454  1.0000
  H   H494      1.0  0.14961  0.32176  0.64018  1.0000
  H   H495      1.0  0.17668  0.28028  0.70923  1.0000
  H   H496      1.0  0.35367  0.31862  0.56170  1.0000
  H   H497      1.0  0.42819  0.28180  0.93446  1.0000
  C   C295      1.0  0.19213  0.30139  0.85350  1.0000
  H   H498      1.0  0.20221  0.29349  0.87196  1.0000
  H   H499      1.0  0.06831  0.37503  0.60534  1.0000
  H   H500      1.0  0.24962  0.39452  0.73292  1.0000
  C   C296      1.0  0.28500  0.25699  0.57809  1.0000
  C   C297      1.0  0.05905  0.32433  0.86987  1.0000
  C   C298      1.0  0.06161  0.32779  0.82622  1.0000
  C   C299      1.0  0.04940  0.31314  0.80143  1.0000
  C   C300      1.0  0.03429  0.29492  0.82021  1.0000
  C   C301      1.0  0.03152  0.29150  0.86398  1.0000
  C   C302      1.0  0.04410  0.30604  0.88876  1.0000
  H   H501      1.0  0.07302  0.34188  0.81166  1.0000
  H   H502      1.0  0.05147  0.31604  0.76781  1.0000
  H   H503      1.0  0.01961  0.27761  0.87893  1.0000
  H   H504      1.0  0.04181  0.30323  0.92243  1.0000
  H   H505      1.0  0.38574  0.41995  0.53846  1.0000
  S   S78       1.0  0.25292  0.33555  0.99421  1.0000
  H   H506      1.0  0.13557  0.37844  0.58648  1.0000
  S   S79       1.0  0.22121  0.27799  0.69289  1.0000
  Fe  Fe44      1.0  0.42718  0.36297  0.74310  1.0000
  H   H507      1.0  0.28929  0.26524  0.60504  1.0000
  H   H508      1.0  0.24326  0.36927  0.68785  1.0000
  C   C303      1.0  0.14846  0.40653  0.02641  1.0000
  H   H509      1.0  0.39648  0.26321  0.81261  1.0000
  C   C304      1.0  0.35420  0.38723  0.71637  1.0000
  C   C305      1.0  0.35985  0.38868  0.67353  1.0000
  C   C306      1.0  0.34437  0.37729  0.64767  1.0000
  C   C307      1.0  0.32347  0.36383  0.66464  1.0000
  C   C308      1.0  0.31777  0.36223  0.70760  1.0000
  C   C309      1.0  0.33308  0.37416  0.73339  1.0000
  H   H510      1.0  0.37612  0.39884  0.66018  1.0000
  H   H511      1.0  0.34871  0.37888  0.61440  1.0000
  H   H512      1.0  0.30169  0.35181  0.72091  1.0000
  H   H513      1.0  0.32882  0.37308  0.76653  1.0000
  C   C310      1.0  0.06005  0.36827  0.63565  1.0000
  C   C311      1.0  0.39152  0.30097  0.88628  1.0000
  H   H514      1.0  0.37938  0.28674  0.89891  1.0000
  H   H515      1.0  0.38503  0.29611  0.82208  1.0000
  H   H516      1.0  0.21713  0.30867  0.79978  1.0000
  H   H517      1.0  0.09412  0.37694  0.80870  1.0000
  H   H518      1.0  0.40682  0.40772  0.59365  1.0000
  H   H519      1.0  0.15314  0.32353  0.85294  1.0000
  H   H520      1.0  0.38684  0.35951  0.57980  1.0000
  H   H521      1.0  0.12403  0.36521  0.77579  1.0000
  C   C312      1.0  0.05259  0.37996  0.66286  1.0000
  S   S80       1.0  0.29200  0.37953  0.99949  1.0000
  N   N18       1.0  0.18989  0.32653  0.90739  1.0000
  C   C313      1.0  0.20176  0.31770  0.94062  1.0000
  C   C314      1.0  0.19626  0.34905  0.91012  1.0000
  C   C315      1.0  0.19784  0.32343  0.86424  1.0000
  C   C316      1.0  0.22216  0.36058  0.91088  1.0000
  C   C317      1.0  0.19007  0.29546  0.95918  1.0000
  H   H522      1.0  0.98366  0.33931  0.93222  1.0000
  C   C318      1.0  0.22635  0.38324  0.91139  1.0000
  H   H523      1.0  0.21955  0.31928  0.92896  1.0000
  H   H524      1.0  0.20338  0.32637  0.96838  1.0000
  H   H525      1.0  0.18764  0.35209  0.93878  1.0000
  H   H526      1.0  0.19012  0.35657  0.88335  1.0000
  H   H527      1.0  0.19120  0.33203  0.83999  1.0000
  H   H528      1.0  0.21673  0.32977  0.85933  1.0000
  H   H529      1.0  0.23214  0.35842  0.88331  1.0000
  H   H530      1.0  0.22918  0.35549  0.93928  1.0000
  H   H531      1.0  0.19520  0.28475  0.80073  1.0000
  H   H532      1.0  0.15298  0.34271  0.88707  1.0000
  H   H533      1.0  0.98381  0.45015  0.89804  1.0000
  C   C319      1.0  0.37047  0.28619  0.57830  1.0000
  H   H534      1.0  0.11934  0.29964  0.89501  1.0000
  H   H535      1.0  0.22062  0.38961  0.88270  1.0000
  H   H536      1.0  0.21719  0.38626  0.93930  1.0000
  H   H537      1.0  0.24489  0.39098  0.91301  1.0000
  C   C320      1.0  0.35847  0.34069  0.80971  1.0000
  H   H538      1.0  0.02869  0.27052  0.00550  1.0000
  H   H539      1.0  0.34202  0.35936  0.86929  1.0000
  S   S81       1.0  0.04622  0.33976  0.01814  1.0000
  H   H540      1.0  0.34478  0.34672  0.93205  1.0000
  H   H541      1.0  0.36673  0.32949  0.80070  1.0000
  H   H542      1.0  0.34048  0.33257  0.82114  1.0000
  H   H543      1.0  0.35885  0.35117  0.78162  1.0000
  H   H544      1.0  0.98432  0.28567  0.94933  1.0000
  H   H545      1.0  0.46812  0.27179  0.88968  1.0000
  C   C321      1.0  0.39540  0.25018  0.83568  1.0000
  H   H546      1.0  0.08408  0.35811  0.74561  1.0000
  C   C322      1.0  0.37157  0.34967  0.56666  1.0000
  C   C323      1.0  0.11349  0.33459  0.72618  1.0000
  C   C324      1.0  0.11961  0.32490  0.76733  1.0000
  H   H547      1.0  0.35611  0.35160  0.58226  1.0000
  C   C325      1.0  0.98428  0.37795  0.89356  1.0000
  C   C326      1.0  0.12709  0.35235  0.63334  1.0000
  C   C327      1.0  0.10514  0.30281  0.77714  1.0000
  H   H548      1.0  0.43295  0.28064  0.79947  1.0000
  H   H549      1.0  0.43791  0.24878  0.80396  1.0000
  H   H550      1.0  0.15744  0.27682  0.54262  1.0000
  H   H551      1.0  0.00166  0.38901  0.89186  1.0000
  H   H552      1.0  0.17438  0.29437  0.97880  1.0000
  C   C328      1.0  0.09350  0.38491  0.77764  1.0000
  C   C329      1.0  0.32849  0.30319  0.91201  1.0000
  H   H553      1.0  0.38098  0.34610  0.99437  1.0000
  H   H554      1.0  0.09488  0.33256  0.72854  1.0000
  H   H555      1.0  0.11587  0.32500  0.70173  1.0000
  H   H556      1.0  0.11692  0.33297  0.79428  1.0000
  H   H557      1.0  0.13757  0.32487  0.76451  1.0000
  C   C330      1.0  0.40996  0.40560  0.56134  1.0000
  C   C331      1.0  0.11700  0.24631  0.57062  1.0000
  C   C332      1.0  0.30163  0.25086  0.55642  1.0000
  C   C333      1.0  0.28009  0.24978  0.86234  1.0000
  H   H558      1.0  0.10638  0.40014  0.77467  1.0000
  H   H559      1.0  0.15842  0.30123  0.91514  1.0000
  H   H560      1.0  0.08679  0.30141  0.78135  1.0000
  H   H561      1.0  0.10778  0.29377  0.75174  1.0000
  H   H562      1.0  0.11013  0.29640  0.80660  1.0000
  H   H563      1.0  0.19831  0.36575  0.77371  1.0000
  H   H564      1.0  0.04432  0.45070  0.67476  1.0000
  C   C334      1.0  0.46139  0.28951  0.95790  1.0000
  C   C335      1.0  0.44610  0.28589  0.92142  1.0000
  C   C336      1.0  0.18718  0.28793  0.57848  1.0000
  H   H565      1.0  0.11562  0.26076  0.58053  1.0000
  C   C337      1.0  0.30612  0.41434  0.69831  1.0000
  C   C338      1.0  0.27649  0.39073  0.66313  1.0000
  C   C339      1.0  0.32154  0.42389  0.65780  1.0000
  C   C340      1.0  0.34554  0.43605  0.66777  1.0000
  C   C341      1.0  0.24864  0.36548  0.62336  1.0000
  H   H566      1.0  0.31224  0.40179  0.71066  1.0000
  H   H567      1.0  0.28536  0.37948  0.67181  1.0000
  H   H568      1.0  0.28418  0.39752  0.63129  1.0000
  H   H569      1.0  0.32305  0.41176  0.63877  1.0000
  H   H570      1.0  0.31468  0.43419  0.63829  1.0000
  H   H571      1.0  0.34509  0.44946  0.68348  1.0000
  H   H572      1.0  0.35314  0.42669  0.68838  1.0000
  H   H573      1.0  0.35668  0.44128  0.63840  1.0000
  H   H574      1.0  0.25877  0.35499  0.62874  1.0000
  H   H575      1.0  0.23046  0.35644  0.62204  1.0000
  H   H576      1.0  0.03297  0.46287  0.79800  1.0000
  H   H577      1.0  0.28888  0.32363  0.55949  1.0000
  C   C342      1.0  0.12179  0.37021  0.74311  1.0000
  H   H578      1.0  0.36484  0.25299  0.86768  1.0000
  C   C343      1.0  0.01973  0.35861  0.87981  1.0000
  C   C344      1.0  0.03485  0.37578  0.84753  1.0000
  H   H579      1.0  0.99380  0.30674  0.88261  1.0000
  C   C345      1.0  0.12416  0.31615  0.89738  1.0000
  H   H580      1.0  0.32779  0.42637  0.86630  1.0000
  H   H581      1.0  0.17369  0.29305  0.85944  1.0000
  C   C346      1.0  0.05483  0.38983  0.86748  1.0000
  H   H582      1.0  0.34554  0.33767  0.72067  1.0000
  S   S82       1.0  0.09662  0.25381  0.67932  1.0000
  Fe  Fe45      1.0  0.25773  0.36193  0.03124  1.0000
  H   H583      1.0  0.13414  0.38568  0.73606  1.0000
  H   H584      1.0  0.01204  0.48122  0.54490  1.0000
  H   H585      1.0  0.07635  0.38681  0.77571  1.0000
  C   C347      1.0  0.44951  0.26869  0.89706  1.0000
  H   H586      1.0  0.39513  0.42486  0.89243  1.0000
  H   H587      1.0  0.01900  0.36439  0.91080  1.0000
  H   H588      1.0  0.02932  0.34762  0.88452  1.0000
  H   H589      1.0  0.02521  0.38523  0.83288  1.0000
  H   H590      1.0  0.04188  0.36903  0.82225  1.0000
  C   C348      1.0  0.42232  0.33826  0.85327  1.0000
  H   H591      1.0  0.16141  0.37163  0.68540  1.0000
  N   N19       1.0  0.99606  0.34822  0.86737  1.0000
  H   H592      1.0  0.33395  0.31303  0.74945  1.0000
  C   C349      1.0  0.18894  0.30948  0.56152  1.0000
  H   H593      1.0  0.19689  0.27214  0.00064  1.0000
  H   H594      1.0  0.41739  0.32701  0.57129  1.0000
  H   H595      1.0  0.31753  0.31235  0.90122  1.0000
  H   H596      1.0  0.13356  0.40826  0.01010  1.0000
  H   H597      1.0  0.06543  0.40165  0.84333  1.0000
  H   H598      1.0  0.04853  0.39734  0.89222  1.0000
  H   H599      1.0  0.06571  0.38132  0.88130  1.0000
  H   H600      1.0  0.33988  0.32152  0.63329  1.0000
  H   H601      1.0  0.29639  0.27077  0.95216  1.0000
  H   H602      1.0  0.99006  0.30617  0.77975  1.0000
  H   H603      1.0  0.15702  0.39808  0.00730  1.0000
  C   C350      1.0  0.99625  0.33051  0.60659  1.0000
  C   C351      1.0  0.41942  0.33272  0.89665  1.0000
  H   H604      1.0  0.18629  0.34436  0.74518  1.0000
  S   S83       1.0  0.24104  0.25908  0.59134  1.0000
  S   S84       1.0  0.40259  0.30683  0.96758  1.0000
  C   C352      1.0  0.35858  0.35483  0.95093  1.0000
  C   C353      1.0  0.25103  0.37905  0.65867  1.0000
  C   C354      1.0  0.35318  0.31364  0.69106  1.0000
  C   C355      1.0  0.40444  0.31386  0.91323  1.0000
  H   H605      1.0  0.30986  0.42510  0.72254  1.0000
  H   H606      1.0  0.25470  0.37465  0.59282  1.0000
  H   H607      1.0  0.04271  0.46772  0.71313  1.0000
  C   C356      1.0  0.41030  0.32491  0.82616  1.0000
  N   N20       1.0  0.28086  0.40674  0.69300  1.0000
  C   C357      1.0  0.19865  0.30070  0.80741  1.0000
  S   S85       1.0  0.41564  0.33025  0.77144  1.0000
  C   C358      1.0  0.04177  0.37113  0.70196  1.0000
  C   C359      1.0  0.42554  0.39560  0.55067  1.0000
  H   H608      1.0  0.05507  0.39576  0.65359  1.0000
  H   H609      1.0  0.37176  0.34161  0.87005  1.0000
  H   H610      1.0  0.25004  0.45268  0.68415  1.0000
  H   H611      1.0  0.27693  0.42717  0.64111  1.0000
  H   H612      1.0  0.29899  0.45081  0.68988  1.0000
  S   S86       1.0  0.10199  0.35374  0.00387  1.0000
  C   C360      1.0  0.37138  0.35258  0.84339  1.0000
  H   H613      1.0  0.34695  0.28917  0.62533  1.0000
  C   C361      1.0  0.35971  0.36794  0.85706  1.0000
  H   H614      1.0  0.15618  0.35583  0.77860  1.0000
  C   C362      1.0  0.28028  0.44361  0.69577  1.0000
  H   H615      1.0  0.27072  0.36735  0.73673  1.0000
  H   H616      1.0  0.18509  0.28508  0.93479  1.0000
  C   C363      1.0  0.16429  0.31785  0.91573  1.0000
  S   S87       1.0  0.98797  0.45395  0.69354  1.0000
  C   C364      1.0  0.27340  0.37972  0.75709  1.0000
  H   H617      1.0  0.27264  0.41016  0.75734  1.0000
  H   H618      1.0  0.27609  0.44105  0.72999  1.0000
  H   H619      1.0  0.23958  0.36640  0.78944  1.0000
  C   C365      1.0  0.14964  0.32629  0.88559  1.0000
  H   H620      1.0  0.15931  0.32034  0.94808  1.0000
  H   H621      1.0  0.02644  0.48615  0.65949  1.0000
  H   H622      1.0  0.34037  0.38179  0.91960  1.0000
  H   H623      1.0  0.25326  0.41859  0.67799  1.0000
  H   H624      1.0  0.27305  0.46220  0.64357  1.0000
  H   H625      1.0  0.00615  0.35099  0.80152  1.0000
  H   H626      1.0  0.33756  0.39641  0.84840  1.0000
  C   C366      1.0  0.25774  0.37135  0.79685  1.0000
  C   C367      1.0  0.26887  0.45874  0.67782  1.0000
  H   H627      1.0  0.29124  0.38382  0.76629  1.0000
  H   H628      1.0  0.01469  0.32167  0.53904  1.0000
  C   C368      1.0  0.37865  0.37056  0.92399  1.0000
  H   H629      1.0  0.26166  0.35805  0.81199  1.0000
  H   H630      1.0  0.27512  0.47302  0.69259  1.0000
  C   C369      1.0  0.29660  0.31127  0.56403  1.0000
  S   S88       1.0  0.03181  0.38537  0.73562  1.0000
  H   H631      1.0  0.26887  0.25933  0.85657  1.0000
  H   H632      1.0  0.45246  0.32662  0.60452  1.0000
  H   H633      1.0  0.36279  0.41736  0.85215  1.0000
  H   H634      1.0  0.39123  0.36317  0.91334  1.0000
  H   H635      1.0  0.35754  0.37675  0.82800  1.0000
  S   S89       1.0  0.30530  0.33770  0.01294  1.0000
  H   H636      1.0  0.26040  0.38289  0.81938  1.0000
  H   H637      1.0  0.04881  0.48339  0.55593  1.0000
  C   C370      1.0  0.39332  0.39658  0.86500  1.0000
  H   H638      1.0  0.38911  0.36030  0.83033  1.0000
  H   H639      1.0  0.44428  0.25488  0.91977  1.0000
  C   C371      1.0  0.40594  0.41504  0.88778  1.0000
  N   N21       1.0  0.37194  0.38202  0.88758  1.0000
  H   H640      1.0  0.25219  0.26553  0.94508  1.0000
  H   H641      1.0  0.00402  0.24581  0.96244  1.0000
  H   H642      1.0  0.01002  0.32979  0.82997  1.0000
  H   H643      1.0  0.36997  0.25712  0.55875  1.0000
  C   C372      1.0  0.05369  0.46496  0.68759  1.0000
  H   H644      1.0  0.32084  0.31942  0.70361  1.0000
  H   H645      1.0  0.15178  0.27732  0.59698  1.0000
  Fe  Fe46      1.0  0.99828  0.38812  0.71657  1.0000
  H   H646      1.0  0.12663  0.35429  0.56579  1.0000
  H   H647      1.0  0.46721  0.45480  0.73891  1.0000
  H   H648      1.0  0.02314  0.35817  0.59247  1.0000
  C   C373      1.0  0.12021  0.36244  0.67069  1.0000
  H   H649      1.0  0.03942  0.34241  0.54037  1.0000
  H   H650      1.0  0.28479  0.27979  0.90795  1.0000
  H   H651      1.0  0.41089  0.41025  0.91867  1.0000
  C   C374      1.0  0.20575  0.28793  0.98727  1.0000
  H   H652      1.0  0.42927  0.34288  0.91737  1.0000
  H   H653      1.0  0.00975  0.32312  0.61003  1.0000
  H   H654      1.0  0.19901  0.36918  0.71742  1.0000
  H   H655      1.0  0.43969  0.41909  0.85779  1.0000
  C   C375      1.0  0.33735  0.32141  0.71779  1.0000
  C   C376      1.0  0.01573  0.45157  0.79943  1.0000
  Fe  Fe47      1.0  0.45860  0.40708  0.73067  1.0000
  H   H656      1.0  0.38356  0.32529  0.54974  1.0000
  H   H657      1.0  0.36936  0.31638  0.70667  1.0000
  H   H658      1.0  0.46173  0.32553  0.80725  1.0000
  S   S90       1.0  0.44001  0.38563  0.58850  1.0000
  H   H659      1.0  0.45821  0.27540  0.97911  1.0000
  H   H660      1.0  0.01312  0.44575  0.76843  1.0000
  H   H661      1.0  0.34514  0.29710  0.69151  1.0000
  H   H662      1.0  0.28293  0.29693  0.57437  1.0000
  C   C377      1.0  0.00633  0.35133  0.58034  1.0000
  C   C378      1.0  0.18403  0.36393  0.01883  1.0000
  H   H663      1.0  0.40588  0.26847  0.88588  1.0000
  C   C379      1.0  0.99654  0.25085  0.98869  1.0000
  H   H664      1.0  0.36340  0.34097  0.64873  1.0000
  C   C380      1.0  0.35703  0.32443  0.64581  1.0000
  H   H665      1.0  0.35762  0.28698  0.55558  1.0000
  C   C381      1.0  0.46656  0.29587  0.81688  1.0000
  C   C382      1.0  0.44113  0.28397  0.82925  1.0000
  H   H666      1.0  0.38969  0.40249  0.83374  1.0000
  H   H667      1.0  0.99943  0.47421  0.78620  1.0000
  C   C383      1.0  0.06016  0.48271  0.65344  1.0000
  H   H668      1.0  0.17553  0.31444  0.57724  1.0000
  H   H669      1.0  0.40590  0.38854  0.85854  1.0000
  C   C384      1.0  0.34816  0.40600  0.87042  1.0000
  H   H670      1.0  0.31871  0.25452  0.56667  1.0000
  H   H671      1.0  0.37204  0.32965  0.95379  1.0000
  C   C385      1.0  0.26273  0.25201  0.56527  1.0000
  C   C386      1.0  0.99273  0.31434  0.91106  1.0000
  H   H672      1.0  0.99591  0.36129  0.58792  1.0000
  H   H673      1.0  0.35229  0.32883  0.99685  1.0000
  H   H674      1.0  0.00037  0.34445  0.66492  1.0000
  H   H675      1.0  0.29581  0.25750  0.84184  1.0000
  H   H676      1.0  0.31807  0.40621  0.90809  1.0000
  H   H677      1.0  0.01502  0.43891  0.82329  1.0000
  H   H678      1.0  0.40195  0.34397  0.62684  1.0000
  H   H679      1.0  0.21025  0.29736  0.01361  1.0000
  C   C387      1.0  0.98235  0.49035  0.55619  1.0000
  C   C388      1.0  0.37049  0.32716  0.57236  1.0000
  H   H680      1.0  0.45017  0.30043  0.90149  1.0000
  H   H681      1.0  0.15544  0.34535  0.69912  1.0000
  N   N22       1.0  0.37289  0.31856  0.61590  1.0000
  C   C389      1.0  0.36855  0.26395  0.58826  1.0000
  H   H682      1.0  0.43638  0.44123  0.87862  1.0000
  H   H683      1.0  0.14805  0.35466  0.00979  1.0000
  H   H684      1.0  0.00986  0.31950  0.92327  1.0000
  C   C390      1.0  0.00352  0.48579  0.57149  1.0000
  H   H685      1.0  0.07172  0.47961  0.62941  1.0000
  S   S91       1.0  0.45817  0.37921  0.69999  1.0000
  H   H686      1.0  0.98791  0.37194  0.82906  1.0000
  H   H687      1.0  0.44376  0.34750  0.61948  1.0000
  H   H688      1.0  0.37360  0.28968  0.64496  1.0000
  C   C391      1.0  0.42773  0.42795  0.86214  1.0000
  H   H689      1.0  0.13911  0.25377  0.71180  1.0000
  N   N23       1.0  0.15988  0.25069  0.58109  1.0000
  C   C392      1.0  0.17430  0.24668  0.61547  1.0000
  H   H690      1.0  0.32850  0.30235  0.94661  1.0000
  H   H691      1.0  0.43444  0.35257  0.84073  1.0000
  C   C393      1.0  0.32008  0.28206  0.89771  1.0000
  C   C394      1.0  0.39690  0.32722  0.62888  1.0000
  H   H692      1.0  0.39790  0.32235  0.66224  1.0000
  C   C395      1.0  0.36656  0.33896  0.97562  1.0000
  N   N24       1.0  0.28548  0.24895  0.90755  1.0000
  H   H693      1.0  0.19063  0.28802  0.61203  1.0000
  C   C396      1.0  0.09770  0.37285  0.74247  1.0000
  H   H694      1.0  0.32125  0.27198  0.02056  1.0000
  H   H695      1.0  0.12135  0.24859  0.53650  1.0000
  C   C397      1.0  0.33345  0.41717  0.89077  1.0000
  H   H696      1.0  0.38787  0.38108  0.94598  1.0000
  H   H697      1.0  0.03005  0.47080  0.62104  1.0000
  H   H698      1.0  0.33263  0.27428  0.90673  1.0000
  C   C398      1.0  0.15239  0.35912  0.70987  1.0000
  H   H699      1.0  0.19268  0.25466  0.60752  1.0000
  H   H700      1.0  0.36401  0.40227  0.92875  1.0000
  C   C399      1.0  0.03857  0.48529  0.63395  1.0000
  H   H701      1.0  0.41254  0.30496  0.60879  1.0000
  N   N25       1.0  0.43663  0.26484  0.85823  1.0000
  C   C400      1.0  0.16562  0.36450  0.74957  1.0000
  H   H702      1.0  0.11969  0.31873  0.92979  1.0000
  H   H703      1.0  0.09598  0.38137  0.71273  1.0000
  H   H704      1.0  0.46446  0.48687  0.63400  1.0000
  H   H705      1.0  0.06932  0.46308  0.70084  1.0000
  H   H706      1.0  0.99760  0.47279  0.59601  1.0000
  H   H707      1.0  0.38248  0.26245  0.60776  1.0000
  H   H708      1.0  0.34332  0.42737  0.91267  1.0000
  C   C401      1.0  0.43907  0.33079  0.62232  1.0000
  H   H709      1.0  0.04211  0.38736  0.55943  1.0000
  H   H710      1.0  0.43873  0.32520  0.65576  1.0000
  C   C402      1.0  0.99812  0.33895  0.82741  1.0000
  H   H711      1.0  0.97610  0.30481  0.97392  1.0000
  S   S92       1.0  0.99351  0.40553  0.65801  1.0000
  C   C403      1.0  0.46878  0.31549  0.78970  1.0000
  C   C404      1.0  0.16207  0.34991  0.02060  1.0000
  C   C405      1.0  0.98741  0.33276  0.65019  1.0000
  H   H712      1.0  0.42365  0.43348  0.83098  1.0000
  H   H713      1.0  0.10582  0.36350  0.59109  1.0000
  H   H714      1.0  0.20584  0.31992  0.56752  1.0000
  C   C406      1.0  0.29573  0.27044  0.91778  1.0000
  S   S93       1.0  0.36353  0.24909  0.96377  1.0000
  H   H715      1.0  0.10133  0.35872  0.67080  1.0000
  H   H716      1.0  0.16999  0.25300  0.64416  1.0000
  C   C407      1.0  0.98278  0.36296  0.86011  1.0000
  H   H717      1.0  0.23963  0.25104  0.90336  1.0000
  C   C408      1.0  0.16301  0.27308  0.57388  1.0000
  H   H718      1.0  0.47366  0.47460  0.59243  1.0000
  C   C409      1.0  0.01045  0.26498  0.01274  1.0000
  C   C410      1.0  0.98343  0.33242  0.90233  1.0000
  S   S94       1.0  0.40898  0.25608  0.01637  1.0000
  H   H719      1.0  0.22166  0.28832  0.96926  1.0000
  H   H720      1.0  0.30865  0.31468  0.58892  1.0000
  C   C411      1.0  0.41146  0.25688  0.87113  1.0000
  H   H721      1.0  0.35184  0.25544  0.60509  1.0000
  H   H722      1.0  0.11395  0.32262  0.87599  1.0000
  C   C412      1.0  0.98465  0.49119  0.70330  1.0000
  H   H723      1.0  0.35113  0.36268  0.97349  1.0000
  H   H724      1.0  0.32029  0.28386  0.86316  1.0000
  Fe  Fe48      1.0  0.10053  0.32317  0.03311  1.0000
  S   S95       1.0  0.98160  0.40381  0.75887  1.0000
  S   S96       1.0  0.03169  0.24730  0.69906  1.0000
  H   H725      1.0  0.45763  0.30108  0.97604  1.0000
  C   C413      1.0  0.99765  0.46146  0.81058  1.0000
  H   H726      1.0  0.98842  0.32806  0.74726  1.0000
  H   H727      1.0  0.45951  0.31234  0.76097  1.0000
  H   H728      1.0  0.18686  0.37944  0.00646  1.0000
  C   C414      1.0  0.97955  0.31628  0.77294  1.0000
  H   H729      1.0  0.98284  0.39836  0.55156  1.0000
  H   H730      1.0  0.20099  0.28380  0.56233  1.0000
  H   H731      1.0  0.47472  0.28680  0.79876  1.0000
  H   H732      1.0  0.46724  0.43043  0.55134  1.0000
  H   H733      1.0  0.98345  0.31822  0.67019  1.0000
  H   H734      1.0  0.00162  0.46788  0.84056  1.0000
  C   C415      1.0  0.24569  0.25011  0.93516  1.0000
  C   C416      1.0  0.97725  0.29840  0.94382  1.0000
  H   H735      1.0  0.20234  0.25064  0.54360  1.0000
  H   H736      1.0  0.16045  0.42179  0.02924  1.0000
  H   H737      1.0  0.98102  0.25171  0.84455  1.0000
  H   H738      1.0  0.46330  0.25501  0.83021  1.0000
  H   H739      1.0  0.98196  0.32023  0.59187  1.0000
  H   H740      1.0  0.98041  0.36995  0.92550  1.0000
  C   C417      1.0  0.44438  0.24978  0.83570  1.0000
  S   S97       1.0  0.22944  0.37595  0.03189  1.0000
  C   C418      1.0  0.20234  0.35798  0.03299  1.0000
  S   S98       1.0  0.07952  0.68726  0.09350  1.0000
  H   H741      1.0  0.99607  0.64654  0.06748  1.0000
  C   C419      1.0  0.98909  0.69226  0.07810  1.0000
  S   S99       1.0  0.11840  0.66788  0.16861  1.0000
  S   S100      1.0  0.11391  0.72401  0.13954  1.0000
  Fe  Fe49      1.0  0.04863  0.59510  0.35433  1.0000
  S   S101      1.0  0.03598  0.57353  0.30633  1.0000
  S   S102      1.0  0.05987  0.62923  0.33972  1.0000
  Fe  Fe50      1.0  0.03588  0.56206  0.42762  1.0000
  S   S103      1.0  0.02307  0.53807  0.38504  1.0000
  S   S104      1.0  0.02734  0.54768  0.49446  1.0000
  Fe  Fe51      1.0  0.05351  0.55422  0.34219  1.0000
  S   S105      1.0  0.06925  0.53489  0.30652  1.0000
  Fe  Fe52      1.0  0.00639  0.55864  0.35290  1.0000
  H   H742      1.0  0.99628  0.58383  0.25260  1.0000
  S   S106      1.0  0.06858  0.57682  0.38734  1.0000
  S   S107      1.0  0.01699  0.58172  0.39801  1.0000
  H   H743      1.0  0.07518  0.52047  0.46156  1.0000
  H   H744      1.0  0.46002  0.58556  0.22846  1.0000
  H   H745      1.0  0.46289  0.57329  0.16038  1.0000
  H   H746      1.0  0.98802  0.59131  0.53222  1.0000
  C   C420      1.0  0.06474  0.51013  0.32990  1.0000
  H   H747      1.0  0.04607  0.68581  0.43370  1.0000
  H   H748      1.0  0.05960  0.51714  0.39251  1.0000
  C   C421      1.0  0.04503  0.62760  0.20087  1.0000
  C   C422      1.0  0.10363  0.65823  0.21804  1.0000
  C   C423      1.0  0.09287  0.66937  0.24085  1.0000
  C   C424      1.0  0.08026  0.66061  0.27904  1.0000
  C   C425      1.0  0.07781  0.64051  0.29408  1.0000
  C   C426      1.0  0.08909  0.62962  0.27185  1.0000
  C   C427      1.0  0.10225  0.63858  0.23442  1.0000
  H   H749      1.0  0.09407  0.68461  0.22884  1.0000
  H   H750      1.0  0.07173  0.66919  0.29623  1.0000
  H   H751      1.0  0.08754  0.61422  0.28326  1.0000
  H   H752      1.0  0.11072  0.62994  0.21722  1.0000
  H   H753      1.0  0.00390  0.58279  0.49379  1.0000
  C   C428      1.0  0.03292  0.67501  0.41738  1.0000
  C   C429      1.0  0.03335  0.65345  0.42823  1.0000
  N   N26       1.0  0.01980  0.65102  0.18884  1.0000
  H   H754      1.0  0.01706  0.63760  0.09183  1.0000
  Fe  Fe53      1.0  0.08275  0.71930  0.10263  1.0000
  H   H755      1.0  0.46249  0.53506  0.21671  1.0000
  H   H756      1.0  0.04818  0.66673  0.22333  1.0000
  H   H757      1.0  0.01582  0.67617  0.42631  1.0000
  H   H758      1.0  0.04391  0.64591  0.14388  1.0000
  H   H759      1.0  0.99395  0.59211  0.19842  1.0000
  H   H760      1.0  0.07298  0.64475  0.47007  1.0000
  H   H761      1.0  0.45245  0.56445  0.29739  1.0000
  C   C430      1.0  0.99462  0.57926  0.22045  1.0000
  H   H762      1.0  0.99585  0.66620  0.16764  1.0000
  C   C431      1.0  0.01409  0.64166  0.26987  1.0000
  H   H763      1.0  0.01534  0.65226  0.48784  1.0000
  H   H764      1.0  0.01952  0.62440  0.15861  1.0000
  C   C432      1.0  0.05779  0.61565  0.17769  1.0000
  H   H765      1.0  0.01050  0.69638  0.48465  1.0000
  H   H766      1.0  0.00000  0.70980  0.12985  1.0000
  C   C433      1.0  0.00541  0.70458  0.10176  1.0000
  H   H767      1.0  0.07135  0.62469  0.51025  1.0000
  C   C434      1.0  0.00385  0.64021  0.22637  1.0000
  Fe  Fe54      1.0  0.11208  0.69266  0.12508  1.0000
  C   C435      1.0  0.00621  0.65718  0.15506  1.0000
  C   C436      1.0  0.47239  0.56281  0.17134  1.0000
  H   H768      1.0  0.02278  0.69453  0.18470  1.0000
  Fe  Fe55      1.0  0.13323  0.73413  0.07647  1.0000
  H   H769      1.0  0.04165  0.61837  0.43455  1.0000
  H   H770      1.0  0.01985  0.51064  0.28875  1.0000
  H   H771      1.0  0.05762  0.63921  0.21568  1.0000
  C   C437      1.0  0.04302  0.61752  0.46894  1.0000
  H   H772      1.0  0.98757  0.50020  0.44702  1.0000
  C   C438      1.0  0.06048  0.50550  0.37315  1.0000
  H   H773      1.0  0.08385  0.74102  0.48594  1.0000
  C   C439      1.0  0.01391  0.69523  0.51725  1.0000
  H   H774      1.0  0.09279  0.51685  0.50269  1.0000
  C   C440      1.0  0.99918  0.62552  0.30277  1.0000
  H   H775      1.0  0.08094  0.60427  0.45716  1.0000
  H   H776      1.0  0.44688  0.50864  0.32169  1.0000
  S   S108      1.0  0.04946  0.72451  0.11946  1.0000
  H   H777      1.0  0.04970  0.67688  0.17137  1.0000
  H   H778      1.0  0.98906  0.64600  0.22911  1.0000
  C   C441      1.0  0.03560  0.70307  0.05301  1.0000
  H   H779      1.0  0.06117  0.70954  0.21132  1.0000
  C   C442      1.0  0.45464  0.54523  0.19929  1.0000
  H   H780      1.0  0.03861  0.71495  0.24069  1.0000
  H   H781      1.0  0.05011  0.65266  0.41594  1.0000
  H   H782      1.0  0.06602  0.60775  0.20042  1.0000
  H   H783      1.0  0.45247  0.58997  0.30234  1.0000
  H   H784      1.0  0.03958  0.60121  0.47893  1.0000
  H   H785      1.0  0.01986  0.64336  0.41140  1.0000
  H   H786      1.0  0.05346  0.70721  0.04278  1.0000
  S   S109      1.0  0.10214  0.73242  0.04105  1.0000
  C   C443      1.0  0.03184  0.63744  0.17081  1.0000
  C   C444      1.0  0.99858  0.63582  0.09278  1.0000
  C   C445      1.0  0.08453  0.62082  0.45037  1.0000
  H   H787      1.0  0.05042  0.69596  0.26224  1.0000
  H   H788      1.0  0.08286  0.62445  0.41666  1.0000
  H   H789      1.0  0.00654  0.62759  0.33358  1.0000
  H   H790      1.0  0.98952  0.62158  0.48384  1.0000
  C   C446      1.0  0.04567  0.70277  0.23297  1.0000
  H   H791      1.0  0.00998  0.57506  0.21122  1.0000
  C   C447      1.0  0.98910  0.63977  0.13499  1.0000
  H   H792      1.0  0.01238  0.68071  0.23430  1.0000
  C   C448      1.0  0.45958  0.50158  0.31342  1.0000
  C   C449      1.0  0.02780  0.68682  0.21243  1.0000
  H   H793      1.0  0.98262  0.73704  0.03514  1.0000
  H   H794      1.0  0.01562  0.65654  0.28109  1.0000
  N   N27       1.0  0.02553  0.62530  0.48986  1.0000
  H   H795      1.0  0.99611  0.62400  0.22201  1.0000
  H   H796      1.0  0.98947  0.62024  0.08583  1.0000
  H   H797      1.0  0.42386  0.52037  0.19436  1.0000
  H   H798      1.0  0.01784  0.66762  0.12962  1.0000
  H   H799      1.0  0.03649  0.67916  0.38316  1.0000
  C   C450      1.0  0.02985  0.64740  0.47614  1.0000
  H   H800      1.0  0.98359  0.71915  0.44783  1.0000
  C   C451      1.0  0.07546  0.51129  0.49128  1.0000
  H   H801      1.0  0.04489  0.65695  0.49073  1.0000
  H   H802      1.0  0.99869  0.61037  0.29439  1.0000
  H   H803      1.0  0.04591  0.60412  0.16074  1.0000
  C   C452      1.0  0.00220  0.61361  0.47738  1.0000
  H   H804      1.0  0.03126  0.63991  0.26927  1.0000
  H   H805      1.0  0.42758  0.54182  0.15639  1.0000
  H   H806      1.0  0.10242  0.62845  0.45725  1.0000
  C   C453      1.0  0.03742  0.67004  0.19893  1.0000
  H   H807      1.0  0.44460  0.52504  0.15067  1.0000
  H   H808      1.0  0.04093  0.50951  0.50890  1.0000
  H   H809      1.0  0.03319  0.61691  0.22536  1.0000
  H   H810      1.0  0.98323  0.62560  0.15634  1.0000
  C   C454      1.0  0.99614  0.68563  0.04160  1.0000
  C   C455      1.0  0.02874  0.70992  0.08930  1.0000
  H   H811      1.0  0.07135  0.62600  0.15520  1.0000
  C   C456      1.0  0.43661  0.53240  0.17340  1.0000
  H   H812      1.0  0.04456  0.72088  0.51001  1.0000
  H   H813      1.0  0.00256  0.61287  0.44301  1.0000
  H   H814      1.0  0.44560  0.55132  0.22279  1.0000
  C   C457      1.0  0.99196  0.59158  0.49820  1.0000
  S   S110      1.0  0.13326  0.70289  0.06380  1.0000
  C   C458      1.0  0.06827  0.62815  0.47718  1.0000
  H   H815      1.0  0.97706  0.58610  0.34533  1.0000
  C   C459      1.0  0.46328  0.58052  0.29427  1.0000
  C   C460      1.0  0.47401  0.58712  0.24967  1.0000
  H   H816      1.0  0.99789  0.50112  0.35782  1.0000
  H   H817      1.0  0.98875  0.74387  0.46537  1.0000
  H   H818      1.0  0.06928  0.49845  0.27152  1.0000
  H   H819      1.0  0.99485  0.49828  0.26218  1.0000
  H   H820      1.0  0.06272  0.58161  0.52200  1.0000
  H   H821      1.0  0.98164  0.62656  0.30554  1.0000
  C   C461      1.0  0.05756  0.51337  0.52328  1.0000
  H   H822      1.0  0.97773  0.51251  0.40365  1.0000
  H   H823      1.0  0.06242  0.52945  0.52924  1.0000
  H   H824      1.0  0.98729  0.50288  0.53051  1.0000
  C   C462      1.0  0.97587  0.73126  0.45277  1.0000
  S   S111      1.0  0.97604  0.66083  0.52898  1.0000
  C   C463      1.0  0.00952  0.49604  0.27846  1.0000
  C   C464      1.0  0.03320  0.70907  0.53167  1.0000
  H   H825      1.0  0.02201  0.51786  0.56660  1.0000
  H   H826      1.0  0.04022  0.61961  0.98337  1.0000
  H   H827      1.0  0.99685  0.54097  0.56650  1.0000
  H   H828      1.0  0.03144  0.67195  0.82287  1.0000
  H   H829      1.0  0.05616  0.68856  0.91237  1.0000
  C   C465      1.0  0.06252  0.54678  0.67237  1.0000
  H   H830      1.0  0.99249  0.62475  0.55167  1.0000
  S   S112      1.0  0.08461  0.68502  0.97798  1.0000
  C   C466      1.0  0.16899  0.72998  0.95904  1.0000
  S   S113      1.0  0.03899  0.74173  0.68758  1.0000
  S   S114      1.0  0.10698  0.71125  0.78452  1.0000
  Fe  Fe56      1.0  0.03106  0.71666  0.73973  1.0000
  H   H831      1.0  0.13297  0.64964  0.84360  1.0000
  S   S115      1.0  0.05302  0.69998  0.71211  1.0000
  Fe  Fe57      1.0  0.00269  0.58031  0.70520  1.0000
  S   S116      1.0  0.03531  0.58845  0.66365  1.0000
  H   H832      1.0  0.02986  0.61400  0.89586  1.0000
  H   H833      1.0  0.05947  0.61202  0.79724  1.0000
  C   C467      1.0  0.01166  0.55353  0.57102  1.0000
  H   H834      1.0  0.99988  0.55613  0.63359  1.0000
  H   H835      1.0  0.12760  0.70226  0.92825  1.0000
  C   C468      1.0  0.03273  0.57790  0.61565  1.0000
  H   H836      1.0  0.01013  0.66699  0.93565  1.0000
  S   S117      1.0  0.99542  0.60235  0.74617  1.0000
  S   S118      1.0  0.06251  0.72450  0.59149  1.0000
  H   H837      1.0  0.01101  0.72183  0.83532  1.0000
  C   C469      1.0  0.01332  0.56213  0.60899  1.0000
  H   H838      1.0  0.99626  0.62777  0.62665  1.0000
  S   S119      1.0  0.99258  0.55459  0.75625  1.0000
  H   H839      1.0  0.02638  0.69096  0.63437  1.0000
  C   C470      1.0  0.00670  0.68917  0.88648  1.0000
  H   H840      1.0  0.05416  0.55861  0.83362  1.0000
  H   H841      1.0  0.07897  0.54451  0.68016  1.0000
  H   H842      1.0  0.00967  0.67255  0.71830  1.0000
  H   H843      1.0  0.02524  0.62709  0.62172  1.0000
  H   H844      1.0  0.13605  0.71213  0.85194  1.0000
  C   C471      1.0  0.09139  0.69555  0.92567  1.0000
  C   C472      1.0  0.11394  0.70240  0.90856  1.0000
  C   C473      1.0  0.11863  0.70767  0.86527  1.0000
  C   C474      1.0  0.10082  0.70647  0.83899  1.0000
  C   C475      1.0  0.07831  0.70028  0.85626  1.0000
  C   C476      1.0  0.07361  0.69440  0.89933  1.0000
  H   H845      1.0  0.03291  0.66288  0.77227  1.0000
  H   H846      1.0  0.06450  0.69913  0.83615  1.0000
  C   C477      1.0  0.99160  0.66643  0.72600  1.0000
  C   C478      1.0  0.04706  0.73007  0.93930  1.0000
  H   H847      1.0  0.07368  0.50071  0.57180  1.0000
  H   H848      1.0  0.02519  0.69403  0.87718  1.0000
  C   C479      1.0  0.04851  0.62145  0.89744  1.0000
  H   H849      1.0  0.98057  0.74446  0.79566  1.0000
  C   C480      1.0  0.00066  0.70363  0.91551  1.0000
  H   H850      1.0  0.98300  0.52094  0.71080  1.0000
  H   H851      1.0  0.02500  0.68556  0.00166  1.0000
  H   H852      1.0  0.04424  0.51532  0.68376  1.0000
  C   C481      1.0  0.03548  0.73368  0.89907  1.0000
  H   H853      1.0  0.06588  0.55958  0.64756  1.0000
  H   H854      1.0  0.00289  0.65724  0.88645  1.0000
  H   H855      1.0  0.98887  0.63866  0.69895  1.0000
  C   C482      1.0  0.02465  0.65901  0.80444  1.0000
  H   H856      1.0  0.99313  0.66616  0.60888  1.0000
  H   H857      1.0  0.03361  0.60348  0.82913  1.0000
  H   H858      1.0  0.06573  0.59701  0.58930  1.0000
  C   C483      1.0  0.02922  0.56074  0.53921  1.0000
  C   C484      1.0  0.98007  0.67741  0.74762  1.0000
  Fe  Fe58      1.0  0.08052  0.71970  0.74726  1.0000
  N   N28       1.0  0.06044  0.62661  0.85412  1.0000
  H   H859      1.0  0.04401  0.63132  0.54552  1.0000
  H   H860      1.0  0.10050  0.66285  0.82681  1.0000
  H   H861      1.0  0.05442  0.60999  0.91562  1.0000
  C   C485      1.0  0.04874  0.57646  0.54580  1.0000
  H   H862      1.0  0.01865  0.63559  0.85492  1.0000
  C   C486      1.0  0.10007  0.65417  0.85758  1.0000
  H   H863      1.0  0.06349  0.64679  0.79795  1.0000
  S   S120      1.0  0.99448  0.70108  0.76457  1.0000
  C   C487      1.0  0.08605  0.63167  0.85608  1.0000
  C   C488      1.0  0.03784  0.70758  0.57398  1.0000
  C   C489      1.0  0.02689  0.62260  0.53649  1.0000
  C   C490      1.0  0.00983  0.62975  0.56269  1.0000
  Fe  Fe59      1.0  0.98167  0.57590  0.79475  1.0000
  H   H864      1.0  0.07665  0.59225  0.85057  1.0000
  C   C491      1.0  0.12473  0.65640  0.86713  1.0000
  C   C492      1.0  0.05183  0.63913  0.92489  1.0000
  C   C493      1.0  0.05239  0.60827  0.83043  1.0000
  S   S121      1.0  0.05795  0.73464  0.77868  1.0000
  C   C494      1.0  0.99943  0.73762  0.92945  1.0000
  H   H865      1.0  0.15221  0.72005  0.97333  1.0000
  H   H866      1.0  0.02212  0.62804  0.80389  1.0000
  H   H867      1.0  0.17765  0.72067  0.94276  1.0000
  H   H868      1.0  0.04048  0.64535  0.98543  1.0000
  H   H869      1.0  0.05670  0.53545  0.59314  1.0000
  H   H870      1.0  0.06098  0.65790  0.84423  1.0000
  C   C495      1.0  0.05803  0.58916  0.84833  1.0000
  H   H871      1.0  0.03100  0.56781  0.81906  1.0000
  H   H872      1.0  0.01846  0.62842  0.95945  1.0000
  C   C496      1.0  0.05458  0.64359  0.82982  1.0000
  C   C497      1.0  0.04983  0.57208  0.82051  1.0000
  H   H873      1.0  0.00601  0.65623  0.80302  1.0000
  C   C498      1.0  0.03678  0.63259  0.96571  1.0000
  H   H874      1.0  0.09276  0.66127  0.88148  1.0000
  C   C499      1.0  0.00825  0.62194  0.60877  1.0000
  H   H875      1.0  0.12528  0.64901  0.89881  1.0000
  H   H876      1.0  0.09009  0.62271  0.88325  1.0000
  H   H877      1.0  0.05810  0.57673  0.78837  1.0000
  H   H878      1.0  0.04927  0.58355  0.87981  1.0000
  H   H879      1.0  0.15806  0.73976  0.90057  1.0000
  H   H880      1.0  0.13458  0.67265  0.86623  1.0000
  Fe  Fe60      1.0  0.06213  0.72585  0.66144  1.0000
  H   H881      1.0  0.04733  0.65188  0.90892  1.0000
  S   S122      1.0  0.98993  0.58186  0.86097  1.0000
  H   H882      1.0  0.06973  0.64439  0.93354  1.0000
  H   H883      1.0  0.09373  0.62719  0.82800  1.0000
  H   H884      1.0  0.97780  0.71526  0.97845  1.0000
  C   C500      1.0  0.02882  0.64004  0.82455  1.0000
  C   C501      1.0  0.05052  0.58498  0.58406  1.0000
  H   H885      1.0  0.99722  0.68861  0.85784  1.0000
  H   H886      1.0  0.01573  0.64646  0.56033  1.0000
  H   H887      1.0  0.00176  0.60519  0.61278  1.0000
  C   C502      1.0  0.04636  0.52753  0.65821  1.0000
  H   H888      1.0  0.07997  0.73514  0.90489  1.0000
  C   C503      1.0  0.02300  0.69232  0.60178  1.0000
  C   C504      1.0  0.00407  0.67832  0.58726  1.0000
  H   H889      1.0  0.00649  0.70038  0.94654  1.0000
  H   H890      1.0  0.15337  0.74318  0.59406  1.0000
  S   S123      1.0  0.97648  0.67195  0.00872  1.0000
  C   C505      1.0  0.01964  0.50442  0.58935  1.0000
  N   N29       1.0  0.04246  0.50283  0.60095  1.0000
  H   H891      1.0  0.07394  0.52316  0.61969  1.0000
  H   H892      1.0  0.05464  0.55086  0.70056  1.0000
  H   H893      1.0  0.02963  0.53007  0.65451  1.0000
  H   H894      1.0  0.98166  0.69879  0.91984  1.0000
  C   C506      1.0  0.05585  0.52251  0.61649  1.0000
  C   C507      1.0  0.99991  0.66767  0.90829  1.0000
  H   H895      1.0  0.04374  0.71372  0.94824  1.0000
  C   C508      1.0  0.99948  0.67965  0.54505  1.0000
  H   H896      1.0  0.02493  0.60661  0.54718  1.0000
  N   N30       1.0  0.00973  0.72591  0.90117  1.0000
  C   C509      1.0  0.97975  0.64714  0.71500  1.0000
  C   C510      1.0  0.07289  0.73995  0.93295  1.0000
  H   H897      1.0  0.00691  0.72426  0.99047  1.0000
  S   S124      1.0  0.09251  0.74363  0.69300  1.0000
  H   H898      1.0  0.98817  0.60569  0.92848  1.0000
  C   C511      1.0  0.01940  0.69094  0.02938  1.0000
  H   H899      1.0  0.17954  0.73662  0.98447  1.0000
  H   H900      1.0  0.98516  0.71175  0.59385  1.0000
  C   C512      1.0  0.00245  0.72902  0.85757  1.0000
  C   C513      1.0  0.98756  0.74406  0.00246  1.0000
  H   H901      1.0  0.98905  0.70775  0.66797  1.0000
  H   H902      1.0  0.98376  0.72136  0.85662  1.0000
  H   H903      1.0  0.04291  0.72723  0.87374  1.0000
  C   C514      1.0  0.05589  0.49920  0.56386  1.0000
  C   C515      1.0  0.99315  0.72884  0.97602  1.0000
  H   H904      1.0  0.00990  0.50696  0.61705  1.0000
  H   H905      1.0  0.98148  0.66236  0.91894  1.0000
  H   H906      1.0  0.12738  0.73975  0.62542  1.0000
  H   H907      1.0  0.98300  0.73869  0.91799  1.0000
  H   H908      1.0  0.08107  0.73543  0.96051  1.0000
  H   H909      1.0  0.04121  0.73700  0.96536  1.0000
  H   H910      1.0  0.06969  0.49637  0.66784  1.0000
  H   H911      1.0  0.00298  0.49579  0.70387  1.0000
  Fe  Fe61      1.0  0.10053  0.70047  0.03343  1.0000
  H   H912      1.0  0.33216  0.98077  0.53063  1.0000
  H   H913      1.0  0.23879  0.82155  0.09783  1.0000
  S   S125      1.0  0.18833  0.85078  0.09438  1.0000
  H   H914      1.0  0.17368  0.77622  0.16480  1.0000
  H   H915      1.0  0.21176  0.86983  0.16795  1.0000
  C   C516      1.0  0.46000  0.99116  0.48001  1.0000
  S   S126      1.0  0.30218  0.89142  0.11181  1.0000
  S   S127      1.0  0.24233  0.89891  0.10009  1.0000
  Fe  Fe62      1.0  0.35727  0.95123  0.29709  1.0000
  S   S128      1.0  0.38723  0.96973  0.25407  1.0000
  S   S129      1.0  0.32143  0.93655  0.27719  1.0000
  Fe  Fe63      1.0  0.38276  0.96375  0.37565  1.0000
  H   H916      1.0  0.24441  0.98008  0.31581  1.0000
  S   S130      1.0  0.37811  0.95840  0.44635  1.0000
  C   C517      1.0  0.26873  0.98676  0.16596  1.0000
  H   H917      1.0  0.17326  0.95896  0.28680  1.0000
  Fe  Fe64      1.0  0.40842  0.95771  0.29807  1.0000
  S   S131      1.0  0.43777  0.94877  0.27117  1.0000
  S   S132      1.0  0.35954  0.97613  0.33807  1.0000
  S   S133      1.0  0.37813  0.93714  0.33809  1.0000
  H   H918      1.0  0.27135  0.96519  0.49967  1.0000
  H   H919      1.0  0.20882  0.80321  0.20562  1.0000
  H   H920      1.0  0.18720  0.76637  0.20659  1.0000
  S   S134      1.0  0.25109  0.86528  0.04194  1.0000
  H   H921      1.0  0.32226  0.90159  0.33639  1.0000
  C   C518      1.0  0.23392  0.97770  0.34575  1.0000
  H   H922      1.0  0.07288  0.76007  0.46121  1.0000
  C   C519      1.0  0.38219  0.97808  0.47911  1.0000
  C   C520      1.0  0.29147  0.96408  0.05155  1.0000
  H   H923      1.0  0.28145  0.78590  0.24144  1.0000
  H   H924      1.0  0.14044  0.77973  0.10612  1.0000
  H   H925      1.0  0.31014  0.87941  0.37332  1.0000
  H   H926      1.0  0.28543  0.81385  0.07294  1.0000
  H   H927      1.0  0.21179  0.87040  0.22360  1.0000
  C   C521      1.0  0.29864  0.91141  0.40377  1.0000
  C   C522      1.0  0.21187  0.98827  0.27085  1.0000
  C   C523      1.0  0.35575  0.96662  0.14124  1.0000
  H   H928      1.0  0.22980  0.92073  0.47555  1.0000
  H   H929      1.0  0.21112  0.78625  0.12098  1.0000
  H   H930      1.0  0.25683  0.97260  0.15660  1.0000
  C   C524      1.0  0.28391  0.82931  0.07081  1.0000
  H   H931      1.0  0.21580  0.89662  0.45776  1.0000
  H   H932      1.0  0.25571  0.99243  0.05613  1.0000
  C   C525      1.0  0.30768  0.90483  0.15676  1.0000
  C   C526      1.0  0.29158  0.91255  0.17508  1.0000
  C   C527      1.0  0.29603  0.92222  0.21186  1.0000
  C   C528      1.0  0.31683  0.92473  0.23028  1.0000
  C   C529      1.0  0.33314  0.91739  0.21157  1.0000
  C   C530      1.0  0.32846  0.90730  0.17530  1.0000
  H   H933      1.0  0.27556  0.91086  0.16130  1.0000
  H   H934      1.0  0.28332  0.92789  0.22595  1.0000
  H   H935      1.0  0.34924  0.91922  0.22538  1.0000
  H   H936      1.0  0.34107  0.90143  0.16145  1.0000
  C   C531      1.0  0.15614  0.79071  0.09251  1.0000
  C   C532      1.0  0.16120  0.81116  0.09968  1.0000
  C   C533      1.0  0.18171  0.82548  0.08273  1.0000
  H   H937      1.0  0.26160  0.99031  0.19548  1.0000
  C   C534      1.0  0.46606  0.90404  0.36796  1.0000
  H   H938      1.0  0.14931  0.81586  0.11881  1.0000
  H   H939      1.0  0.08233  0.78349  0.51989  1.0000
  H   H940      1.0  0.23852  0.87871  0.19229  1.0000
  C   C535      1.0  0.25946  0.79892  0.20563  1.0000
  H   H941      1.0  0.35144  0.94995  0.14304  1.0000
  H   H942      1.0  0.30542  0.96228  0.46871  1.0000
  H   H943      1.0  0.34060  0.89153  0.36734  1.0000
  H   H944      1.0  0.33009  0.94817  0.41742  1.0000
  H   H945      1.0  0.33648  0.92486  0.47027  1.0000
  C   C536      1.0  0.47422  0.90518  0.32211  1.0000
  H   H946      1.0  0.25967  0.96882  0.37928  1.0000
  C   C537      1.0  0.25044  0.98294  0.47742  1.0000
  C   C538      1.0  0.27414  0.83335  0.11236  1.0000
  H   H947      1.0  0.29485  0.91558  0.37124  1.0000
  C   C539      1.0  0.25483  0.96734  0.50258  1.0000
  H   H948      1.0  0.27287  0.83101  0.04529  1.0000
  H   H949      1.0  0.23046  0.84435  0.23043  1.0000
  H   H950      1.0  0.28617  0.89635  0.41403  1.0000
  N   N31       1.0  0.19821  0.98310  0.31269  1.0000
  C   C540      1.0  0.23805  0.95452  0.53192  1.0000
  H   H951      1.0  0.31058  0.95000  0.38020  1.0000
  H   H952      1.0  0.44213  0.95154  0.35946  1.0000
  C   C541      1.0  0.25268  0.81849  0.20076  1.0000
  C   C542      1.0  0.32211  0.90773  0.40168  1.0000
  C   C543      1.0  0.27731  0.80030  0.23768  1.0000
  H   H953      1.0  0.17810  0.82238  0.51561  1.0000
  H   H954      1.0  0.28861  0.96820  0.30034  1.0000
  H   H955      1.0  0.21704  0.98629  0.18425  1.0000
  H   H956      1.0  0.26920  0.93347  0.39706  1.0000
  H   H957      1.0  0.16522  0.98100  0.28917  1.0000
  C   C544      1.0  0.22937  0.91128  0.44935  1.0000
  H   H958      1.0  0.27072  0.80302  0.26853  1.0000
  H   H959      1.0  0.22495  0.91888  0.42077  1.0000
  H   H960      1.0  0.20451  0.83572  0.20426  1.0000
  H   H961      1.0  0.25066  0.89755  0.41664  1.0000
  H   H962      1.0  0.21256  0.83012  0.04432  1.0000
  N   N32       1.0  0.29594  0.92694  0.43169  1.0000
  Fe  Fe65      1.0  0.22108  0.87394  0.06543  1.0000
  H   H963      1.0  0.46691  0.88995  0.38551  1.0000
  S   S135      1.0  0.24497  0.95075  0.04252  1.0000
  H   H964      1.0  0.45402  0.97573  0.49662  1.0000
  C   C545      1.0  0.21082  0.78470  0.15559  1.0000
  C   C546      1.0  0.18767  0.76988  0.17224  1.0000
  H   H965      1.0  0.32972  0.94527  0.49155  1.0000
  Fe  Fe66      1.0  0.39105  0.99347  0.29807  1.0000
  H   H966      1.0  0.29317  0.90435  0.48366  1.0000
  H   H967      1.0  0.33634  0.92199  0.39485  1.0000
  H   H968      1.0  0.34408  0.98299  0.43396  1.0000
  H   H969      1.0  0.12818  0.96889  0.32969  1.0000
  H   H970      1.0  0.46323  0.89171  0.30892  1.0000
  H   H971      1.0  0.12305  0.94786  0.36920  1.0000
  H   H972      1.0  0.29326  0.81271  0.22713  1.0000
  H   H973      1.0  0.31677  0.97504  0.23861  1.0000
  H   H974      1.0  0.30814  0.98757  0.51502  1.0000
  C   C547      1.0  0.17379  0.97137  0.30670  1.0000
  H   H975      1.0  0.21424  0.97432  0.25967  1.0000
  C   C548      1.0  0.21187  0.97241  0.51040  1.0000
  C   C549      1.0  0.29940  0.92108  0.47667  1.0000
  C   C550      1.0  0.13330  0.95540  0.33982  1.0000
  H   H976      1.0  0.18472  0.98931  0.22857  1.0000
  H   H977      1.0  0.29714  0.97772  0.14446  1.0000
  C   C551      1.0  0.22232  0.84604  0.20093  1.0000
  H   H978      1.0  0.30115  0.84037  0.06290  1.0000
  H   H979      1.0  0.47141  0.91875  0.30610  1.0000
  C   C552      1.0  0.15868  0.96157  0.34743  1.0000
  H   H980      1.0  0.37414  0.97310  0.14637  1.0000
  H   H981      1.0  0.32300  0.96445  0.17005  1.0000
  H   H982      1.0  0.26875  0.93872  0.45012  1.0000
  C   C553      1.0  0.29202  0.98401  0.17241  1.0000
  H   H983      1.0  0.18462  0.75560  0.15742  1.0000
  C   C554      1.0  0.32403  0.92864  0.49100  1.0000
  C   C555      1.0  0.32786  0.98498  0.42398  1.0000
  C   C556      1.0  0.34109  0.97231  0.17448  1.0000
  H   H984      1.0  0.22407  0.77780  0.16427  1.0000
  H   H985      1.0  0.26850  0.83169  0.19900  1.0000
  H   H986      1.0  0.25566  0.89964  0.47105  1.0000
  H   H987      1.0  0.27449  0.84932  0.10923  1.0000
  C   C557      1.0  0.27146  0.98868  0.05558  1.0000
  H   H988      1.0  0.24353  0.81882  0.23100  1.0000
  C   C558      1.0  0.46172  0.95557  0.30068  1.0000
  H   H989      1.0  0.29269  0.96843  0.42235  1.0000
  C   C559      1.0  0.10576  0.77191  0.48778  1.0000
  H   H990      1.0  0.28575  0.83137  0.13653  1.0000
  C   C560      1.0  0.19203  0.79884  0.05133  1.0000
  H   H991      1.0  0.12944  0.94469  0.31557  1.0000
  H   H992      1.0  0.34121  0.99152  0.25681  1.0000
  C   C561      1.0  0.45904  0.95525  0.34407  1.0000
  H   H993      1.0  0.25031  0.80348  0.12120  1.0000
  H   H994      1.0  0.35257  0.97222  0.10954  1.0000
  N   N33       1.0  0.23839  0.82079  0.16494  1.0000
  C   C562      1.0  0.21463  0.80570  0.17183  1.0000
  H   H995      1.0  0.16179  0.97198  0.37223  1.0000
  H   H996      1.0  0.29139  0.94881  0.04915  1.0000
  H   H997      1.0  0.28878  0.92670  0.49849  1.0000
  H   H998      1.0  0.23813  0.94811  0.36124  1.0000
  H   H999      1.0  0.34520  0.96648  0.20526  1.0000
  H   H1000     1.0  0.22782  0.84496  0.13440  1.0000
  C   C563      1.0  0.23608  0.84177  0.16317  1.0000
  H   H1001     1.0  0.32443  0.89981  0.43170  1.0000
  H   H1002     1.0  0.20212  0.81186  0.15587  1.0000
  H   H1003     1.0  0.12473  0.81350  0.51229  1.0000
  C   C564      1.0  0.20806  0.96935  0.33924  1.0000
  C   C565      1.0  0.24120  0.96270  0.37483  1.0000
  H   H1004     1.0  0.24433  0.78595  0.21733  1.0000
  H   H1005     1.0  0.16260  0.94770  0.35939  1.0000
  H   H1006     1.0  0.28952  0.97260  0.19957  1.0000
  H   H1007     1.0  0.09619  0.75401  0.43574  1.0000
  Fe  Fe67      1.0  0.27251  0.89191  0.07245  1.0000
  H   H1008     1.0  0.25313  0.85349  0.16093  1.0000
  H   H1009     1.0  0.19518  0.97438  0.51340  1.0000
  H   H1010     1.0  0.19929  0.96564  0.37118  1.0000
  H   H1011     1.0  0.26681  0.79581  0.17595  1.0000
  C   C566      1.0  0.27106  0.96888  0.05073  1.0000
  C   C567      1.0  0.27181  0.92778  0.42927  1.0000
  H   H1012     1.0  0.29177  0.98824  0.33383  1.0000
  H   H1013     1.0  0.31488  0.97819  0.32484  1.0000
  H   H1014     1.0  0.44809  0.90419  0.37015  1.0000
  C   C568      1.0  0.30071  0.98212  0.31022  1.0000
  C   C569      1.0  0.24950  0.81896  0.12341  1.0000
  S   S136      1.0  0.16717  0.75889  0.06117  1.0000
  C   C570      1.0  0.17176  0.78446  0.06885  1.0000
  C   C571      1.0  0.19691  0.81926  0.05798  1.0000
  C   C572      1.0  0.32376  0.89421  0.36759  1.0000
  C   C573      1.0  0.22111  0.86759  0.19572  1.0000
  C   C574      1.0  0.37694  0.97295  0.52217  1.0000
  H   H1015     1.0  0.14082  0.79648  0.51451  1.0000
  C   C575      1.0  0.25237  0.90764  0.44194  1.0000
  H   H1016     1.0  0.20505  0.95465  0.32577  1.0000
  C   C576      1.0  0.31201  0.94737  0.41445  1.0000
  C   C577      1.0  0.09507  0.77589  0.52943  1.0000
  H   H1017     1.0  0.23174  0.96006  0.40598  1.0000
  C   C578      1.0  0.30807  0.96553  0.43436  1.0000
  C   C579      1.0  0.31225  0.97919  0.05512  1.0000
  H   H1018     1.0  0.11121  0.78603  0.46606  1.0000
  S   S137      1.0  0.41471  0.98306  0.33875  1.0000
  H   H1019     1.0  0.16319  0.84097  0.50832  1.0000
  C   C580      1.0  0.22885  0.98546  0.48136  1.0000
  H   H1020     1.0  0.32956  0.98994  0.39011  1.0000
  Fe  Fe68      1.0  0.24605  0.91890  0.04042  1.0000
  C   C581      1.0  0.32523  0.99124  0.24156  1.0000
  H   H1021     1.0  0.12085  0.76680  0.49228  1.0000
  H   H1022     1.0  0.11526  0.79796  0.04046  1.0000
  C   C582      1.0  0.44861  0.99039  0.43870  1.0000
  C   C583      1.0  0.08853  0.75578  0.46642  1.0000
  H   H1023     1.0  0.45337  0.97959  0.41977  1.0000
  H   H1024     1.0  0.23794  0.99224  0.35979  1.0000
  H   H1025     1.0  0.42976  0.98520  0.44442  1.0000
  H   H1026     1.0  0.32800  0.97545  0.05441  1.0000
  C   C584      1.0  0.16903  0.83141  0.53180  1.0000
  H   H1027     1.0  0.00271  0.75763  0.00273  1.0000
  C   C585      1.0  0.99919  0.75241  0.79493  1.0000
  H   H1028     1.0  0.00247  0.76844  0.78261  1.0000
  H   H1029     1.0  0.99943  0.75977  0.85815  1.0000
  H   H1030     1.0  0.08477  0.76104  0.54571  1.0000
  H   H1031     1.0  0.45895  0.98918  0.60793  1.0000
  H   H1032     1.0  0.41894  0.98590  0.58837  1.0000
  H   H1033     1.0  0.01077  0.75350  0.92852  1.0000
  H   H1034     1.0  0.14123  0.82754  0.57679  1.0000
  H   H1035     1.0  0.42322  0.97294  0.54453  1.0000
  H   H1036     1.0  0.02637  0.75922  0.83544  1.0000
  H   H1037     1.0  0.31939  0.90260  0.53697  1.0000
  H   H1038     1.0  0.14148  0.75413  0.81190  1.0000
  H   H1039     1.0  0.46360  0.97714  0.56385  1.0000
  C   C586      1.0  0.42872  0.97653  0.57605  1.0000
  C   C587      1.0  0.22945  0.88702  0.80950  1.0000
  H   H1040     1.0  0.14930  0.77305  0.55394  1.0000
  H   H1041     1.0  0.13300  0.74762  0.95115  1.0000
  H   H1042     1.0  0.40600  0.99149  0.85460  1.0000
  H   H1043     1.0  0.09376  0.81053  0.56161  1.0000
  H   H1044     1.0  0.09784  0.78209  0.00551  1.0000
  C   C588      1.0  0.38004  0.98796  0.54961  1.0000
  H   H1045     1.0  0.18130  0.84153  0.55080  1.0000
  H   H1046     1.0  0.06487  0.77454  0.59034  1.0000
  H   H1047     1.0  0.11234  0.84615  0.83083  1.0000
  C   C589      1.0  0.12421  0.79602  0.69940  1.0000
  H   H1048     1.0  0.15195  0.76170  0.62886  1.0000
  C   C590      1.0  0.13493  0.83750  0.67555  1.0000
  C   C591      1.0  0.11316  0.82636  0.69440  1.0000
  C   C592      1.0  0.13109  0.80363  0.53438  1.0000
  H   H1049     1.0  0.11353  0.76930  0.87507  1.0000
  H   H1050     1.0  0.12389  0.74804  0.88379  1.0000
  C   C593      1.0  0.10764  0.80550  0.70596  1.0000
  H   H1051     1.0  0.24179  0.94268  0.55134  1.0000
  H   H1052     1.0  0.34311  0.92434  0.54419  1.0000
  H   H1053     1.0  0.29642  0.95311  0.55122  1.0000
  H   H1054     1.0  0.29421  0.98416  0.96342  1.0000
  H   H1055     1.0  0.12067  0.78027  0.70983  1.0000
  C   C594      1.0  0.31711  0.98473  0.54264  1.0000
  C   C595      1.0  0.29811  0.94408  0.72096  1.0000
  H   H1056     1.0  0.13305  0.84572  0.89447  1.0000
  H   H1057     1.0  0.08754  0.81763  0.87796  1.0000
  C   C596      1.0  0.30149  0.96622  0.56979  1.0000
  H   H1058     1.0  0.07710  0.75664  0.92934  1.0000
  H   H1059     1.0  0.31055  0.96222  0.59654  1.0000
  S   S138      1.0  0.08013  0.79158  0.72871  1.0000
  H   H1060     1.0  0.11257  0.80854  0.98866  1.0000
  H   H1061     1.0  0.43874  0.97862  0.85711  1.0000
  H   H1062     1.0  0.21499  0.97630  0.93891  1.0000
  H   H1063     1.0  0.36180  0.96924  0.97996  1.0000
  C   C597      1.0  0.00773  0.75131  0.83863  1.0000
  N   N34       1.0  0.11110  0.78802  0.55886  1.0000
  C   C598      1.0  0.14882  0.81761  0.56018  1.0000
  H   H1064     1.0  0.26976  0.98505  0.85201  1.0000
  H   H1065     1.0  0.37014  0.98551  0.84436  1.0000
  H   H1066     1.0  0.37531  0.98366  0.58246  1.0000
  C   C599      1.0  0.11603  0.81619  0.83720  1.0000
  C   C600      1.0  0.11850  0.77426  0.58983  1.0000
  C   C601      1.0  0.07602  0.78579  0.60879  1.0000
  H   H1067     1.0  0.08041  0.77752  0.63648  1.0000
  C   C602      1.0  0.21643  0.95693  0.53591  1.0000
  H   H1068     1.0  0.10331  0.76243  0.60572  1.0000
  C   C603      1.0  0.06204  0.79867  0.62463  1.0000
  H   H1069     1.0  0.07950  0.80685  0.82948  1.0000
  H   H1070     1.0  0.40733  0.97629  0.92875  1.0000
  C   C604      1.0  0.37913  0.96778  0.97494  1.0000
  Fe  Fe69      1.0  0.06876  0.75782  0.72287  1.0000
  H   H1071     1.0  0.28578  0.96909  0.58187  1.0000
  H   H1072     1.0  0.11962  0.87630  0.79826  1.0000
  S   S139      1.0  0.27713  0.91290  0.01344  1.0000
  H   H1073     1.0  0.17851  0.79214  0.96826  1.0000
  C   C605      1.0  0.13394  0.76271  0.57218  1.0000
  H   H1074     1.0  0.11670  0.77289  0.94382  1.0000
  H   H1075     1.0  0.12714  0.78274  0.61530  1.0000
  H   H1076     1.0  0.11189  0.75275  0.81169  1.0000
  H   H1077     1.0  0.10047  0.83387  0.69946  1.0000
  H   H1078     1.0  0.31468  0.88278  0.77154  1.0000
  C   C606      1.0  0.09124  0.80784  0.85504  1.0000
  H   H1079     1.0  0.10894  0.80780  0.60633  1.0000
  C   C607      1.0  0.15089  0.75797  0.94835  1.0000
  C   C608      1.0  0.12788  0.76345  0.86759  1.0000
  S   S140      1.0  0.44822  0.98557  0.70278  1.0000
  H   H1080     1.0  0.18366  0.81875  0.73402  1.0000
  C   C609      1.0  0.15125  0.82778  0.66824  1.0000
  H   H1081     1.0  0.18041  0.81756  0.88386  1.0000
  C   C610      1.0  0.33269  0.94844  0.67794  1.0000
  C   C611      1.0  0.14801  0.86691  0.77188  1.0000
  H   H1082     1.0  0.40339  0.94912  0.60443  1.0000
  S   S141      1.0  0.18016  0.89669  0.66718  1.0000
  H   H1083     1.0  0.04717  0.78893  0.64520  1.0000
  H   H1084     1.0  0.11881  0.80545  0.81560  1.0000
  C   C612      1.0  0.13455  0.78932  0.99174  1.0000
  H   H1085     1.0  0.12987  0.89256  0.72429  1.0000
  H   H1086     1.0  0.35365  0.98634  0.89162  1.0000
  H   H1087     1.0  0.30288  0.95534  0.90022  1.0000
  H   H1088     1.0  0.14001  0.86165  0.74286  1.0000
  S   S142      1.0  0.22114  0.89491  0.00861  1.0000
  H   H1089     1.0  0.17203  0.88530  0.89790  1.0000
  C   C613      1.0  0.12889  0.76183  0.82059  1.0000
  H   H1090     1.0  0.29187  0.91820  0.89794  1.0000
  H   H1091     1.0  0.23219  0.94288  0.90815  1.0000
  C   C614      1.0  0.13323  0.78490  0.94537  1.0000
  H   H1092     1.0  0.27247  0.94344  0.90217  1.0000
  C   C615      1.0  0.12115  0.83745  0.81314  1.0000
  C   C616      1.0  0.14494  0.86005  0.87879  1.0000
  H   H1093     1.0  0.07249  0.81041  0.64305  1.0000
  H   H1094     1.0  0.13469  0.86995  0.86919  1.0000
  N   N35       1.0  0.14613  0.84902  0.80320  1.0000
  H   H1095     1.0  0.14777  0.89075  0.81164  1.0000
  H   H1096     1.0  0.14990  0.80210  0.99616  1.0000
  H   H1097     1.0  0.14668  0.82823  0.75724  1.0000
  C   C617      1.0  0.14574  0.80702  0.68009  1.0000
  H   H1098     1.0  0.15695  0.90775  0.74073  1.0000
  H   H1099     1.0  0.38017  0.97208  0.90821  1.0000
  H   H1100     1.0  0.13075  0.91024  0.76228  1.0000
  H   H1101     1.0  0.31450  0.92432  0.55754  1.0000
  C   C618      1.0  0.32147  0.95361  0.71176  1.0000
  C   C619      1.0  0.21707  0.90726  0.85663  1.0000
  C   C620      1.0  0.29688  0.92512  0.66101  1.0000
  H   H1102     1.0  0.22802  0.90569  0.91923  1.0000
  H   H1103     1.0  0.13157  0.79839  0.92659  1.0000
  C   C621      1.0  0.16072  0.87020  0.91131  1.0000
  H   H1104     1.0  0.16673  0.84452  0.85414  1.0000
  H   H1105     1.0  0.17141  0.86085  0.92229  1.0000
  H   H1106     1.0  0.08802  0.79243  0.87110  1.0000
  C   C622      1.0  0.13891  0.89931  0.75118  1.0000
  C   C623      1.0  0.28184  0.87968  0.74825  1.0000
  H   H1107     1.0  0.22141  0.94359  0.96090  1.0000
  H   H1108     1.0  0.37741  0.95148  0.97526  1.0000
  H   H1109     1.0  0.31527  0.87180  0.83733  1.0000
  C   C624      1.0  0.11372  0.79482  0.00729  1.0000
  H   H1110     1.0  0.13896  0.85349  0.66602  1.0000
  H   H1111     1.0  0.04154  0.75027  0.89043  1.0000
  H   H1112     1.0  0.15188  0.79300  0.86535  1.0000
  S   S143      1.0  0.28119  0.90849  0.62748  1.0000
  H   H1113     1.0  0.30087  0.99055  0.90833  1.0000
  H   H1114     1.0  0.37894  0.95039  0.75248  1.0000
  H   H1115     1.0  0.16506  0.77385  0.86612  1.0000
  H   H1116     1.0  0.13357  0.77696  0.80258  1.0000
  C   C625      1.0  0.32286  0.90115  0.86211  1.0000
  H   H1117     1.0  0.17359  0.86969  0.83216  1.0000
  Fe  Fe70      1.0  0.36961  0.99184  0.71472  1.0000
  C   C626      1.0  0.45471  0.98760  0.57489  1.0000
  N   N36       1.0  0.31957  0.91450  0.82519  1.0000
  H   H1118     1.0  0.12738  0.81656  0.86302  1.0000
  C   C627      1.0  0.39066  0.97905  0.93311  1.0000
  C   C628      1.0  0.20199  0.82914  0.93199  1.0000
  H   H1119     1.0  0.15041  0.87228  0.93866  1.0000
  C   C629      1.0  0.15702  0.83525  0.78261  1.0000
  C   C630      1.0  0.29193  0.92791  0.86888  1.0000
  N   N37       1.0  0.15251  0.77849  0.92708  1.0000
  C   C631      1.0  0.28857  0.94731  0.88205  1.0000
  C   C632      1.0  0.22068  0.94859  0.92745  1.0000
  H   H1120     1.0  0.27277  0.86702  0.77210  1.0000
  H   H1121     1.0  0.22630  0.97569  0.88654  1.0000
  H   H1122     1.0  0.24867  0.86859  0.83648  1.0000
  H   H1123     1.0  0.35992  0.95029  0.82173  1.0000
  H   H1124     1.0  0.34751  0.88033  0.90835  1.0000
  H   H1125     1.0  0.21083  0.83706  0.73972  1.0000
  H   H1126     1.0  0.16573  0.82121  0.93061  1.0000
  C   C633      1.0  0.15053  0.77782  0.88071  1.0000
  S   S144      1.0  0.20350  0.91012  0.77707  1.0000
  H   H1127     1.0  0.15729  0.82247  0.80538  1.0000
  H   H1128     1.0  0.18160  0.85396  0.73333  1.0000
  S   S145      1.0  0.19483  0.94063  0.57193  1.0000
  H   H1129     1.0  0.11221  0.83516  0.78368  1.0000
  H   H1130     1.0  0.15543  0.75936  0.98106  1.0000
  C   C634      1.0  0.31462  0.93247  0.84157  1.0000
  S   S146      1.0  0.39183  0.98719  0.66243  1.0000
  H   H1131     1.0  0.28742  0.95736  0.85418  1.0000
  C   C635      1.0  0.30406  0.89262  0.76408  1.0000
  H   H1132     1.0  0.19223  0.85548  0.78461  1.0000
  C   C636      1.0  0.21789  0.90092  0.81661  1.0000
  H   H1133     1.0  0.33752  0.85710  0.88450  1.0000
  S   S147      1.0  0.33655  0.97090  0.74467  1.0000
  C   C637      1.0  0.13777  0.88301  0.78670  1.0000
  H   H1134     1.0  0.26296  0.97347  0.91831  1.0000
  H   H1135     1.0  0.27051  0.88893  0.74058  1.0000
  H   H1136     1.0  0.15563  0.80868  0.58332  1.0000
  H   H1137     1.0  0.16616  0.87531  0.76211  1.0000
  H   H1138     1.0  0.05567  0.80608  0.59808  1.0000
  H   H1139     1.0  0.35082  0.95524  0.67142  1.0000
  S   S148      1.0  0.23172  0.92908  0.66118  1.0000
  H   H1140     1.0  0.33000  0.98312  0.83257  1.0000
  C   C638      1.0  0.33320  0.87074  0.89223  1.0000
  H   H1141     1.0  0.32915  0.93021  0.62649  1.0000
  H   H1142     1.0  0.31437  0.94368  0.81501  1.0000
  H   H1143     1.0  0.15832  0.79942  0.67475  1.0000
  H   H1144     1.0  0.13503  0.77586  0.01199  1.0000
  H   H1145     1.0  0.39801  0.95219  0.79375  1.0000
  H   H1146     1.0  0.20166  0.82858  0.96655  1.0000
  H   H1147     1.0  0.28639  0.89212  0.82422  1.0000
  Fe  Fe71      1.0  0.25208  0.88731  0.98615  1.0000
  H   H1148     1.0  0.19528  0.82087  0.78479  1.0000
  H   H1149     1.0  0.28942  0.94777  0.74752  1.0000
  Fe  Fe72      1.0  0.24396  0.90397  0.64128  1.0000
  H   H1150     1.0  0.42645  0.95930  0.63668  1.0000
  C   C639      1.0  0.34078  0.92236  0.79570  1.0000
  H   H1151     1.0  0.34529  0.88637  0.83163  1.0000
  H   H1152     1.0  0.31749  0.86581  0.91374  1.0000
  S   S149      1.0  0.22372  0.88103  0.69223  1.0000
  C   C640      1.0  0.17944  0.81558  0.91847  1.0000
  H   H1153     1.0  0.18336  0.75688  0.91753  1.0000
  C   C641      1.0  0.32937  0.88229  0.85220  1.0000
  H   H1154     1.0  0.27700  0.92038  0.85173  1.0000
  C   C642      1.0  0.23991  0.88643  0.88174  1.0000
  H   H1155     1.0  0.29038  0.91396  0.78909  1.0000
  C   C643      1.0  0.09819  0.79915  0.58313  1.0000
  H   H1156     1.0  0.28566  0.87333  0.71938  1.0000
  H   H1157     1.0  0.20799  0.91786  0.86245  1.0000
  H   H1158     1.0  0.20296  0.94192  0.91857  1.0000
  H   H1159     1.0  0.30683  0.89522  0.88274  1.0000
  Fe  Fe73      1.0  0.20447  0.91829  0.61711  1.0000
  C   C644      1.0  0.15881  0.85584  0.84125  1.0000
  H   H1160     1.0  0.23013  0.88189  0.77901  1.0000
  C   C645      1.0  0.36248  0.93603  0.81341  1.0000
  H   H1161     1.0  0.34549  0.90987  0.78281  1.0000
  S   S150      1.0  0.17840  0.84062  0.64323  1.0000
  S   S151      1.0  0.21817  0.89454  0.59401  1.0000
  C   C646      1.0  0.32043  0.93408  0.65275  1.0000
  H   H1162     1.0  0.38944  0.97383  0.00109  1.0000
  C   C647      1.0  0.24005  0.87955  0.84212  1.0000
  H   H1163     1.0  0.36714  0.92816  0.84133  1.0000
  H   H1164     1.0  0.43100  0.94632  0.59238  1.0000
  Fe  Fe74      1.0  0.20922  0.90518  0.70918  1.0000
  C   C648      1.0  0.42210  0.95660  0.60413  1.0000
  H   H1165     1.0  0.38689  0.92856  0.77174  1.0000
  C   C649      1.0  0.38277  0.94209  0.78079  1.0000
  C   C650      1.0  0.17542  0.79309  0.93445  1.0000
  H   H1166     1.0  0.18948  0.78883  0.91909  1.0000
  C   C651      1.0  0.18182  0.84519  0.76360  1.0000
  C   C652      1.0  0.25214  0.98133  0.93325  1.0000
  H   H1167     1.0  0.20481  0.84504  0.91915  1.0000
  C   C653      1.0  0.28585  0.92984  0.69565  1.0000
  H   H1168     1.0  0.26788  0.92239  0.70330  1.0000
  S   S152      1.0  0.25553  0.87837  0.92061  1.0000
  C   C654      1.0  0.22760  0.97161  0.92014  1.0000
  C   C655      1.0  0.29931  0.90339  0.80212  1.0000
  H   H1169     1.0  0.32828  0.94033  0.86124  1.0000
  H   H1170     1.0  0.33577  0.91002  0.88197  1.0000
  Fe  Fe75      1.0  0.19617  0.87384  0.64744  1.0000
  H   H1171     1.0  0.33723  0.93120  0.76805  1.0000
  H   H1172     1.0  0.25204  0.97710  0.96739  1.0000
  H   H1173     1.0  0.31315  0.90402  0.73785  1.0000
  C   C656      1.0  0.22822  0.90022  0.88895  1.0000
  H   H1174     1.0  0.21657  0.82443  0.92026  1.0000
  C   C657      1.0  0.19352  0.82941  0.75514  1.0000
  C   C658      1.0  0.36193  0.99481  0.86148  1.0000
  C   C659      1.0  0.32526  0.91935  0.53511  1.0000
  C   C660      1.0  0.44916  0.99474  0.85040  1.0000
  H   H1175     1.0  0.12413  0.75134  0.55237  1.0000
  H   H1176     1.0  0.37041  0.95724  0.53448  1.0000
  C   C661      1.0  0.16607  0.74672  0.92813  1.0000
  H   H1177     1.0  0.00833  0.74546  0.77329  1.0000
  C   C662      1.0  0.14213  0.75118  0.60741  1.0000
  H   H1178     1.0  0.20418  0.79411  0.03292  1.0000
  H   H1179     1.0  0.87468  0.18799  0.15070  1.0000
  C   C663      1.0  0.64506  0.04337  0.31919  1.0000
  S   S153      1.0  0.72393  0.08105  0.08087  1.0000
  Fe  Fe76      1.0  0.75970  0.04267  0.29068  1.0000
  S   S154      1.0  0.76595  0.07413  0.30801  1.0000
  S   S155      1.0  0.75879  0.03311  0.22517  1.0000
  Fe  Fe77      1.0  0.75726  0.02452  0.38211  1.0000
  S   S156      1.0  0.76398  0.05480  0.40707  1.0000
  C   C664      1.0  0.92745  0.21950  0.16113  1.0000
  Fe  Fe78      1.0  0.73936  0.05946  0.36056  1.0000
  S   S157      1.0  0.71218  0.07351  0.37554  1.0000
  Fe  Fe79      1.0  0.79021  0.06716  0.35248  1.0000
  S   S158      1.0  0.82696  0.08757  0.34967  1.0000
  S   S159      1.0  0.73084  0.02858  0.33932  1.0000
  S   S160      1.0  0.78569  0.03635  0.33155  1.0000
  H   H1180     1.0  0.55312  0.00548  0.52016  1.0000
  C   C665      1.0  0.77772  0.12819  0.12388  1.0000
  H   H1181     1.0  0.75218  0.14318  0.13381  1.0000
  Fe  Fe80      1.0  0.95177  0.21114  0.39443  1.0000
  S   S161      1.0  0.92258  0.21867  0.42510  1.0000
  Fe  Fe81      1.0  0.90038  0.19644  0.38563  1.0000
  S   S162      1.0  0.86472  0.17591  0.40753  1.0000
  H   H1182     1.0  0.77095  0.11798  0.15294  1.0000
  S   S163      1.0  0.92932  0.18704  0.35878  1.0000
  N   N38       1.0  0.70021  0.05836  0.50565  1.0000
  S   S164      1.0  0.90247  0.22038  0.33329  1.0000
  C   C666      1.0  0.82727  0.13162  0.09866  1.0000
  H   H1183     1.0  0.62994  0.99821  0.41159  1.0000
  H   H1184     1.0  0.82805  0.09573  0.06803  1.0000
  H   H1185     1.0  0.93834  0.23913  0.51413  1.0000
  H   H1186     1.0  0.67986  0.08969  0.33721  1.0000
  H   H1187     1.0  0.91175  0.23774  0.24787  1.0000
  C   C667      1.0  0.68604  0.06158  0.35523  1.0000
  C   C668      1.0  0.67764  0.04052  0.35612  1.0000
  C   C669      1.0  0.65696  0.03137  0.33864  1.0000
  H   H1188     1.0  0.68706  0.03131  0.37025  1.0000
  H   H1189     1.0  0.65071  0.01514  0.33884  1.0000
  C   C670      1.0  0.83680  0.11201  0.36651  1.0000
  C   C671      1.0  0.82205  0.12115  0.38475  1.0000
  C   C672      1.0  0.83079  0.14072  0.39734  1.0000
  C   C673      1.0  0.85427  0.15133  0.39155  1.0000
  C   C674      1.0  0.86893  0.14216  0.37329  1.0000
  C   C675      1.0  0.86023  0.12262  0.36084  1.0000
  H   H1190     1.0  0.80397  0.11311  0.38932  1.0000
  H   H1191     1.0  0.81934  0.14767  0.41166  1.0000
  H   H1192     1.0  0.88704  0.15004  0.36906  1.0000
  H   H1193     1.0  0.87177  0.11563  0.34692  1.0000
  H   H1194     1.0  0.63353  0.02591  0.45613  1.0000
  H   H1195     1.0  0.67496  0.05944  0.04191  1.0000
  C   C676      1.0  0.67353  0.07343  0.33760  1.0000
  C   C677      1.0  0.73527  0.06836  0.11961  1.0000
  C   C678      1.0  0.74073  0.05091  0.11238  1.0000
  C   C679      1.0  0.74829  0.04039  0.14489  1.0000
  C   C680      1.0  0.75035  0.04722  0.18470  1.0000
  C   C681      1.0  0.74551  0.06499  0.19152  1.0000
  C   C682      1.0  0.73821  0.07562  0.15890  1.0000
  H   H1196     1.0  0.73874  0.04531  0.08203  1.0000
  H   H1197     1.0  0.75226  0.02674  0.13934  1.0000
  H   H1198     1.0  0.74715  0.07042  0.22203  1.0000
  H   H1199     1.0  0.73430  0.08924  0.16450  1.0000
  H   H1200     1.0  0.64400  0.07367  0.30461  1.0000
  H   H1201     1.0  0.56135  0.01963  0.44588  1.0000
  H   H1202     1.0  0.86655  0.20719  0.20663  1.0000
  N   N39       1.0  0.65892  0.07112  0.16374  1.0000
  C   C683      1.0  0.65895  0.05517  0.19845  1.0000
  C   C684      1.0  0.63645  0.07576  0.16558  1.0000
  C   C685      1.0  0.66121  0.06255  0.12290  1.0000
  C   C686      1.0  0.67875  0.09020  0.16434  1.0000
  C   C687      1.0  0.68269  0.09912  0.20675  1.0000
  C   C688      1.0  0.68039  0.04802  0.19804  1.0000
  C   C689      1.0  0.66075  0.07643  0.08286  1.0000
  C   C690      1.0  0.62385  0.07378  0.20918  1.0000
  C   C691      1.0  0.60410  0.08263  0.20711  1.0000
  C   C692      1.0  0.70385  0.11776  0.20322  1.0000
  C   C693      1.0  0.68264  0.03721  0.23998  1.0000
  H   H1203     1.0  0.68040  0.00892  0.43194  1.0000
  H   H1204     1.0  0.64380  0.04155  0.19768  1.0000
  H   H1205     1.0  0.65696  0.06040  0.22946  1.0000
  H   H1206     1.0  0.63870  0.09120  0.15021  1.0000
  H   H1207     1.0  0.62377  0.06539  0.14741  1.0000
  H   H1208     1.0  0.64750  0.04785  0.12228  1.0000
  H   H1209     1.0  0.67762  0.05914  0.11952  1.0000
  H   H1210     1.0  0.69493  0.08793  0.15282  1.0000
  H   H1211     1.0  0.67681  0.10240  0.14169  1.0000
  H   H1212     1.0  0.68542  0.08812  0.23126  1.0000
  H   H1213     1.0  0.66802  0.10396  0.21693  1.0000
  H   H1214     1.0  0.67966  0.03748  0.17385  1.0000
  H   H1215     1.0  0.69606  0.06092  0.19150  1.0000
  H   H1216     1.0  0.67636  0.08978  0.07893  1.0000
  H   H1217     1.0  0.64564  0.08184  0.08381  1.0000
  H   H1218     1.0  0.61647  0.05756  0.22080  1.0000
  H   H1219     1.0  0.63524  0.08137  0.23239  1.0000
  H   H1220     1.0  0.59501  0.08028  0.23855  1.0000
  H   H1221     1.0  0.61055  0.09910  0.19716  1.0000
  H   H1222     1.0  0.59174  0.07501  0.18501  1.0000
  H   H1223     1.0  0.70204  0.12962  0.17963  1.0000
  H   H1224     1.0  0.70609  0.12400  0.23389  1.0000
  H   H1225     1.0  0.71937  0.11375  0.19434  1.0000
  H   H1226     1.0  0.65691  0.01509  0.05773  1.0000
  H   H1227     1.0  0.69795  0.03210  0.23803  1.0000
  H   H1228     1.0  0.66725  0.02399  0.24904  1.0000
  H   H1229     1.0  0.83826  0.10577  0.16313  1.0000
  C   C694      1.0  0.66692  0.07217  0.48543  1.0000
  H   H1230     1.0  0.87024  0.15230  0.12763  1.0000
  H   H1231     1.0  0.88619  0.21983  0.49383  1.0000
  C   C695      1.0  0.85445  0.18584  0.27829  1.0000
  H   H1232     1.0  0.87007  0.19912  0.27791  1.0000
  H   H1233     1.0  0.80362  0.11328  0.29617  1.0000
  H   H1234     1.0  0.94898  0.20392  0.49719  1.0000
  Fe  Fe82      1.0  0.60366  0.99985  0.31031  1.0000
  C   C696      1.0  0.83368  0.19306  0.28917  1.0000
  H   H1235     1.0  0.89468  0.17654  0.28603  1.0000
  H   H1236     1.0  0.87349  0.15239  0.28913  1.0000
  H   H1237     1.0  0.83662  0.19549  0.20571  1.0000
  C   C697      1.0  0.72585  0.06414  0.49853  1.0000
  H   H1238     1.0  0.83428  0.20666  0.26810  1.0000
  H   H1239     1.0  0.68516  0.04784  0.26432  1.0000
  C   C698      1.0  0.62961  0.01057  0.47043  1.0000
  H   H1240     1.0  0.87370  0.16029  0.20613  1.0000
  C   C699      1.0  0.80590  0.12549  0.27044  1.0000
  C   C700      1.0  0.81691  0.07789  0.19517  1.0000
  H   H1241     1.0  0.73069  0.06675  0.46427  1.0000
  H   H1242     1.0  0.82951  0.14695  0.30310  1.0000
  H   H1243     1.0  0.68654  0.04523  0.44978  1.0000
  H   H1244     1.0  0.88678  0.15127  0.08102  1.0000
  H   H1245     1.0  0.78908  0.08564  0.13964  1.0000
  H   H1246     1.0  0.86303  0.21863  0.13013  1.0000
  H   H1247     1.0  0.85586  0.17538  0.30518  1.0000
  C   C701      1.0  0.85188  0.20318  0.12630  1.0000
  H   H1248     1.0  0.79167  0.14146  0.13152  1.0000
  H   H1249     1.0  0.71678  0.03084  0.45552  1.0000
  C   C702      1.0  0.92484  0.22198  0.20346  1.0000
  H   H1250     1.0  0.58361  0.03172  0.47844  1.0000
  H   H1251     1.0  0.73228  0.05169  0.51040  1.0000
  C   C703      1.0  0.87604  0.17148  0.22947  1.0000
  H   H1252     1.0  0.91802  0.16486  0.23304  1.0000
  C   C704      1.0  0.70175  0.02450  0.47841  1.0000
  H   H1253     1.0  0.77012  0.08938  0.47486  1.0000
  H   H1254     1.0  0.83176  0.07370  0.20653  1.0000
  H   H1255     1.0  0.84209  0.13322  0.26924  1.0000
  C   C705      1.0  0.82923  0.14124  0.27206  1.0000
  H   H1256     1.0  0.96904  0.24288  0.18442  1.0000
  C   C706      1.0  0.83361  0.19880  0.33384  1.0000
  S   S165      1.0  0.95797  0.23515  0.34048  1.0000
  H   H1257     1.0  0.81732  0.18111  0.28651  1.0000
  H   H1258     1.0  0.82768  0.13695  0.13028  1.0000
  C   C707      1.0  0.73999  0.08312  0.51815  1.0000
  H   H1259     1.0  0.74374  0.12281  0.10132  1.0000
  H   H1260     1.0  0.83076  0.18522  0.35644  1.0000
  C   C708      1.0  0.66015  0.06523  0.04409  1.0000
  C   C709      1.0  0.65327  0.06437  0.31912  1.0000
  H   H1261     1.0  0.84521  0.17270  0.15216  1.0000
  C   C710      1.0  0.80417  0.09939  0.14007  1.0000
  C   C711      1.0  0.83357  0.15834  0.23596  1.0000
  H   H1262     1.0  0.88989  0.18506  0.21516  1.0000
  C   C712      1.0  0.85678  0.18767  0.15771  1.0000
  H   H1263     1.0  0.79201  0.13231  0.27472  1.0000
  C   C713      1.0  0.66221  0.09002  0.46105  1.0000
  C   C714      1.0  0.75828  0.13565  0.10886  1.0000
  C   C715      1.0  0.85173  0.13157  0.08503  1.0000
  Fe  Fe83      1.0  0.93240  0.21225  0.30832  1.0000
  H   H1264     1.0  0.81785  0.16289  0.23393  1.0000
  H   H1265     1.0  0.64349  0.08707  0.46048  1.0000
  C   C716      1.0  0.90452  0.15414  0.25499  1.0000
  N   N40       1.0  0.80806  0.11203  0.09837  1.0000
  H   H1266     1.0  0.64124  0.00586  0.18096  1.0000
  C   C717      1.0  0.78623  0.11687  0.09044  1.0000
  H   H1267     1.0  0.81011  0.08487  0.22032  1.0000
  H   H1268     1.0  0.80358  0.06386  0.18891  1.0000
  H   H1269     1.0  0.85522  0.19980  0.09408  1.0000
  C   C718      1.0  0.68898  0.04029  0.48262  1.0000
  C   C719      1.0  0.62600  0.00638  0.51389  1.0000
  H   H1270     1.0  0.85612  0.11882  0.10120  1.0000
  H   H1271     1.0  0.93623  0.20921  0.15151  1.0000
  H   H1272     1.0  0.77215  0.10280  0.08692  1.0000
  C   C720      1.0  0.81197  0.09946  0.06468  1.0000
  C   C721      1.0  0.85331  0.19251  0.20320  1.0000
  N   N41       1.0  0.85423  0.17664  0.23748  1.0000
  C   C722      1.0  0.88645  0.16373  0.26792  1.0000
  H   H1273     1.0  0.69908  0.08908  0.50615  1.0000
  H   H1274     1.0  0.80002  0.10776  0.16543  1.0000
  H   H1275     1.0  0.80462  0.11870  0.24039  1.0000
  C   C723      1.0  0.64612  0.00088  0.04631  1.0000
  H   H1276     1.0  0.83376  0.20272  0.13027  1.0000
  H   H1277     1.0  0.91260  0.15004  0.28313  1.0000
  H   H1278     1.0  0.81959  0.20528  0.33972  1.0000
  C   C724      1.0  0.82429  0.09253  0.15536  1.0000
  C   C725      1.0  0.91947  0.23076  0.13082  1.0000
  S   S166      1.0  0.93685  0.20858  0.23987  1.0000
  H   H1279     1.0  0.89660  0.14020  0.23994  1.0000
  Fe  Fe84      1.0  0.92775  0.24155  0.36947  1.0000
  S   S167      1.0  0.62112  0.03275  0.29150  1.0000
  C   C726      1.0  0.57504  0.01740  0.46517  1.0000
  H   H1280     1.0  0.83473  0.15107  0.20700  1.0000
  H   H1281     1.0  0.62830  0.00054  0.05343  1.0000
  H   H1282     1.0  0.83091  0.08465  0.13184  1.0000
  C   C727      1.0  0.76557  0.08685  0.50909  1.0000
  C   C728      1.0  0.69303  0.07599  0.48764  1.0000
  C   C729      1.0  0.90823  0.24429  0.14234  1.0000
  H   H1283     1.0  0.67156  0.99805  0.48508  1.0000
  H   H1284     1.0  0.49577  0.02704  0.51968  1.0000
  H   H1285     1.0  0.85003  0.21018  0.33919  1.0000
  H   H1286     1.0  0.74718  0.01640  0.48437  1.0000
  H   H1287     1.0  0.78820  0.12641  0.06032  1.0000
  H   H1288     1.0  0.77060  0.07378  0.52242  1.0000
  H   H1289     1.0  0.92262  0.22927  0.09850  1.0000
  H   H1290     1.0  0.76416  0.14670  0.08071  1.0000
  H   H1291     1.0  0.61986  0.99584  0.11922  1.0000
  H   H1292     1.0  0.65868  0.05863  0.46958  1.0000
  H   H1293     1.0  0.66959  0.10411  0.47594  1.0000
  H   H1294     1.0  0.70121  0.08130  0.45555  1.0000
  H   H1295     1.0  0.67159  0.03225  0.49730  1.0000
  C   C730      1.0  0.74294  0.00070  0.49651  1.0000
  H   H1296     1.0  0.70782  0.02007  0.50839  1.0000
  C   C731      1.0  0.86968  0.15114  0.09354  1.0000
  H   H1297     1.0  0.68707  0.99958  0.05958  1.0000
  H   H1298     1.0  0.79831  0.08452  0.06789  1.0000
  H   H1299     1.0  0.58792  0.01380  0.44493  1.0000
  C   C732      1.0  0.91364  0.23551  0.21538  1.0000
  H   H1300     1.0  0.69994  0.01070  0.17674  1.0000
  S   S168      1.0  0.89715  0.21664  0.03439  1.0000
  C   C733      1.0  0.68652  0.00534  0.46259  1.0000
  H   H1301     1.0  0.94524  0.24454  0.03987  1.0000
  H   H1302     1.0  0.66960  0.09206  0.42828  1.0000
  H   H1303     1.0  0.65839  0.07017  0.51722  1.0000
  C   C734      1.0  0.96518  0.21272  0.50731  1.0000
  H   H1304     1.0  0.82419  0.14388  0.07747  1.0000
  H   H1305     1.0  0.77543  0.10049  0.52333  1.0000
  H   H1306     1.0  0.71623  0.00372  0.24242  1.0000
  H   H1307     1.0  0.64410  0.05243  0.04523  1.0000
  H   H1308     1.0  0.90408  0.20727  0.52068  1.0000
  H   H1309     1.0  0.66327  0.99764  0.12272  1.0000
  C   C735      1.0  0.56515  0.00055  0.50057  1.0000
  H   H1310     1.0  0.96748  0.19589  0.10990  1.0000
  H   H1311     1.0  0.57926  0.99943  0.51967  1.0000
  H   H1312     1.0  0.86592  0.16448  0.07797  1.0000
  C   C736      1.0  0.89269  0.21671  0.52449  1.0000
  H   H1313     1.0  0.85339  0.13039  0.05102  1.0000
  H   H1314     1.0  0.73626  0.09684  0.50494  1.0000
  H   H1315     1.0  0.77609  0.00376  0.27414  1.0000
  Fe  Fe85      1.0  0.70440  0.06925  0.93216  1.0000
  S   S169      1.0  0.73571  0.06775  0.89647  1.0000
  S   S170      1.0  0.66988  0.06335  0.90526  1.0000
  Fe  Fe86      1.0  0.75515  0.09304  0.93244  1.0000
  S   S171      1.0  0.78460  0.11904  0.90065  1.0000
  Fe  Fe87      1.0  0.73818  0.04724  0.95185  1.0000
  S   S172      1.0  0.74358  0.01749  0.94266  1.0000
  H   H1316     1.0  0.83264  0.21609  0.94812  1.0000
  S   S173      1.0  0.76072  0.07212  0.98496  1.0000
  H   H1317     1.0  0.62069  0.01264  0.98404  1.0000
  Fe  Fe88      1.0  0.57970  0.01717  0.68072  1.0000
  S   S174      1.0  0.61549  0.03642  0.65915  1.0000
  S   S175      1.0  0.55415  0.03370  0.69298  1.0000
  H   H1318     1.0  0.91647  0.16579  0.88423  1.0000
  C   C737      1.0  0.78568  0.16757  0.82559  1.0000
  H   H1319     1.0  0.81695  0.24152  0.97866  1.0000
  Fe  Fe89      1.0  0.62665  0.01459  0.70157  1.0000
  S   S176      1.0  0.65947  0.02446  0.73380  1.0000
  Fe  Fe90      1.0  0.61338  0.01466  0.61134  1.0000
  H   H1320     1.0  0.66105  0.07565  0.01556  1.0000
  C   C738      1.0  0.91214  0.17949  0.89149  1.0000
  C   C739      1.0  0.51712  0.99923  0.69461  1.0000
  H   H1321     1.0  0.79436  0.99640  0.71441  1.0000
  Fe  Fe91      1.0  0.86835  0.21327  0.99302  1.0000
  C   C740      1.0  0.50873  0.03073  0.69701  1.0000
  C   C741      1.0  0.52476  0.02021  0.69498  1.0000
  C   C742      1.0  0.63945  0.01792  0.97679  1.0000
  H   H1322     1.0  0.75271  0.01410  0.76925  1.0000
  H   H1323     1.0  0.79202  0.15886  0.02055  1.0000
  H   H1324     1.0  0.51454  0.04697  0.69716  1.0000
  H   H1325     1.0  0.75480  0.03654  0.82672  1.0000
  H   H1326     1.0  0.73419  0.03856  0.78994  1.0000
  S   S177      1.0  0.57677  0.99710  0.62926  1.0000
  C   C743      1.0  0.94439  0.20304  0.84234  1.0000
  H   H1327     1.0  0.73649  0.08124  0.55254  1.0000
  Fe  Fe92      1.0  0.92040  0.23072  0.97762  1.0000
  C   C744      1.0  0.81864  0.23327  0.82368  1.0000
  S   S178      1.0  0.72343  0.09653  0.96328  1.0000
  C   C745      1.0  0.48889  0.01439  0.54486  1.0000
  H   H1328     1.0  0.69907  0.06817  0.56750  1.0000
  H   H1329     1.0  0.69939  0.01941  0.91767  1.0000
  C   C746      1.0  0.69236  0.05432  0.55143  1.0000
  C   C747      1.0  0.79872  0.13852  0.93053  1.0000
  C   C748      1.0  0.82077  0.15125  0.91694  1.0000
  C   C749      1.0  0.83265  0.16640  0.94118  1.0000
  C   C750      1.0  0.82239  0.16891  0.97897  1.0000
  C   C751      1.0  0.80011  0.15666  0.99174  1.0000
  C   C752      1.0  0.78831  0.14147  0.96774  1.0000
  H   H1330     1.0  0.82887  0.14902  0.88809  1.0000
  H   H1331     1.0  0.84989  0.17572  0.93124  1.0000
  H   H1332     1.0  0.77124  0.13191  0.97818  1.0000
  C   C753      1.0  0.66717  0.05069  0.85968  1.0000
  C   C754      1.0  0.68604  0.05368  0.83157  1.0000
  C   C755      1.0  0.68347  0.04478  0.79395  1.0000
  C   C756      1.0  0.66195  0.03306  0.78371  1.0000
  C   C757      1.0  0.64307  0.02951  0.81223  1.0000
  C   C758      1.0  0.64570  0.03835  0.85018  1.0000
  H   H1333     1.0  0.70254  0.06345  0.83797  1.0000
  H   H1334     1.0  0.69813  0.04757  0.77202  1.0000
  H   H1335     1.0  0.62653  0.02009  0.80488  1.0000
  H   H1336     1.0  0.63107  0.03581  0.87202  1.0000
  H   H1337     1.0  0.90422  0.17683  0.92395  1.0000
  N   N42       1.0  0.62373  0.08067  0.76156  1.0000
  C   C759      1.0  0.64166  0.07270  0.74291  1.0000
  C   C760      1.0  0.60935  0.06507  0.79523  1.0000
  C   C761      1.0  0.60941  0.08497  0.72734  1.0000
  C   C762      1.0  0.63459  0.09990  0.78102  1.0000
  C   C763      1.0  0.65274  0.09895  0.81253  1.0000
  C   C764      1.0  0.65916  0.08735  0.70951  1.0000
  C   C765      1.0  0.58835  0.09112  0.74158  1.0000
  C   C766      1.0  0.59393  0.04525  0.78021  1.0000
  C   C767      1.0  0.58021  0.03069  0.81692  1.0000
  C   C768      1.0  0.66176  0.11888  0.83163  1.0000
  C   C769      1.0  0.67692  0.07787  0.69429  1.0000
  C   C770      1.0  0.57454  0.09392  0.70455  1.0000
  H   H1338     1.0  0.63361  0.05884  0.72781  1.0000
  H   H1339     1.0  0.65128  0.06781  0.76780  1.0000
  H   H1340     1.0  0.62039  0.06057  0.81783  1.0000
  H   H1341     1.0  0.59834  0.07153  0.81416  1.0000
  H   H1342     1.0  0.60352  0.07176  0.70893  1.0000
  H   H1343     1.0  0.61983  0.09757  0.70447  1.0000
  H   H1344     1.0  0.64259  0.11263  0.75651  1.0000
  H   H1345     1.0  0.62129  0.10451  0.79821  1.0000
  H   H1346     1.0  0.66764  0.09597  0.79715  1.0000
  H   H1347     1.0  0.64546  0.08694  0.83861  1.0000
  H   H1348     1.0  0.65055  0.09096  0.68177  1.0000
  H   H1349     1.0  0.66844  0.10162  0.72214  1.0000
  H   H1350     1.0  0.59378  0.10562  0.75571  1.0000
  H   H1351     1.0  0.57668  0.07952  0.76476  1.0000
  H   H1352     1.0  0.58150  0.04827  0.75896  1.0000
  H   H1353     1.0  0.60419  0.03740  0.76356  1.0000
  H   H1354     1.0  0.56883  0.03757  0.83361  1.0000
  H   H1355     1.0  0.56944  0.01666  0.80508  1.0000
  H   H1356     1.0  0.59174  0.02659  0.83909  1.0000
  H   H1357     1.0  0.64771  0.12234  0.84898  1.0000
  H   H1358     1.0  0.67466  0.11768  0.85393  1.0000
  H   H1359     1.0  0.67003  0.13143  0.80697  1.0000
  H   H1360     1.0  0.68930  0.08862  0.67060  1.0000
  H   H1361     1.0  0.68645  0.07415  0.72065  1.0000
  H   H1362     1.0  0.66857  0.06387  0.67970  1.0000
  H   H1363     1.0  0.58515  0.10590  0.68067  1.0000
  H   H1364     1.0  0.56810  0.07957  0.69003  1.0000
  C   C771      1.0  0.95660  0.21940  0.75674  1.0000
  H   H1365     1.0  0.67256  0.03364  0.62797  1.0000
  C   C772      1.0  0.69105  0.03554  0.62282  1.0000
  H   H1366     1.0  0.82188  0.10517  0.95562  1.0000
  H   H1367     1.0  0.88580  0.20946  0.85219  1.0000
  H   H1368     1.0  0.94355  0.22688  0.76264  1.0000
  H   H1369     1.0  0.49482  0.00195  0.53441  1.0000
  C   C773      1.0  0.97492  0.22324  0.78931  1.0000
  H   H1370     1.0  0.89947  0.18196  0.86997  1.0000
  H   H1371     1.0  0.78081  0.16200  0.79499  1.0000
  H   H1372     1.0  0.84657  0.20822  0.88942  1.0000
  H   H1373     1.0  0.79463  0.10710  0.01086  1.0000
  H   H1374     1.0  0.53005  0.00977  0.57727  1.0000
  S   S179      1.0  0.70597  0.04737  0.98619  1.0000
  H   H1375     1.0  0.66907  0.00935  0.98960  1.0000
  H   H1376     1.0  0.73684  0.00616  0.56027  1.0000
  C   C774      1.0  0.69846  0.00375  0.92441  1.0000
  C   C775      1.0  0.85538  0.21210  0.82365  1.0000
  C   C776      1.0  0.82313  0.09872  0.98784  1.0000
  H   H1377     1.0  0.67350  0.05058  0.55545  1.0000
  S   S180      1.0  0.59105  0.99705  0.72765  1.0000
  H   H1378     1.0  0.91065  0.23223  0.57296  1.0000
  H   H1379     1.0  0.55962  0.09836  0.71540  1.0000
  H   H1380     1.0  0.80393  0.20049  0.94270  1.0000
  H   H1381     1.0  0.95138  0.21432  0.56908  1.0000
  H   H1382     1.0  0.94690  0.18908  0.83156  1.0000
  S   S181      1.0  0.95488  0.22657  0.96806  1.0000
  C   C777      1.0  0.81576  0.22880  0.89956  1.0000
  H   H1383     1.0  0.82038  0.22677  0.79403  1.0000
  H   H1384     1.0  0.76990  0.16456  0.84634  1.0000
  H   H1385     1.0  0.49865  0.03519  0.59352  1.0000
  C   C778      1.0  0.79880  0.19016  0.81939  1.0000
  H   H1386     1.0  0.85707  0.23372  0.86919  1.0000
  H   H1387     1.0  0.79648  0.15896  0.83957  1.0000
  C   C779      1.0  0.96742  0.22695  0.71258  1.0000
  H   H1388     1.0  0.85201  0.21960  0.79411  1.0000
  C   C780      1.0  0.96662  0.21854  0.54812  1.0000
  H   H1389     1.0  0.84808  0.19548  0.82366  1.0000
  C   C781      1.0  0.73831  0.02834  0.81448  1.0000
  H   H1390     1.0  0.95403  0.22371  0.68987  1.0000
  H   H1391     1.0  0.72466  0.02443  0.84027  1.0000
  C   C782      1.0  0.90542  0.23644  0.54184  1.0000
  H   H1392     1.0  0.70106  0.04939  0.63620  1.0000
  H   H1393     1.0  0.80752  0.21695  0.00800  1.0000
  H   H1394     1.0  0.78765  0.19804  0.87711  1.0000
  S   S182      1.0  0.89187  0.22389  0.93481  1.0000
  C   C783      1.0  0.97291  0.24355  0.99835  1.0000
  H   H1395     1.0  0.80100  0.23441  0.82505  1.0000
  H   H1396     1.0  0.81425  0.19223  0.79867  1.0000
  S   S183      1.0  0.62671  0.02597  0.54490  1.0000
  C   C784      1.0  0.47755  0.99931  0.69947  1.0000
  H   H1397     1.0  0.81039  0.18769  0.88162  1.0000
  C   C785      1.0  0.88125  0.21713  0.82392  1.0000
  C   C786      1.0  0.65048  0.00329  0.99812  1.0000
  H   H1398     1.0  0.53520  0.03137  0.60605  1.0000
  C   C787      1.0  0.80448  0.19873  0.86187  1.0000
  C   C788      1.0  0.93366  0.19782  0.88785  1.0000
  H   H1399     1.0  0.53421  0.03465  0.55028  1.0000
  H   H1400     1.0  0.82178  0.12534  0.01535  1.0000
  H   H1401     1.0  0.93096  0.20609  0.82357  1.0000
  H   H1402     1.0  0.96043  0.23770  0.88378  1.0000
  H   H1403     1.0  0.92878  0.21072  0.89823  1.0000
  Fe  Fe93      1.0  0.72800  0.07424  0.01410  1.0000
  C   C789      1.0  0.48518  0.02033  0.69903  1.0000
  H   H1404     1.0  0.78787  0.19793  0.80297  1.0000
  H   H1405     1.0  0.88802  0.21195  0.79597  1.0000
  H   H1406     1.0  0.48118  0.05031  0.54114  1.0000
  H   H1407     1.0  0.69443  0.02234  0.63974  1.0000
  C   C790      1.0  0.50102  0.02088  0.58499  1.0000
  H   H1408     1.0  0.64290  0.01889  0.94243  1.0000
  C   C791      1.0  0.84536  0.21887  0.86261  1.0000
  H   H1409     1.0  0.49420  0.00922  0.61175  1.0000
  H   H1410     1.0  0.82853  0.24378  0.90198  1.0000
  C   C792      1.0  0.69786  0.03669  0.57625  1.0000
  S   S184      1.0  0.83688  0.18641  0.01247  1.0000
  H   H1411     1.0  0.93012  0.23704  0.82924  1.0000
  H   H1412     1.0  0.88940  0.23372  0.82334  1.0000
  H   H1413     1.0  0.94774  0.20292  0.75748  1.0000
  C   C793      1.0  0.73976  0.00927  0.79611  1.0000
  C   C794      1.0  0.81236  0.10896  0.01920  1.0000
  N   N43       1.0  0.82130  0.21976  0.86103  1.0000
  H   H1414     1.0  0.76432  0.00389  0.83669  1.0000
  H   H1415     1.0  0.64686  0.03326  0.98660  1.0000
  H   H1416     1.0  0.87790  0.20801  0.54637  1.0000
  C   C795      1.0  0.71785  0.99875  0.93583  1.0000
  C   C796      1.0  0.80646  0.22552  0.97789  1.0000
  C   C797      1.0  0.52667  0.02436  0.57897  1.0000
  C   C798      1.0  0.81519  0.21629  0.94196  1.0000
  H   H1417     1.0  0.81404  0.08223  0.99056  1.0000
  N   N44       1.0  0.96655  0.22020  0.83499  1.0000
  H   H1418     1.0  0.89326  0.24512  0.54520  1.0000
  H   H1419     1.0  0.68778  0.02220  0.56541  1.0000
  H   H1420     1.0  0.78837  0.22475  0.97465  1.0000
  H   H1421     1.0  0.94548  0.19403  0.90965  1.0000
  H   H1422     1.0  0.84143  0.10129  0.99303  1.0000
  H   H1423     1.0  0.71629  0.03826  0.57289  1.0000
  S   S185      1.0  0.86537  0.24406  0.00058  1.0000
  H   H1424     1.0  0.79892  0.23151  0.89760  1.0000
  C   C799      1.0  0.96443  0.23952  0.84957  1.0000
  H   H1425     1.0  0.72278  0.00184  0.78493  1.0000
  S   S186      1.0  0.92675  0.27325  0.37488  1.0000
  H   H1426     1.0  0.88993  0.29941  0.45103  1.0000
  C   C800      1.0  0.94492  0.45136  0.34320  1.0000
  C   C801      1.0  0.93299  0.42990  0.33279  1.0000
  H   H1427     1.0  0.93166  0.45724  0.35647  1.0000
  H   H1428     1.0  0.92415  0.42012  0.36138  1.0000
  H   H1429     1.0  0.50587  0.49021  0.46860  1.0000
  H   H1430     1.0  0.89671  0.25706  0.19418  1.0000
  C   C802      1.0  0.96340  0.45152  0.37453  1.0000
  H   H1431     1.0  0.97142  0.27991  0.25724  1.0000
  C   C803      1.0  0.96708  0.35005  0.23876  1.0000
  C   C804      1.0  0.93270  0.37797  0.48201  1.0000
  C   C805      1.0  0.95296  0.39195  0.46376  1.0000
  H   H1432     1.0  0.95340  0.32288  0.46040  1.0000
  H   H1433     1.0  0.92577  0.29159  0.45341  1.0000
  H   H1434     1.0  0.94291  0.33859  0.49256  1.0000
  H   H1435     1.0  0.91860  0.37217  0.46294  1.0000
  H   H1436     1.0  0.88268  0.29096  0.50573  1.0000
  H   H1437     1.0  0.95437  0.44151  0.40276  1.0000
  H   H1438     1.0  0.50599  0.44855  0.48236  1.0000
  C   C806      1.0  0.95294  0.29291  0.37009  1.0000
  C   C807      1.0  0.95295  0.31264  0.37458  1.0000
  C   C808      1.0  0.91268  0.28473  0.47947  1.0000
  C   C809      1.0  0.50657  0.49292  0.43409  1.0000
  H   H1439     1.0  0.93695  0.31569  0.37986  1.0000
  H   H1440     1.0  0.94306  0.48726  0.25195  1.0000
  C   C810      1.0  0.95004  0.31514  0.21974  1.0000
  H   H1441     1.0  0.96409  0.34595  0.27313  1.0000
  H   H1442     1.0  0.90663  0.31326  0.48950  1.0000
  C   C811      1.0  0.49208  0.48315  0.29215  1.0000
  H   H1443     1.0  0.90203  0.26973  0.47178  1.0000
  Fe  Fe94      1.0  0.89574  0.24791  0.03929  1.0000
  H   H1444     1.0  0.48269  0.42534  0.48133  1.0000
  C   C812      1.0  0.90532  0.24660  0.18487  1.0000
  C   C813      1.0  0.97361  0.32838  0.37357  1.0000
  C   C814      1.0  0.94730  0.35742  0.22305  1.0000
  C   C815      1.0  0.93802  0.30718  0.26392  1.0000
  C   C816      1.0  0.95511  0.33861  0.46629  1.0000
  H   H1445     1.0  0.95230  0.46843  0.43881  1.0000
  H   H1446     1.0  0.95099  0.36370  0.18979  1.0000
  C   C817      1.0  0.94413  0.37411  0.24803  1.0000
  C   C818      1.0  0.91671  0.28910  0.26202  1.0000
  H   H1447     1.0  0.51184  0.46511  0.42047  1.0000
  C   C819      1.0  0.48777  0.44068  0.49199  1.0000
  H   H1448     1.0  0.93728  0.31844  0.19921  1.0000
  H   H1449     1.0  0.50110  0.44339  0.36633  1.0000
  H   H1450     1.0  0.95240  0.46059  0.31337  1.0000
  H   H1451     1.0  0.97491  0.44366  0.36155  1.0000
  H   H1452     1.0  0.49944  0.43048  0.41748  1.0000
  H   H1453     1.0  0.95066  0.34648  0.43808  1.0000
  H   H1454     1.0  0.95389  0.30224  0.20692  1.0000
  H   H1455     1.0  0.93088  0.34501  0.22624  1.0000
  H   H1456     1.0  0.95996  0.38727  0.24491  1.0000
  H   H1457     1.0  0.92012  0.43012  0.30986  1.0000
  H   H1458     1.0  0.93258  0.31891  0.27855  1.0000
  H   H1459     1.0  0.96417  0.34255  0.15536  1.0000
  C   C820      1.0  0.48938  0.43253  0.39085  1.0000
  H   H1460     1.0  0.93003  0.37926  0.23605  1.0000
  H   H1461     1.0  0.50471  0.47602  0.28395  1.0000
  H   H1462     1.0  0.97421  0.25434  0.49839  1.0000
  H   H1463     1.0  0.93980  0.36848  0.28159  1.0000
  N   N45       1.0  0.93913  0.26967  0.52286  1.0000
  C   C821      1.0  0.93086  0.37068  0.52437  1.0000
  C   C822      1.0  0.95856  0.27861  0.48948  1.0000
  C   C823      1.0  0.92398  0.28301  0.52115  1.0000
  H   H1464     1.0  0.90801  0.28415  0.29377  1.0000
  H   H1465     1.0  0.90457  0.29313  0.24113  1.0000
  H   H1466     1.0  0.92141  0.27626  0.25069  1.0000
  S   S187      1.0  0.95464  0.39975  0.40952  1.0000
  S   S188      1.0  0.89764  0.25829  0.10433  1.0000
  H   H1467     1.0  0.94948  0.30212  0.28465  1.0000
  H   H1468     1.0  0.96947  0.26901  0.08244  1.0000
  C   C824      1.0  0.96124  0.47982  0.41236  1.0000
  H   H1469     1.0  0.50013  0.47648  0.37981  1.0000
  H   H1470     1.0  0.95248  0.27578  0.45781  1.0000
  C   C825      1.0  0.49876  0.47267  0.41436  1.0000
  H   H1471     1.0  0.49547  0.40686  0.36495  1.0000
  H   H1472     1.0  0.97339  0.34330  0.37886  1.0000
  C   C826      1.0  0.96840  0.26802  0.23557  1.0000
  C   C827      1.0  0.89707  0.29793  0.48178  1.0000
  H   H1473     1.0  0.94743  0.48216  0.39349  1.0000
  N   N46       1.0  0.97138  0.33306  0.21751  1.0000
  C   C828      1.0  0.97103  0.39950  0.48912  1.0000
  H   H1474     1.0  0.96232  0.25318  0.25455  1.0000
  H   H1475     1.0  0.94966  0.49404  0.48631  1.0000
  H   H1476     1.0  0.96518  0.29530  0.48902  1.0000
  H   H1477     1.0  0.95481  0.26920  0.21500  1.0000
  H   H1478     1.0  0.92006  0.49069  0.28390  1.0000
  H   H1479     1.0  0.97284  0.49095  0.33261  1.0000
  H   H1480     1.0  0.93395  0.29856  0.52749  1.0000
  C   C829      1.0  0.48083  0.41233  0.37261  1.0000
  H   H1481     1.0  0.94555  0.42329  0.31904  1.0000
  H   H1482     1.0  0.92181  0.24869  0.48036  1.0000
  C   C830      1.0  0.92677  0.24850  0.51311  1.0000
  C   C831      1.0  0.96882  0.39272  0.53226  1.0000
  H   H1483     1.0  0.97404  0.27418  0.35935  1.0000
  C   C832      1.0  0.97374  0.28922  0.36299  1.0000
  H   H1484     1.0  0.51432  0.49412  0.60289  1.0000
  H   H1485     1.0  0.94655  0.42885  0.88229  1.0000
  H   H1486     1.0  0.56176  0.47730  0.88699  1.0000
  S   S189      1.0  0.92069  0.26245  0.98404  1.0000
  H   H1487     1.0  0.97341  0.43156  0.82812  1.0000
  C   C833      1.0  0.94717  0.24841  0.82844  1.0000
  S   S190      1.0  0.88765  0.27211  0.88218  1.0000
  S   S191      1.0  0.96659  0.36209  0.71353  1.0000
  H   H1488     1.0  0.89025  0.41435  0.79808  1.0000
  C   C834      1.0  0.92591  0.41890  0.81035  1.0000
  S   S192      1.0  0.49340  0.42661  0.74678  1.0000
  H   H1489     1.0  0.91729  0.44521  0.82502  1.0000
  H   H1490     1.0  0.85360  0.25484  0.81514  1.0000
  H   H1491     1.0  0.91737  0.32853  0.77193  1.0000
  H   H1492     1.0  0.90109  0.29235  0.79946  1.0000
  Fe  Fe95      1.0  0.94922  0.37889  0.75222  1.0000
  H   H1493     1.0  0.96989  0.39734  0.85455  1.0000
  S   S193      1.0  0.92890  0.36545  0.81434  1.0000
  Fe  Fe96      1.0  0.96001  0.38116  0.65812  1.0000
  H   H1494     1.0  0.93307  0.27308  0.83350  1.0000
  S   S194      1.0  0.94657  0.36569  0.60105  1.0000
  H   H1495     1.0  0.54778  0.47181  0.80995  1.0000
  C   C835      1.0  0.93718  0.47958  0.70469  1.0000
  C   C836      1.0  0.57315  0.47926  0.85813  1.0000
  C   C837      1.0  0.83183  0.26704  0.77879  1.0000
  H   H1496     1.0  0.93305  0.47829  0.86909  1.0000
  S   S195      1.0  0.94008  0.39643  0.69690  1.0000
  H   H1497     1.0  0.96390  0.28355  0.56586  1.0000
  C   C838      1.0  0.96751  0.38989  0.88696  1.0000
  H   H1498     1.0  0.96446  0.33559  0.80376  1.0000
  C   C839      1.0  0.90532  0.41081  0.78487  1.0000
  C   C840      1.0  0.95861  0.47498  0.82223  1.0000
  C   C841      1.0  0.94866  0.46527  0.69910  1.0000
  C   C842      1.0  0.97318  0.44622  0.81209  1.0000
  H   H1499     1.0  0.96298  0.30717  0.76244  1.0000
  H   H1500     1.0  0.92485  0.47891  0.81595  1.0000
  H   H1501     1.0  0.93912  0.44980  0.69527  1.0000
  H   H1502     1.0  0.90100  0.39414  0.78558  1.0000
  C   C843      1.0  0.94923  0.26957  0.56485  1.0000
  H   H1503     1.0  0.97158  0.33707  0.64818  1.0000
  H   H1504     1.0  0.57152  0.46289  0.80222  1.0000
  C   C844      1.0  0.94453  0.26615  0.85051  1.0000
  H   H1505     1.0  0.83446  0.25971  0.75056  1.0000
  H   H1506     1.0  0.96136  0.27783  0.85132  1.0000
  N   N47       1.0  0.95378  0.45243  0.83102  1.0000
  H   H1507     1.0  0.60870  0.48244  0.79846  1.0000
  C   C845      1.0  0.83571  0.25507  0.81817  1.0000
  H   H1508     1.0  0.91542  0.35918  0.53745  1.0000
  H   H1509     1.0  0.92131  0.41128  0.84258  1.0000
  H   H1510     1.0  0.93496  0.29912  0.60256  1.0000
  C   C846      1.0  0.52477  0.46448  0.73363  1.0000
  C   C847      1.0  0.50148  0.45320  0.73753  1.0000
  C   C848      1.0  0.94886  0.37787  0.54974  1.0000
  C   C849      1.0  0.49211  0.48457  0.73142  1.0000
  C   C850      1.0  0.96335  0.25023  0.03205  1.0000
  H   H1511     1.0  0.53745  0.45669  0.73463  1.0000
  C   C851      1.0  0.93238  0.44223  0.81013  1.0000
  H   H1512     1.0  0.90925  0.41744  0.75179  1.0000
  H   H1513     1.0  0.95991  0.29240  0.93272  1.0000
  H   H1514     1.0  0.93337  0.44749  0.88965  1.0000
  H   H1515     1.0  0.90988  0.27797  0.54585  1.0000
  H   H1516     1.0  0.53264  0.44617  0.87123  1.0000
  C   C852      1.0  0.90183  0.29790  0.86426  1.0000
  C   C853      1.0  0.90767  0.31284  0.89171  1.0000
  C   C854      1.0  0.91618  0.33341  0.87596  1.0000
  C   C855      1.0  0.91968  0.33927  0.83268  1.0000
  C   C856      1.0  0.91484  0.32427  0.80528  1.0000
  C   C857      1.0  0.90563  0.30375  0.82100  1.0000
  H   H1517     1.0  0.90464  0.30861  0.92503  1.0000
  H   H1518     1.0  0.91971  0.34484  0.89749  1.0000
  H   H1519     1.0  0.49169  0.45271  0.55253  1.0000
  C   C858      1.0  0.94947  0.44540  0.87706  1.0000
  C   C859      1.0  0.93721  0.28703  0.62496  1.0000
  H   H1520     1.0  0.91875  0.47504  0.70548  1.0000
  C   C860      1.0  0.48517  0.46333  0.73583  1.0000
  H   H1521     1.0  0.59696  0.48794  0.72467  1.0000
  H   H1522     1.0  0.97175  0.34459  0.54164  1.0000
  H   H1523     1.0  0.94004  0.41423  0.79662  1.0000
  C   C861      1.0  0.93325  0.26726  0.60507  1.0000
  H   H1524     1.0  0.94968  0.37971  0.89280  1.0000
  H   H1525     1.0  0.48183  0.47077  0.64469  1.0000
  H   H1526     1.0  0.53662  0.43507  0.82428  1.0000
  H   H1527     1.0  0.93698  0.26097  0.88300  1.0000
  H   H1528     1.0  0.96571  0.31369  0.83590  1.0000
  C   C862      1.0  0.93935  0.48354  0.83609  1.0000
  H   H1529     1.0  0.95352  0.25434  0.79565  1.0000
  C   C863      1.0  0.54566  0.44466  0.84795  1.0000
  H   H1530     1.0  0.58658  0.47255  0.86785  1.0000
  H   H1531     1.0  0.49549  0.42821  0.55157  1.0000
  H   H1532     1.0  0.93389  0.44874  0.77705  1.0000
  H   H1533     1.0  0.55692  0.43705  0.86368  1.0000
  H   H1534     1.0  0.91489  0.26100  0.60079  1.0000
  H   H1535     1.0  0.47937  0.49230  0.73098  1.0000
  H   H1536     1.0  0.81430  0.26827  0.78051  1.0000
  H   H1537     1.0  0.54964  0.49428  0.72482  1.0000
  C   C864      1.0  0.55964  0.46537  0.82646  1.0000
  H   H1538     1.0  0.84422  0.28252  0.77582  1.0000
  H   H1539     1.0  0.48704  0.32360  0.78037  1.0000
  H   H1540     1.0  0.83381  0.26359  0.84483  1.0000
  H   H1541     1.0  0.62697  0.49121  0.72776  1.0000
  H   H1542     1.0  0.93701  0.25629  0.62857  1.0000
  H   H1543     1.0  0.92486  0.28468  0.65244  1.0000
  C   C865      1.0  0.53171  0.48573  0.72836  1.0000
  H   H1544     1.0  0.96443  0.35462  0.85834  1.0000
  H   H1545     1.0  0.94631  0.45296  0.96084  1.0000
  H   H1546     1.0  0.95467  0.29194  0.63598  1.0000
  C   C866      1.0  0.48535  0.43791  0.53974  1.0000
  H   H1547     1.0  0.97031  0.40164  0.90900  1.0000
  H   H1548     1.0  0.96499  0.32631  0.89683  1.0000
  H   H1549     1.0  0.47965  0.29506  0.94625  1.0000
  H   H1550     1.0  0.96239  0.47946  0.78804  1.0000
  C   C867      1.0  0.96115  0.44808  0.95129  1.0000
  H   H1551     1.0  0.97045  0.44341  0.77891  1.0000
  Fe  Fe97      1.0  0.89081  0.25521  0.94445  1.0000
  Fe  Fe98      1.0  0.97435  0.41975  0.70032  1.0000
  C   C868      1.0  0.96870  0.45502  0.90521  1.0000
  H   H1552     1.0  0.95689  0.25709  0.56861  1.0000
  C   C869      1.0  0.97534  0.32600  0.81192  1.0000
  C   C870      1.0  0.47871  0.48203  0.62118  1.0000
  H   H1553     1.0  0.53413  0.49210  0.83998  1.0000
  H   H1554     1.0  0.97077  0.47672  0.54436  1.0000
  H   H1555     1.0  0.97296  0.49465  0.58218  1.0000
  C   C871      1.0  0.97245  0.47105  0.69893  1.0000
  H   H1556     1.0  0.95644  0.43137  0.95724  1.0000
  H   H1557     1.0  0.47627  0.30002  0.84467  1.0000
  H   H1558     1.0  0.97536  0.45488  0.97083  1.0000
  H   H1559     1.0  0.97362  0.47173  0.90143  1.0000
  H   H1560     1.0  0.97420  0.48346  0.83660  1.0000
  C   C872      1.0  0.71361  0.59165  0.50790  1.0000
  H   H1561     1.0  0.70670  0.57851  0.48997  1.0000
  Fe  Fe99      1.0  0.91810  0.62277  0.11399  1.0000
  S   S196      1.0  0.91833  0.61188  0.18184  1.0000
  C   C873      1.0  0.56215  0.59518  0.52980  1.0000
  Fe  Fe100     1.0  0.95486  0.66112  0.37376  1.0000
  S   S197      1.0  0.91763  0.64404  0.38054  1.0000
  H   H1562     1.0  0.90829  0.52279  0.26438  1.0000
  H   H1563     1.0  0.65461  0.54234  0.47615  1.0000
  S   S198      1.0  0.92237  0.64042  0.48077  1.0000
  Fe  Fe101     1.0  0.92762  0.62347  0.42739  1.0000
  Fe  Fe102     1.0  0.91612  0.66272  0.43268  1.0000
  S   S199      1.0  0.89005  0.67889  0.44101  1.0000
  Fe  Fe103     1.0  0.74441  0.67778  0.42273  1.0000
  S   S200      1.0  0.73967  0.64598  0.44926  1.0000
  H   H1564     1.0  0.61875  0.61425  0.04021  1.0000
  Fe  Fe104     1.0  0.74058  0.66577  0.33269  1.0000
  S   S201      1.0  0.73517  0.63319  0.35372  1.0000
  S   S202      1.0  0.74275  0.67635  0.26347  1.0000
  Fe  Fe105     1.0  0.71219  0.63781  0.40476  1.0000
  S   S203      1.0  0.67769  0.61731  0.42911  1.0000
  Fe  Fe106     1.0  0.76345  0.64498  0.39550  1.0000
  S   S204      1.0  0.79029  0.62911  0.39988  1.0000
  S   S205      1.0  0.71537  0.66969  0.38140  1.0000
  S   S206      1.0  0.77047  0.67750  0.37161  1.0000
  C   C874      1.0  0.51403  0.62032  0.10523  1.0000
  C   C875      1.0  0.62868  0.63177  0.48690  1.0000
  S   S207      1.0  0.69740  0.61500  0.13346  1.0000
  C   C876      1.0  0.97325  0.56124  0.21899  1.0000
  H   H1565     1.0  0.62516  0.66133  0.48249  1.0000
  H   H1566     1.0  0.68404  0.66676  0.31860  1.0000
  S   S208      1.0  0.59247  0.66172  0.06543  1.0000
  H   H1567     1.0  0.95701  0.58883  0.48310  1.0000
  Fe  Fe107     1.0  0.57703  0.57833  0.31626  1.0000
  S   S209      1.0  0.57717  0.60882  0.33325  1.0000
  S   S210      1.0  0.61119  0.57577  0.29658  1.0000
  Fe  Fe108     1.0  0.52560  0.56027  0.32682  1.0000
  S   S211      1.0  0.52230  0.58970  0.34425  1.0000
  Fe  Fe109     1.0  0.54836  0.60462  0.29111  1.0000
  S   S212      1.0  0.54276  0.62965  0.24708  1.0000
  Fe  Fe110     1.0  0.55129  0.59087  0.38454  1.0000
  S   S213      1.0  0.54821  0.59902  0.45080  1.0000
  S   S214      1.0  0.54984  0.57520  0.27087  1.0000
  S   S215      1.0  0.55310  0.56047  0.37061  1.0000
  H   H1568     1.0  0.67863  0.67621  0.10318  1.0000
  C   C877      1.0  0.56482  0.59147  0.48807  1.0000
  S   S216      1.0  0.88795  0.60804  0.07825  1.0000
  H   H1569     1.0  0.89835  0.67604  0.34759  1.0000
  S   S217      1.0  0.74964  0.70048  0.47061  1.0000
  S   S218      1.0  0.63027  0.71957  0.04530  1.0000
  H   H1570     1.0  0.48877  0.60304  0.17398  1.0000
  H   H1571     1.0  0.63281  0.62073  0.50953  1.0000
  C   C878      1.0  0.57893  0.65325  0.11624  1.0000
  C   C879      1.0  0.57837  0.63415  0.13489  1.0000
  C   C880      1.0  0.56772  0.62684  0.17522  1.0000
  C   C881      1.0  0.55707  0.63842  0.19688  1.0000
  C   C882      1.0  0.55720  0.65730  0.17780  1.0000
  C   C883      1.0  0.56835  0.66483  0.13796  1.0000
  H   H1572     1.0  0.58637  0.62505  0.11813  1.0000
  H   H1573     1.0  0.56759  0.61221  0.18938  1.0000
  H   H1574     1.0  0.54891  0.66632  0.19421  1.0000
  H   H1575     1.0  0.56854  0.67950  0.12391  1.0000
  C   C884      1.0  0.61792  0.58475  0.17826  1.0000
  H   H1576     1.0  0.58255  0.57866  0.44497  1.0000
  H   H1577     1.0  0.61590  0.65470  0.18622  1.0000
  C   C885      1.0  0.65984  0.60552  0.39169  1.0000
  C   C886      1.0  0.63633  0.59801  0.40203  1.0000
  C   C887      1.0  0.62153  0.58889  0.37264  1.0000
  C   C888      1.0  0.63017  0.58678  0.33314  1.0000
  C   C889      1.0  0.65376  0.59387  0.32292  1.0000
  C   C890      1.0  0.66861  0.60339  0.35216  1.0000
  H   H1578     1.0  0.62949  0.59948  0.43260  1.0000
  H   H1579     1.0  0.60339  0.58339  0.38057  1.0000
  H   H1580     1.0  0.66050  0.59226  0.29234  1.0000
  H   H1581     1.0  0.68678  0.60898  0.34417  1.0000
  C   C891      1.0  0.71110  0.63214  0.16853  1.0000
  C   C892      1.0  0.70855  0.62558  0.21134  1.0000
  C   C893      1.0  0.71842  0.63889  0.24057  1.0000
  C   C894      1.0  0.73056  0.65906  0.22738  1.0000
  C   C895      1.0  0.73311  0.66565  0.18447  1.0000
  C   C896      1.0  0.72351  0.65223  0.15509  1.0000
  H   H1582     1.0  0.69878  0.61011  0.22204  1.0000
  H   H1583     1.0  0.71633  0.63354  0.27334  1.0000
  H   H1584     1.0  0.74246  0.68123  0.17395  1.0000
  H   H1585     1.0  0.72535  0.65752  0.12219  1.0000
  C   C897      1.0  0.72550  0.70274  0.49869  1.0000
  H   H1586     1.0  0.66267  0.66173  0.06472  1.0000
  C   C898      1.0  0.48285  0.51245  0.31335  1.0000
  H   H1587     1.0  0.94934  0.50521  0.29016  1.0000
  H   H1588     1.0  0.48087  0.54343  0.46509  1.0000
  C   C899      1.0  0.86210  0.66479  0.43147  1.0000
  C   C900      1.0  0.85681  0.64441  0.42500  1.0000
  C   C901      1.0  0.83463  0.63356  0.41577  1.0000
  C   C902      1.0  0.81761  0.64298  0.41325  1.0000
  C   C903      1.0  0.82278  0.66326  0.42059  1.0000
  C   C904      1.0  0.84501  0.67415  0.42960  1.0000
  H   H1589     1.0  0.86980  0.63700  0.42702  1.0000
  H   H1590     1.0  0.83062  0.61781  0.41058  1.0000
  H   H1591     1.0  0.80971  0.67059  0.41908  1.0000
  S   S219      1.0  0.91100  0.58990  0.43017  1.0000
  C   C905      1.0  0.93210  0.62938  0.21588  1.0000
  C   C906      1.0  0.94340  0.64967  0.20190  1.0000
  C   C907      1.0  0.95448  0.66305  0.23021  1.0000
  C   C908      1.0  0.95416  0.65618  0.27251  1.0000
  C   C909      1.0  0.94258  0.63598  0.28635  1.0000
  C   C910      1.0  0.93170  0.62265  0.25814  1.0000
  H   H1592     1.0  0.94380  0.65503  0.16934  1.0000
  H   H1593     1.0  0.63897  0.55623  0.44708  1.0000
  H   H1594     1.0  0.92315  0.60702  0.26914  1.0000
  S   S220      1.0  0.95282  0.68164  0.42280  1.0000
  H   H1595     1.0  0.48328  0.55949  0.25400  1.0000
  H   H1596     1.0  0.71573  0.57699  0.15144  1.0000
  H   H1597     1.0  0.53265  0.53580  0.16077  1.0000
  H   H1598     1.0  0.68119  0.65165  0.09540  1.0000
  C   C911      1.0  0.95300  0.55679  0.36313  1.0000
  H   H1599     1.0  0.50534  0.54182  0.23785  1.0000
  C   C912      1.0  0.51063  0.59870  0.12406  1.0000
  C   C913      1.0  0.62637  0.65437  0.21338  1.0000
  C   C914      1.0  0.93538  0.51504  0.23433  1.0000
  C   C915      1.0  0.93700  0.49853  0.26720  1.0000
  C   C916      1.0  0.92580  0.56534  0.15267  1.0000
  C   C917      1.0  0.92486  0.56014  0.10749  1.0000
  H   H1600     1.0  0.91222  0.57368  0.22722  1.0000
  C   C918      1.0  0.89732  0.68681  0.32114  1.0000
  H   H1601     1.0  0.90580  0.67188  0.26987  1.0000
  H   H1602     1.0  0.70966  0.60485  0.49262  1.0000
  C   C919      1.0  0.96075  0.57783  0.36130  1.0000
  H   H1603     1.0  0.51712  0.51156  0.30185  1.0000
  H   H1604     1.0  0.93503  0.53404  0.28424  1.0000
  H   H1605     1.0  0.97346  0.64403  0.12914  1.0000
  H   H1606     1.0  0.52740  0.59600  0.12026  1.0000
  H   H1607     1.0  0.90920  0.53490  0.18091  1.0000
  H   H1608     1.0  0.92472  0.71053  0.34316  1.0000
  H   H1609     1.0  0.74760  0.61025  0.52091  1.0000
  H   H1610     1.0  0.95238  0.52171  0.21753  1.0000
  C   C920      1.0  0.90852  0.56096  0.29088  1.0000
  H   H1611     1.0  0.59850  0.67648  0.51850  1.0000
  H   H1612     1.0  0.90277  0.54793  0.42095  1.0000
  H   H1613     1.0  0.96256  0.56513  0.49538  1.0000
  C   C921      1.0  0.48999  0.57484  0.23727  1.0000
  C   C922      1.0  0.59391  0.57622  0.50706  1.0000
  H   H1614     1.0  0.93892  0.54086  0.17007  1.0000
  H   H1615     1.0  0.52124  0.62240  0.07238  1.0000
  C   C923      1.0  0.68683  0.70476  0.50123  1.0000
  S   S221      1.0  0.96893  0.67257  0.30764  1.0000
  C   C924      1.0  0.53114  0.50496  0.41861  1.0000
  C   C925      1.0  0.92660  0.53092  0.25462  1.0000
  S   S222      1.0  0.92076  0.65444  0.08926  1.0000
  C   C926      1.0  0.88989  0.56607  0.53058  1.0000
  H   H1616     1.0  0.54466  0.54585  0.20757  1.0000
  H   H1617     1.0  0.50676  0.52445  0.48826  1.0000
  C   C927      1.0  0.93183  0.54601  0.38383  1.0000
  H   H1618     1.0  0.67122  0.70347  0.48604  1.0000
  H   H1619     1.0  0.94036  0.55636  0.09739  1.0000
  H   H1620     1.0  0.60984  0.58812  0.14956  1.0000
  C   C928      1.0  0.91885  0.55631  0.40396  1.0000
  H   H1621     1.0  0.88695  0.58045  0.28380  1.0000
  C   C929      1.0  0.70475  0.70003  0.48040  1.0000
  H   H1622     1.0  0.94104  0.71243  0.46721  1.0000
  S   S223      1.0  0.94370  0.61915  0.06629  1.0000
  H   H1623     1.0  0.60453  0.57835  0.20423  1.0000
  H   H1624     1.0  0.95340  0.56846  0.26730  1.0000
  H   H1625     1.0  0.54300  0.49632  0.42703  1.0000
  H   H1626     1.0  0.92401  0.57331  0.08653  1.0000
  C   C930      1.0  0.49914  0.50327  0.30225  1.0000
  H   H1627     1.0  0.92035  0.71474  0.28851  1.0000
  H   H1628     1.0  0.93410  0.69633  0.30617  1.0000
  C   C931      1.0  0.79067  0.67279  0.08061  1.0000
  C   C932      1.0  0.50852  0.54298  0.20353  1.0000
  C   C933      1.0  0.58053  0.58173  0.47693  1.0000
  C   C934      1.0  0.91018  0.55850  0.24345  1.0000
  H   H1629     1.0  0.70288  0.69520  0.44938  1.0000
  C   C935      1.0  0.51273  0.54103  0.48847  1.0000
  H   H1630     1.0  0.60610  0.56885  0.49796  1.0000
  H   H1631     1.0  0.79807  0.64206  0.27390  1.0000
  H   H1632     1.0  0.97111  0.68826  0.08758  1.0000
  C   C936      1.0  0.65815  0.64907  0.17292  1.0000
  H   H1633     1.0  0.95216  0.58122  0.21839  1.0000
  C   C937      1.0  0.50231  0.59567  0.17099  1.0000
  C   C938      1.0  0.73957  0.59665  0.50486  1.0000
  H   H1634     1.0  0.59392  0.64069  0.53143  1.0000
  C   C939      1.0  0.62893  0.65085  0.50697  1.0000
  H   H1635     1.0  0.53104  0.54662  0.47698  1.0000
  C   C940      1.0  0.94745  0.58816  0.38024  1.0000
  H   H1636     1.0  0.88710  0.65481  0.52291  1.0000
  C   C941      1.0  0.92055  0.70311  0.31409  1.0000
  H   H1637     1.0  0.94137  0.57834  0.15427  1.0000
  H   H1638     1.0  0.92334  0.50772  0.21143  1.0000
  C   C942      1.0  0.51257  0.56478  0.18321  1.0000
  H   H1639     1.0  0.77033  0.64584  0.27594  1.0000
  N   N48       1.0  0.86970  0.65774  0.28626  1.0000
  C   C943      1.0  0.86319  0.65164  0.24367  1.0000
  C   C944      1.0  0.84992  0.66208  0.30825  1.0000
  C   C945      1.0  0.89071  0.67608  0.28116  1.0000
  C   C946      1.0  0.87517  0.64112  0.31247  1.0000
  C   C947      1.0  0.85759  0.61970  0.31471  1.0000
  C   C948      1.0  0.88101  0.64507  0.21791  1.0000
  C   C949      1.0  0.84234  0.67942  0.28665  1.0000
  C   C950      1.0  0.82434  0.68411  0.31442  1.0000
  C   C951      1.0  0.86493  0.60480  0.34399  1.0000
  C   C952      1.0  0.87151  0.63737  0.17737  1.0000
  H   H1640     1.0  0.86043  0.66445  0.22405  1.0000
  H   H1641     1.0  0.84651  0.63939  0.24616  1.0000
  H   H1642     1.0  0.83456  0.64850  0.31176  1.0000
  H   H1643     1.0  0.85365  0.66536  0.34085  1.0000
  H   H1644     1.0  0.88899  0.68753  0.25640  1.0000
  H   H1645     1.0  0.89212  0.63997  0.30188  1.0000
  H   H1646     1.0  0.87677  0.64483  0.34520  1.0000
  H   H1647     1.0  0.85612  0.61396  0.28358  1.0000
  H   H1648     1.0  0.84045  0.61958  0.32674  1.0000
  H   H1649     1.0  0.89674  0.65802  0.20950  1.0000
  H   H1650     1.0  0.88586  0.63281  0.23527  1.0000
  H   H1651     1.0  0.88458  0.69419  0.33063  1.0000
  H   H1652     1.0  0.85683  0.69352  0.27960  1.0000
  H   H1653     1.0  0.83457  0.67501  0.25707  1.0000
  H   H1654     1.0  0.83181  0.69037  0.34300  1.0000
  H   H1655     1.0  0.81782  0.69545  0.29729  1.0000
  H   H1656     1.0  0.80973  0.67024  0.32366  1.0000
  H   H1657     1.0  0.85287  0.58934  0.34374  1.0000
  H   H1658     1.0  0.88235  0.60472  0.33400  1.0000
  H   H1659     1.0  0.86499  0.60896  0.37651  1.0000
  H   H1660     1.0  0.85612  0.62399  0.18435  1.0000
  H   H1661     1.0  0.86717  0.64934  0.15771  1.0000
  H   H1662     1.0  0.88446  0.63278  0.15935  1.0000
  H   H1663     1.0  0.67673  0.60754  0.51287  1.0000
  Fe  Fe111     1.0  0.95950  0.65809  0.46767  1.0000
  H   H1664     1.0  0.58604  0.66193  0.28436  1.0000
  H   H1665     1.0  0.84899  0.68990  0.43478  1.0000
  H   H1666     1.0  0.51568  0.56406  0.14923  1.0000
  H   H1667     1.0  0.88723  0.56943  0.33646  1.0000
  H   H1668     1.0  0.47690  0.55671  0.14251  1.0000
  H   H1669     1.0  0.63775  0.67021  0.21273  1.0000
  C   C953      1.0  0.65731  0.57189  0.49639  1.0000
  H   H1670     1.0  0.89331  0.54852  0.23554  1.0000
  H   H1671     1.0  0.94268  0.63038  0.31863  1.0000
  H   H1672     1.0  0.48403  0.60343  0.24770  1.0000
  H   H1673     1.0  0.64163  0.63575  0.45996  1.0000
  C   C954      1.0  0.59977  0.66668  0.25868  1.0000
  H   H1674     1.0  0.68612  0.64416  0.51055  1.0000
  C   C955      1.0  0.49953  0.54979  0.45700  1.0000
  C   C956      1.0  0.66921  0.66070  0.09612  1.0000
  H   H1675     1.0  0.67264  0.57921  0.47507  1.0000
  N   N49       1.0  0.64016  0.64011  0.20837  1.0000
  C   C957      1.0  0.65196  0.63709  0.24732  1.0000
  C   C958      1.0  0.62420  0.61997  0.19980  1.0000
  C   C959      1.0  0.60944  0.64936  0.25272  1.0000
  C   C960      1.0  0.66646  0.65673  0.26437  1.0000
  C   C961      1.0  0.63561  0.60384  0.18967  1.0000
  H   H1676     1.0  0.92353  0.57314  0.29914  1.0000
  C   C962      1.0  0.67438  0.65228  0.30722  1.0000
  H   H1677     1.0  0.66381  0.62822  0.24164  1.0000
  H   H1678     1.0  0.63946  0.62760  0.27264  1.0000
  H   H1679     1.0  0.61185  0.61317  0.22731  1.0000
  H   H1680     1.0  0.61356  0.62190  0.17379  1.0000
  H   H1681     1.0  0.67050  0.64043  0.17169  1.0000
  H   H1682     1.0  0.61752  0.64672  0.28178  1.0000
  H   H1683     1.0  0.59502  0.63559  0.24947  1.0000
  H   H1684     1.0  0.64853  0.60936  0.16288  1.0000
  H   H1685     1.0  0.64404  0.59950  0.21708  1.0000
  H   H1686     1.0  0.90748  0.54686  0.31046  1.0000
  H   H1687     1.0  0.64016  0.63564  0.11944  1.0000
  H   H1688     1.0  0.95343  0.60440  0.37796  1.0000
  N   N50       1.0  0.92900  0.55057  0.22835  1.0000
  H   H1689     1.0  0.65959  0.64453  0.32994  1.0000
  H   H1690     1.0  0.68573  0.64275  0.30536  1.0000
  H   H1691     1.0  0.47669  0.58234  0.31677  1.0000
  H   H1692     1.0  0.66864  0.66456  0.17854  1.0000
  H   H1693     1.0  0.52615  0.63128  0.12296  1.0000
  H   H1694     1.0  0.90945  0.54723  0.10395  1.0000
  H   H1695     1.0  0.64647  0.58198  0.49574  1.0000
  H   H1696     1.0  0.59716  0.71269  0.50541  1.0000
  H   H1697     1.0  0.68187  0.66435  0.24299  1.0000
  H   H1698     1.0  0.91057  0.57006  0.15981  1.0000
  H   H1699     1.0  0.94853  0.73643  0.48798  1.0000
  S   S224      1.0  0.49039  0.53714  0.32874  1.0000
  C   C963      1.0  0.97245  0.50029  0.42971  1.0000
  H   H1700     1.0  0.84052  0.61817  0.11122  1.0000
  Fe  Fe112     1.0  0.70671  0.61976  0.06359  1.0000
  H   H1701     1.0  0.96626  0.70073  0.51665  1.0000
  H   H1702     1.0  0.51672  0.60473  0.18782  1.0000
  H   H1703     1.0  0.73742  0.73527  0.42106  1.0000
  H   H1704     1.0  0.77472  0.62456  0.30616  1.0000
  H   H1705     1.0  0.87157  0.55407  0.29873  1.0000
  H   H1706     1.0  0.52894  0.57459  0.19342  1.0000
  C   C964      1.0  0.64934  0.65075  0.12877  1.0000
  H   H1707     1.0  0.82853  0.59334  0.09497  1.0000
  H   H1708     1.0  0.85285  0.55623  0.52829  1.0000
  H   H1709     1.0  0.97301  0.57945  0.44594  1.0000
  H   H1710     1.0  0.74613  0.59993  0.47149  1.0000
  S   S225      1.0  0.96530  0.63926  0.41768  1.0000
  H   H1711     1.0  0.78810  0.66591  0.05074  1.0000
  H   H1712     1.0  0.97539  0.54871  0.24026  1.0000
  H   H1713     1.0  0.73790  0.56511  0.14593  1.0000
  H   H1714     1.0  0.83042  0.59625  0.14969  1.0000
  C   C965      1.0  0.92677  0.57740  0.40258  1.0000
  H   H1715     1.0  0.94076  0.50708  0.44237  1.0000
  C   C966      1.0  0.95155  0.56616  0.23374  1.0000
  H   H1716     1.0  0.62642  0.57325  0.17236  1.0000
  H   H1717     1.0  0.61336  0.68009  0.26691  1.0000
  H   H1718     1.0  0.49822  0.58826  0.10588  1.0000
  C   C967      1.0  0.88723  0.56659  0.30304  1.0000
  H   H1719     1.0  0.63765  0.66005  0.12750  1.0000
  H   H1720     1.0  0.80495  0.68718  0.07516  1.0000
  H   H1721     1.0  0.50466  0.56649  0.45621  1.0000
  H   H1722     1.0  0.65678  0.66751  0.26811  1.0000
  N   N51       1.0  0.77848  0.62391  0.15858  1.0000
  C   C968      1.0  0.77716  0.63799  0.12122  1.0000
  C   C969      1.0  0.75778  0.60521  0.16266  1.0000
  C   C970      1.0  0.77826  0.63482  0.19715  1.0000
  C   C971      1.0  0.80042  0.61862  0.15624  1.0000
  C   C972      1.0  0.80348  0.60583  0.12101  1.0000
  C   C973      1.0  0.79631  0.65865  0.11429  1.0000
  C   C974      1.0  0.77277  0.62148  0.23981  1.0000
  C   C975      1.0  0.74807  0.59692  0.12169  1.0000
  C   C976      1.0  0.73024  0.57612  0.13084  1.0000
  C   C977      1.0  0.82722  0.60331  0.11935  1.0000
  H   H1723     1.0  0.50653  0.58171  0.25096  1.0000
  C   C978      1.0  0.77940  0.63434  0.27606  1.0000
  H   H1724     1.0  0.76046  0.64100  0.12359  1.0000
  H   H1725     1.0  0.77740  0.63090  0.09175  1.0000
  H   H1726     1.0  0.76120  0.59279  0.18258  1.0000
  H   H1727     1.0  0.74307  0.60825  0.17901  1.0000
  H   H1728     1.0  0.76550  0.64316  0.19545  1.0000
  H   H1729     1.0  0.79506  0.64646  0.19900  1.0000
  H   H1730     1.0  0.81541  0.63255  0.15355  1.0000
  H   H1731     1.0  0.80215  0.60994  0.18568  1.0000
  H   H1732     1.0  0.80123  0.61296  0.09020  1.0000
  H   H1733     1.0  0.79105  0.59043  0.12685  1.0000
  H   H1734     1.0  0.79865  0.66664  0.14279  1.0000
  H   H1735     1.0  0.81275  0.65648  0.10410  1.0000
  H   H1736     1.0  0.78182  0.61004  0.24184  1.0000
  H   H1737     1.0  0.75416  0.61338  0.24466  1.0000
  H   H1738     1.0  0.73956  0.60717  0.10623  1.0000
  H   H1739     1.0  0.76124  0.59569  0.09871  1.0000
  H   H1740     1.0  0.59244  0.67095  0.22981  1.0000
  H   H1741     1.0  0.72353  0.57060  0.10117  1.0000
  H   H1742     1.0  0.62819  0.54446  0.49899  1.0000
  C   C979      1.0  0.92575  0.54689  0.18315  1.0000
  C   C980      1.0  0.64394  0.55246  0.47877  1.0000
  H   H1743     1.0  0.77493  0.67625  0.09057  1.0000
  H   H1744     1.0  0.92750  0.68206  0.51655  1.0000
  H   H1745     1.0  0.61169  0.62460  0.47527  1.0000
  H   H1746     1.0  0.97269  0.55719  0.18650  1.0000
  H   H1747     1.0  0.53651  0.51937  0.43307  1.0000
  H   H1748     1.0  0.92576  0.52972  0.38518  1.0000
  H   H1749     1.0  0.89133  0.58171  0.51793  1.0000
  S   S226      1.0  0.96985  0.54401  0.33978  1.0000
  H   H1750     1.0  0.49754  0.62362  0.10569  1.0000
  H   H1751     1.0  0.50322  0.54597  0.42523  1.0000
  Fe  Fe113     1.0  0.94407  0.64978  0.03869  1.0000
  H   H1752     1.0  0.86849  0.55425  0.48119  1.0000
  H   H1753     1.0  0.51998  0.56371  0.53150  1.0000
  C   C981      1.0  0.95444  0.72333  0.48277  1.0000
  N   N52       1.0  0.49385  0.57408  0.19096  1.0000
  C   C982      1.0  0.52925  0.53591  0.19486  1.0000
  H   H1754     1.0  0.74465  0.58373  0.51886  1.0000
  Fe  Fe114     1.0  0.89262  0.63947  0.04939  1.0000
  H   H1755     1.0  0.86576  0.53621  0.52606  1.0000
  H   H1756     1.0  0.52588  0.52032  0.21015  1.0000
  C   C983      1.0  0.95565  0.50569  0.45914  1.0000
  C   C984      1.0  0.86783  0.55229  0.51587  1.0000
  H   H1757     1.0  0.97138  0.73691  0.42209  1.0000
  C   C985      1.0  0.96974  0.58067  0.47953  1.0000
  H   H1758     1.0  0.62833  0.68760  0.52317  1.0000
  H   H1759     1.0  0.62712  0.72243  0.51461  1.0000
  H   H1760     1.0  0.96352  0.67866  0.21928  1.0000
  H   H1761     1.0  0.96426  0.52045  0.47080  1.0000
  H   H1762     1.0  0.90419  0.56180  0.51642  1.0000
  H   H1763     1.0  0.49587  0.50257  0.42516  1.0000
  H   H1764     1.0  0.91066  0.69832  0.52017  1.0000
  H   H1765     1.0  0.49398  0.53232  0.19009  1.0000
  H   H1766     1.0  0.53250  0.50863  0.38414  1.0000
  S   S227      1.0  0.86435  0.65305  0.03864  1.0000
  C   C986      1.0  0.95970  0.71330  0.52438  1.0000
  C   C987      1.0  0.50972  0.54745  0.53287  1.0000
  C   C988      1.0  0.60950  0.71697  0.52971  1.0000
  H   H1767     1.0  0.64641  0.65800  0.51612  1.0000
  H   H1768     1.0  0.72585  0.74539  0.49371  1.0000
  S   S228      1.0  0.74124  0.63772  0.03411  1.0000
  H   H1769     1.0  0.62079  0.51858  0.96756  1.0000
  H   H1770     1.0  0.54809  0.65123  0.80493  1.0000
  S   S229      1.0  0.70518  0.59208  0.03153  1.0000
  H   H1771     1.0  0.50278  0.58500  0.88132  1.0000
  S   S230      1.0  0.90933  0.58065  0.99105  1.0000
  S   S231      1.0  0.91633  0.63782  0.99634  1.0000
  Fe  Fe115     1.0  0.68892  0.60521  0.97994  1.0000
  S   S232      1.0  0.72241  0.62173  0.94426  1.0000
  S   S233      1.0  0.65541  0.58860  0.95356  1.0000
  Fe  Fe116     1.0  0.73879  0.61099  0.99873  1.0000
  C   C989      1.0  0.91385  0.73998  0.61996  1.0000
  Fe  Fe117     1.0  0.72215  0.64706  0.98247  1.0000
  S   S234      1.0  0.73489  0.67865  0.95048  1.0000
  Fe  Fe118     1.0  0.66926  0.72933  0.62927  1.0000
  S   S235      1.0  0.69836  0.72942  0.66853  1.0000
  H   H1772     1.0  0.62922  0.64136  0.03082  1.0000
  H   H1773     1.0  0.51666  0.70859  0.87275  1.0000
  H   H1774     1.0  0.62709  0.50808  0.79247  1.0000
  H   H1775     1.0  0.66164  0.67463  0.65983  1.0000
  Fe  Fe119     1.0  0.67082  0.71252  0.71784  1.0000
  S   S236      1.0  0.67225  0.68404  0.75376  1.0000
  S   S237      1.0  0.64190  0.71086  0.67729  1.0000
  H   H1776     1.0  0.59009  0.49650  0.92940  1.0000
  H   H1777     1.0  0.70004  0.73421  0.85344  1.0000
  H   H1778     1.0  0.92235  0.71304  0.63604  1.0000
  S   S238      1.0  0.60949  0.69701  0.96372  1.0000
  H   H1779     1.0  0.66717  0.64171  0.55662  1.0000
  Fe  Fe120     1.0  0.58847  0.71799  0.95863  1.0000
  C   C990      1.0  0.91831  0.59720  0.58014  1.0000
  H   H1780     1.0  0.89812  0.67975  0.59762  1.0000
  Fe  Fe121     1.0  0.60902  0.55875  0.74143  1.0000
  S   S239      1.0  0.57635  0.56017  0.77220  1.0000
  S   S240      1.0  0.63844  0.55454  0.77686  1.0000
  Fe  Fe122     1.0  0.59607  0.56923  0.65386  1.0000
  S   S241      1.0  0.56298  0.57242  0.67801  1.0000
  S   S242      1.0  0.60846  0.57306  0.58581  1.0000
  Fe  Fe123     1.0  0.58287  0.58819  0.72849  1.0000
  S   S243      1.0  0.57776  0.61581  0.75228  1.0000
  Fe  Fe124     1.0  0.55925  0.54386  0.71923  1.0000
  S   S244      1.0  0.52307  0.52245  0.72419  1.0000
  S   S245      1.0  0.61651  0.58782  0.70031  1.0000
  S   S246      1.0  0.59140  0.53963  0.69209  1.0000
  C   C991      1.0  0.57521  0.58927  0.56011  1.0000
  S   S247      1.0  0.94606  0.56730  0.77442  1.0000
  C   C992      1.0  0.57726  0.74047  0.78493  1.0000
  S   S248      1.0  0.93513  0.51736  0.71858  1.0000
  H   H1781     1.0  0.48286  0.53816  0.63227  1.0000
  S   S249      1.0  0.94086  0.61477  0.71174  1.0000
  H   H1782     1.0  0.92621  0.64453  0.74955  1.0000
  C   C993      1.0  0.51537  0.49583  0.72805  1.0000
  H   H1783     1.0  0.64851  0.67409  0.57141  1.0000
  C   C994      1.0  0.75826  0.69893  0.78880  1.0000
  C   C995      1.0  0.64595  0.66497  0.75532  1.0000
  C   C996      1.0  0.62577  0.66992  0.75195  1.0000
  C   C997      1.0  0.60495  0.65466  0.75108  1.0000
  C   C998      1.0  0.60406  0.63443  0.75473  1.0000
  C   C999      1.0  0.62409  0.62938  0.76008  1.0000
  C   C1000     1.0  0.64506  0.64465  0.76020  1.0000
  H   H1784     1.0  0.62613  0.68548  0.75046  1.0000
  H   H1785     1.0  0.58952  0.65849  0.74672  1.0000
  H   H1786     1.0  0.62346  0.61373  0.76457  1.0000
  H   H1787     1.0  0.66058  0.64071  0.76356  1.0000
  H   H1788     1.0  0.89614  0.66491  0.86287  1.0000
  H   H1789     1.0  0.57593  0.52954  0.84645  1.0000
  H   H1790     1.0  0.86261  0.67019  0.90109  1.0000
  C   C1001     1.0  0.57947  0.72848  0.85715  1.0000
  C   C1002     1.0  0.60240  0.73004  0.84829  1.0000
  S   S250      1.0  0.68763  0.63146  0.01487  1.0000
  H   H1791     1.0  0.59293  0.52304  0.91920  1.0000
  C   C1003     1.0  0.65989  0.66059  0.64472  1.0000
  C   C1004     1.0  0.71745  0.69424  0.95302  1.0000
  C   C1005     1.0  0.72628  0.71420  0.93496  1.0000
  C   C1006     1.0  0.68997  0.71969  0.95025  1.0000
  C   C1007     1.0  0.68121  0.69991  0.96970  1.0000
  C   C1008     1.0  0.69500  0.68716  0.97113  1.0000
  H   H1792     1.0  0.66378  0.69439  0.98312  1.0000
  H   H1793     1.0  0.68820  0.67187  0.98571  1.0000
  C   C1009     1.0  0.65181  0.58024  0.90328  1.0000
  C   C1010     1.0  0.67004  0.57952  0.87682  1.0000
  C   C1011     1.0  0.66588  0.57185  0.83779  1.0000
  C   C1012     1.0  0.64365  0.56568  0.82431  1.0000
  C   C1013     1.0  0.62558  0.56701  0.85036  1.0000
  C   C1014     1.0  0.62960  0.57366  0.89007  1.0000
  H   H1794     1.0  0.68721  0.58433  0.88688  1.0000
  H   H1795     1.0  0.67995  0.57071  0.81803  1.0000
  H   H1796     1.0  0.60839  0.56210  0.84069  1.0000
  H   H1797     1.0  0.61544  0.57365  0.91096  1.0000
  H   H1798     1.0  0.50702  0.55646  0.68512  1.0000
  C   C1015     1.0  0.50035  0.50013  0.61220  1.0000
  Fe  Fe125     1.0  0.59987  0.69364  0.03306  1.0000
  C   C1016     1.0  0.79950  0.63432  0.00475  1.0000
  C   C1017     1.0  0.79550  0.61379  0.00099  1.0000
  H   H1799     1.0  0.49643  0.59914  0.83671  1.0000
  H   H1800     1.0  0.95683  0.60577  0.97931  1.0000
  H   H1801     1.0  0.93340  0.51248  0.83915  1.0000
  H   H1802     1.0  0.87187  0.55632  0.66085  1.0000
  C   C1018     1.0  0.96706  0.58234  0.89519  1.0000
  Fe  Fe126     1.0  0.64225  0.74001  0.70183  1.0000
  C   C1019     1.0  0.93158  0.58196  0.95367  1.0000
  C   C1020     1.0  0.92741  0.56882  0.92232  1.0000
  H   H1803     1.0  0.87081  0.65056  0.57228  1.0000
  C   C1021     1.0  0.93311  0.72345  0.56922  1.0000
  H   H1804     1.0  0.49024  0.66443  0.86249  1.0000
  H   H1805     1.0  0.94172  0.55879  0.86914  1.0000
  H   H1806     1.0  0.91054  0.55823  0.92100  1.0000
  C   C1022     1.0  0.61157  0.68117  0.54166  1.0000
  C   C1023     1.0  0.59063  0.65742  0.60098  1.0000
  C   C1024     1.0  0.94952  0.49971  0.70945  1.0000
  C   C1025     1.0  0.63317  0.66900  0.59377  1.0000
  H   H1807     1.0  0.52361  0.53923  0.63343  1.0000
  H   H1808     1.0  0.90921  0.66344  0.91142  1.0000
  C   C1026     1.0  0.58055  0.63493  0.61899  1.0000
  C   C1027     1.0  0.56203  0.63230  0.65389  1.0000
  C   C1028     1.0  0.72774  0.70915  0.53885  1.0000
  H   H1809     1.0  0.52438  0.67359  0.81517  1.0000
  H   H1810     1.0  0.59392  0.66697  0.62748  1.0000
  C   C1029     1.0  0.83857  0.63793  0.02148  1.0000
  H   H1811     1.0  0.48624  0.69703  0.87507  1.0000
  H   H1812     1.0  0.63404  0.68238  0.61055  1.0000
  C   C1030     1.0  0.71267  0.72692  0.93394  1.0000
  H   H1813     1.0  0.62358  0.65040  0.65395  1.0000
  H   H1814     1.0  0.76764  0.74049  0.78550  1.0000
  N   N53       1.0  0.58350  0.50150  0.84327  1.0000
  H   H1815     1.0  0.48064  0.51763  0.58250  1.0000
  S   S251      1.0  0.56540  0.71853  0.90660  1.0000
  H   H1816     1.0  0.59355  0.62849  0.63136  1.0000
  H   H1817     1.0  0.56918  0.64119  0.67985  1.0000
  H   H1818     1.0  0.54779  0.63728  0.64198  1.0000
  H   H1819     1.0  0.66190  0.64894  0.66860  1.0000
  H   H1820     1.0  0.56744  0.74457  0.76063  1.0000
  H   H1821     1.0  0.58505  0.52141  0.60062  1.0000
  C   C1031     1.0  0.97273  0.69885  0.65621  1.0000
  C   C1032     1.0  0.97329  0.50547  0.70802  1.0000
  H   H1822     1.0  0.95336  0.68235  0.58371  1.0000
  C   C1033     1.0  0.93669  0.63164  0.60610  1.0000
  H   H1823     1.0  0.57754  0.66008  0.91091  1.0000
  H   H1824     1.0  0.59711  0.59896  0.83419  1.0000
  H   H1825     1.0  0.67375  0.66368  0.61959  1.0000
  C   C1034     1.0  0.49694  0.55219  0.62160  1.0000
  H   H1826     1.0  0.57305  0.59212  0.59216  1.0000
  H   H1827     1.0  0.61429  0.52562  0.85191  1.0000
  C   C1035     1.0  0.95614  0.63908  0.72408  1.0000
  H   H1828     1.0  0.92302  0.60241  0.86829  1.0000
  H   H1829     1.0  0.50613  0.67378  0.90624  1.0000
  H   H1830     1.0  0.59036  0.62047  0.91099  1.0000
  C   C1036     1.0  0.88912  0.55547  0.66730  1.0000
  C   C1037     1.0  0.68934  0.71177  0.54084  1.0000
  C   C1038     1.0  0.93984  0.61146  0.59771  1.0000
  H   H1831     1.0  0.92133  0.61721  0.82073  1.0000
  H   H1832     1.0  0.63519  0.63862  0.61433  1.0000
  N   N54       1.0  0.61163  0.66306  0.57087  1.0000
  H   H1833     1.0  0.55804  0.63493  0.91626  1.0000
  H   H1834     1.0  0.64665  0.56144  0.56008  1.0000
  H   H1835     1.0  0.61667  0.50112  0.86252  1.0000
  H   H1836     1.0  0.90160  0.64472  0.80546  1.0000
  C   C1039     1.0  0.94696  0.53794  0.58702  1.0000
  S   S252      1.0  0.66768  0.72010  0.56350  1.0000
  H   H1837     1.0  0.48377  0.59975  0.88820  1.0000
  H   H1838     1.0  0.56179  0.64388  0.84650  1.0000
  Fe  Fe127     1.0  0.63778  0.72440  0.97595  1.0000
  H   H1839     1.0  0.74368  0.71980  0.92145  1.0000
  C   C1040     1.0  0.90767  0.57429  0.64472  1.0000
  C   C1041     1.0  0.93050  0.56706  0.58588  1.0000
  C   C1042     1.0  0.61075  0.49781  0.78338  1.0000
  H   H1840     1.0  0.94788  0.53803  0.55252  1.0000
  C   C1043     1.0  0.51986  0.61729  0.87763  1.0000
  N   N55       1.0  0.88903  0.62255  0.88403  1.0000
  H   H1841     1.0  0.71268  0.66133  0.67697  1.0000
  C   C1044     1.0  0.87950  0.63709  0.90542  1.0000
  C   C1045     1.0  0.88288  0.60311  0.91264  1.0000
  C   C1046     1.0  0.87827  0.61794  0.84347  1.0000
  C   C1047     1.0  0.88326  0.63599  0.80943  1.0000
  H   H1842     1.0  0.90363  0.60315  0.58468  1.0000
  C   C1048     1.0  0.85697  0.59254  0.92421  1.0000
  C   C1049     1.0  0.89265  0.65998  0.89670  1.0000
  C   C1050     1.0  0.94782  0.50664  0.83197  1.0000
  C   C1051     1.0  0.87589  0.62886  0.76720  1.0000
  C   C1052     1.0  0.76527  0.73353  0.75571  1.0000
  C   C1053     1.0  0.85306  0.57562  0.95965  1.0000
  H   H1843     1.0  0.65666  0.60357  0.55557  1.0000
  H   H1844     1.0  0.76245  0.70659  0.70312  1.0000
  H   H1845     1.0  0.86147  0.63484  0.89796  1.0000
  H   H1846     1.0  0.87856  0.63388  0.94010  1.0000
  H   H1847     1.0  0.89139  0.60601  0.94226  1.0000
  H   H1848     1.0  0.88933  0.59165  0.89902  1.0000
  H   H1849     1.0  0.88312  0.60543  0.83055  1.0000
  H   H1850     1.0  0.85936  0.61213  0.84870  1.0000
  C   C1054     1.0  0.72535  0.71204  0.78037  1.0000
  H   H1851     1.0  0.87351  0.64623  0.81797  1.0000
  C   C1055     1.0  0.66344  0.56762  0.54173  1.0000
  H   H1852     1.0  0.77293  0.71970  0.83576  1.0000
  H   H1853     1.0  0.84856  0.58563  0.89695  1.0000
  H   H1854     1.0  0.84821  0.60318  0.93445  1.0000
  C   C1056     1.0  0.57364  0.52223  0.57524  1.0000
  H   H1855     1.0  0.87323  0.67282  0.53744  1.0000
  H   H1856     1.0  0.96082  0.61825  0.83236  1.0000
  C   C1057     1.0  0.53021  0.52108  0.84250  1.0000
  H   H1857     1.0  0.56154  0.51032  0.88701  1.0000
  H   H1858     1.0  0.88567  0.61897  0.75667  1.0000
  H   H1859     1.0  0.85735  0.62045  0.76925  1.0000
  H   H1860     1.0  0.87932  0.64212  0.74349  1.0000
  H   H1861     1.0  0.92225  0.63207  0.90888  1.0000
  H   H1862     1.0  0.69951  0.70830  0.85711  1.0000
  H   H1863     1.0  0.56869  0.67880  0.76060  1.0000
  H   H1864     1.0  0.86142  0.56438  0.95107  1.0000
  H   H1865     1.0  0.86005  0.58188  0.98859  1.0000
  H   H1866     1.0  0.83448  0.56785  0.96620  1.0000
  C   C1058     1.0  0.67476  0.60467  0.54718  1.0000
  C   C1059     1.0  0.77404  0.69018  0.85676  1.0000
  C   C1060     1.0  0.95344  0.59557  0.95528  1.0000
  H   H1867     1.0  0.81054  0.58972  0.00230  1.0000
  C   C1061     1.0  0.82095  0.64632  0.01504  1.0000
  H   H1868     1.0  0.50403  0.50719  0.64165  1.0000
  C   C1062     1.0  0.55405  0.52923  0.59168  1.0000
  C   C1063     1.0  0.96932  0.70898  0.61424  1.0000
  H   H1869     1.0  0.77475  0.69870  0.77366  1.0000
  H   H1870     1.0  0.76321  0.67412  0.85873  1.0000
  H   H1871     1.0  0.63249  0.50553  0.93110  1.0000
  H   H1872     1.0  0.94671  0.57607  0.59794  1.0000
  C   C1064     1.0  0.91643  0.71999  0.60838  1.0000
  H   H1873     1.0  0.71169  0.71845  0.59071  1.0000
  S   S253      1.0  0.66941  0.74042  0.74564  1.0000
  H   H1874     1.0  0.90140  0.73708  0.64746  1.0000
  H   H1875     1.0  0.88377  0.54804  0.58996  1.0000
  C   C1065     1.0  0.90378  0.67372  0.57007  1.0000
  C   C1066     1.0  0.73107  0.68210  0.71926  1.0000
  H   H1876     1.0  0.94483  0.60492  0.62681  1.0000
  H   H1877     1.0  0.78604  0.64094  0.99980  1.0000
  H   H1878     1.0  0.77688  0.69425  0.88913  1.0000
  H   H1879     1.0  0.78253  0.73290  0.74570  1.0000
  H   H1880     1.0  0.50068  0.63761  0.88448  1.0000
  H   H1881     1.0  0.56163  0.54376  0.60495  1.0000
  H   H1882     1.0  0.79085  0.69194  0.84045  1.0000
  H   H1883     1.0  0.54826  0.51042  0.79622  1.0000
  H   H1884     1.0  0.56294  0.69749  0.79000  1.0000
  H   H1885     1.0  0.74175  0.67225  0.72708  1.0000
  H   H1886     1.0  0.89027  0.56865  0.72662  1.0000
  C   C1067     1.0  0.60679  0.69899  0.56221  1.0000
  H   H1887     1.0  0.58387  0.53305  0.54910  1.0000
  H   H1888     1.0  0.49111  0.56104  0.59676  1.0000
  S   S254      1.0  0.76809  0.59804  0.99216  1.0000
  H   H1889     1.0  0.92387  0.57550  0.65973  1.0000
  C   C1068     1.0  0.74550  0.70463  0.71948  1.0000
  H   H1890     1.0  0.95262  0.64155  0.61731  1.0000
  C   C1069     1.0  0.89080  0.55436  0.71456  1.0000
  H   H1891     1.0  0.57620  0.66065  0.58523  1.0000
  H   H1892     1.0  0.97339  0.68335  0.65313  1.0000
  N   N56       1.0  0.91142  0.57528  0.59760  1.0000
  H   H1893     1.0  0.95458  0.61448  0.57448  1.0000
  H   H1894     1.0  0.89923  0.71041  0.60188  1.0000
  C   C1070     1.0  0.94502  0.56918  0.89280  1.0000
  H   H1895     1.0  0.95859  0.69801  0.67950  1.0000
  N   N57       1.0  0.74842  0.71251  0.76186  1.0000
  H   H1896     1.0  0.92082  0.64592  0.86126  1.0000
  H   H1897     1.0  0.88916  0.68894  0.90936  1.0000
  H   H1898     1.0  0.82383  0.66213  0.01855  1.0000
  H   H1899     1.0  0.52235  0.61624  0.91155  1.0000
  H   H1900     1.0  0.71466  0.59716  0.57343  1.0000
  C   C1071     1.0  0.76216  0.70389  0.83434  1.0000
  H   H1901     1.0  0.57241  0.62580  0.59408  1.0000
  C   C1072     1.0  0.67304  0.58133  0.60841  1.0000
  C   C1073     1.0  0.59060  0.50535  0.79713  1.0000
  H   H1902     1.0  0.87559  0.57020  0.59004  1.0000
  C   C1074     1.0  0.67384  0.56083  0.62993  1.0000
  C   C1075     1.0  0.60471  0.51008  0.86609  1.0000
  C   C1076     1.0  0.95271  0.62758  0.84993  1.0000
  C   C1077     1.0  0.66484  0.55788  0.67571  1.0000
  H   H1903     1.0  0.71431  0.71445  0.75530  1.0000
  H   H1904     1.0  0.95502  0.51276  0.79967  1.0000
  H   H1905     1.0  0.63517  0.53196  0.91896  1.0000
  H   H1906     1.0  0.71024  0.68630  0.66833  1.0000
  H   H1907     1.0  0.65557  0.58230  0.61554  1.0000
  H   H1908     1.0  0.68475  0.59316  0.62499  1.0000
  C   C1078     1.0  0.91484  0.63052  0.87797  1.0000
  H   H1909     1.0  0.90694  0.55151  0.72255  1.0000
  H   H1910     1.0  0.87636  0.54170  0.73016  1.0000
  C   C1079     1.0  0.56712  0.51300  0.85318  1.0000
  H   H1911     1.0  0.69164  0.56030  0.62914  1.0000
  H   H1912     1.0  0.66325  0.54784  0.61478  1.0000
  H   H1913     1.0  0.61221  0.72636  0.87300  1.0000
  N   N58       1.0  0.51618  0.53524  0.56866  1.0000
  H   H1914     1.0  0.67504  0.57027  0.69298  1.0000
  H   H1915     1.0  0.64670  0.55749  0.67820  1.0000
  H   H1916     1.0  0.66589  0.54334  0.69083  1.0000
  N   N59       1.0  0.63699  0.64466  0.90027  1.0000
  C   C1080     1.0  0.66209  0.64680  0.90029  1.0000
  C   C1081     1.0  0.62792  0.64446  0.94465  1.0000
  C   C1082     1.0  0.62499  0.62541  0.88195  1.0000
  C   C1083     1.0  0.63292  0.66206  0.87433  1.0000
  C   C1084     1.0  0.64727  0.68341  0.88351  1.0000
  C   C1085     1.0  0.67501  0.64960  0.85668  1.0000
  C   C1086     1.0  0.59883  0.62068  0.87986  1.0000
  C   C1087     1.0  0.62667  0.62556  0.97471  1.0000
  C   C1088     1.0  0.64122  0.69960  0.85585  1.0000
  C   C1089     1.0  0.70080  0.65604  0.85994  1.0000
  H   H1917     1.0  0.66466  0.63320  0.91720  1.0000
  H   H1918     1.0  0.67106  0.65950  0.91808  1.0000
  H   H1919     1.0  0.63873  0.65773  0.95903  1.0000
  H   H1920     1.0  0.62859  0.61234  0.89891  1.0000
  H   H1921     1.0  0.63194  0.62592  0.84934  1.0000
  H   H1922     1.0  0.63552  0.66081  0.84048  1.0000
  H   H1923     1.0  0.61480  0.66152  0.87901  1.0000
  H   H1924     1.0  0.66568  0.68570  0.87760  1.0000
  H   H1925     1.0  0.64414  0.68578  0.91642  1.0000
  H   H1926     1.0  0.67148  0.66131  0.83527  1.0000
  H   H1927     1.0  0.59512  0.63217  0.85783  1.0000
  H   H1928     1.0  0.92225  0.59891  0.54573  1.0000
  H   H1929     1.0  0.61481  0.61166  0.96441  1.0000
  H   H1930     1.0  0.64372  0.62361  0.97654  1.0000
  H   H1931     1.0  0.62273  0.69764  0.86044  1.0000
  H   H1932     1.0  0.65091  0.71480  0.86424  1.0000
  H   H1933     1.0  0.64555  0.69871  0.82242  1.0000
  H   H1934     1.0  0.70555  0.64471  0.88067  1.0000
  H   H1935     1.0  0.70952  0.65734  0.82852  1.0000
  H   H1936     1.0  0.70676  0.67094  0.87252  1.0000
  C   C1090     1.0  0.94445  0.65053  0.74347  1.0000
  C   C1091     1.0  0.61306  0.49748  0.73609  1.0000
  H   H1937     1.0  0.96323  0.54801  0.59665  1.0000
  H   H1938     1.0  0.61066  0.64629  0.94552  1.0000
  H   H1939     1.0  0.58819  0.58781  0.88742  1.0000
  H   H1940     1.0  0.67005  0.63517  0.84220  1.0000
  H   H1941     1.0  0.93480  0.68871  0.61898  1.0000
  H   H1942     1.0  0.91219  0.66255  0.58152  1.0000
  H   H1943     1.0  0.55514  0.61613  0.66633  1.0000
  H   H1944     1.0  0.91126  0.53448  0.59140  1.0000
  H   H1945     1.0  0.73724  0.71362  0.69915  1.0000
  H   H1946     1.0  0.92623  0.54301  0.63680  1.0000
  C   C1092     1.0  0.57445  0.68827  0.78633  1.0000
  H   H1947     1.0  0.71961  0.74229  0.91954  1.0000
  H   H1948     1.0  0.54457  0.51814  0.61778  1.0000
  H   H1949     1.0  0.92460  0.72907  0.54326  1.0000
  H   H1950     1.0  0.93424  0.56897  0.55153  1.0000
  C   C1093     1.0  0.58797  0.60021  0.86379  1.0000
  C   C1094     1.0  0.63646  0.65308  0.62720  1.0000
  Fe  Fe128     1.0  0.91408  0.60745  0.02798  1.0000
  H   H1951     1.0  0.95773  0.64300  0.83315  1.0000
  H   H1952     1.0  0.94726  0.67787  0.77214  1.0000
  C   C1095     1.0  0.70149  0.72190  0.83513  1.0000
  C   C1096     1.0  0.92676  0.61798  0.85311  1.0000
  C   C1097     1.0  0.51849  0.54715  0.60609  1.0000
  H   H1953     1.0  0.90279  0.58754  0.65387  1.0000
  H   H1954     1.0  0.53259  0.56167  0.59901  1.0000
  H   H1955     1.0  0.56994  0.59846  0.85756  1.0000
  H   H1956     1.0  0.71616  0.69675  0.79643  1.0000
  H   H1957     1.0  0.87598  0.66872  0.94963  1.0000
  C   C1098     1.0  0.92702  0.54478  0.60217  1.0000
  C   C1099     1.0  0.53880  0.53235  0.55613  1.0000
  H   H1958     1.0  0.59104  0.67132  0.82473  1.0000
  C   C1100     1.0  0.61244  0.73589  0.80719  1.0000
  H   H1959     1.0  0.51459  0.51740  0.82489  1.0000
  C   C1101     1.0  0.87921  0.67268  0.91532  1.0000
  H   H1960     1.0  0.96114  0.51222  0.85404  1.0000
  H   H1961     1.0  0.51559  0.57933  0.64938  1.0000
  H   H1962     1.0  0.56344  0.66485  0.98276  1.0000
  H   H1963     1.0  0.53968  0.53734  0.83462  1.0000
  C   C1102     1.0  0.50273  0.69664  0.86059  1.0000
  H   H1964     1.0  0.74679  0.68306  0.79182  1.0000
  C   C1103     1.0  0.56105  0.64964  0.97233  1.0000
  H   H1965     1.0  0.61246  0.63260  0.56400  1.0000
  H   H1966     1.0  0.94845  0.73641  0.57327  1.0000
  H   H1967     1.0  0.48619  0.56830  0.66906  1.0000
  C   C1104     1.0  0.60103  0.51124  0.91360  1.0000
  H   H1968     1.0  0.58911  0.69453  0.57674  1.0000
  C   C1105     1.0  0.50560  0.67592  0.87183  1.0000
  H   H1969     1.0  0.68872  0.62353  0.59760  1.0000
  H   H1970     1.0  0.71618  0.67772  0.74242  1.0000
  C   C1106     1.0  0.54474  0.50791  0.83055  1.0000
  H   H1971     1.0  0.50952  0.63667  0.83156  1.0000
  C   C1107     1.0  0.49939  0.59926  0.87048  1.0000
  C   C1108     1.0  0.69055  0.62412  0.56312  1.0000
  N   N60       1.0  0.94010  0.70560  0.55750  1.0000
  H   H1972     1.0  0.61854  0.70432  0.58676  1.0000
  C   C1109     1.0  0.72216  0.67766  0.67638  1.0000
  H   H1973     1.0  0.52495  0.51823  0.87643  1.0000
  H   H1974     1.0  0.59182  0.69863  0.77655  1.0000
  C   C1110     1.0  0.56707  0.73400  0.82549  1.0000
  H   H1975     1.0  0.74552  0.70119  0.85218  1.0000
  C   C1111     1.0  0.88247  0.66234  0.54930  1.0000
  H   H1976     1.0  0.89054  0.54116  0.65706  1.0000
  H   H1977     1.0  0.53486  0.61560  0.86001  1.0000
  Fe  Fe129     1.0  0.95784  0.54823  0.73123  1.0000
  C   C1112     1.0  0.95639  0.66940  0.75605  1.0000
  C   C1113     1.0  0.72474  0.72787  0.81102  1.0000
  H   H1978     1.0  0.73650  0.68168  0.65190  1.0000
  C   C1114     1.0  0.62379  0.51715  0.93389  1.0000
  S   S255      1.0  0.57634  0.71267  0.02683  1.0000
  H   H1979     1.0  0.57698  0.68506  0.85369  1.0000
  C   C1115     1.0  0.50182  0.56485  0.65852  1.0000
  H   H1980     1.0  0.73777  0.72958  0.83412  1.0000
  H   H1981     1.0  0.54491  0.63902  0.98781  1.0000
  C   C1116     1.0  0.59974  0.74092  0.77526  1.0000
  C   C1117     1.0  0.51549  0.63747  0.86377  1.0000
  C   C1118     1.0  0.94851  0.69544  0.59383  1.0000
  C   C1119     1.0  0.54183  0.65927  0.90943  1.0000
  C   C1120     1.0  0.55458  0.65591  0.83547  1.0000
  C   C1121     1.0  0.70365  0.58628  0.55388  1.0000
  H   H1982     1.0  0.68757  0.71868  0.81358  1.0000
  H   H1983     1.0  0.60038  0.62786  0.01968  1.0000
  H   H1984     1.0  0.52646  0.65303  0.93171  1.0000
  C   C1122     1.0  0.49746  0.51523  0.57657  1.0000
  Fe  Fe130     1.0  0.96036  0.59266  0.72371  1.0000
  C   C1123     1.0  0.70959  0.71329  0.56015  1.0000
  H   H1985     1.0  0.62990  0.73650  0.80035  1.0000
  C   C1124     1.0  0.57515  0.67562  0.82730  1.0000
  C   C1125     1.0  0.81348  0.60557  0.00549  1.0000
  H   H1986     1.0  0.95926  0.62843  0.88150  1.0000
  H   H1987     1.0  0.94470  0.52235  0.60124  1.0000
  C   C1126     1.0  0.83503  0.61764  0.01560  1.0000
  S   S256      1.0  0.96859  0.57289  0.67819  1.0000
  H   H1988     1.0  0.54821  0.67557  0.91428  1.0000
  C   C1127     1.0  0.97120  0.59549  0.92652  1.0000
  N   N61       1.0  0.53523  0.65653  0.86510  1.0000
  H   H1989     1.0  0.60626  0.72953  0.54516  1.0000
  H   H1990     1.0  0.59578  0.52184  0.78697  1.0000
  C   C1128     1.0  0.56056  0.65038  0.92481  1.0000
  C   C1129     1.0  0.88950  0.56437  0.57899  1.0000
  C   C1130     1.0  0.52744  0.67410  0.84898  1.0000
  H   H1991     1.0  0.54107  0.68859  0.85132  1.0000
  H   H1992     1.0  0.92264  0.62932  0.63056  1.0000
  H   H1993     1.0  0.57535  0.64438  0.98268  1.0000
  H   H1994     1.0  0.61755  0.51307  0.72033  1.0000
  H   H1995     1.0  0.56694  0.50702  0.56431  1.0000
  Fe  Fe131     1.0  0.60763  0.73903  0.03337  1.0000
  C   C1131     1.0  0.59134  0.58001  0.54871  1.0000
  H   H1996     1.0  0.54950  0.73321  0.83223  1.0000
  C   C1132     1.0  0.92069  0.69044  0.53910  1.0000
  C   C1133     1.0  0.61822  0.62745  0.01898  1.0000
  H   H1997     1.0  0.93280  0.63921  0.57702  1.0000
  H   H1998     1.0  0.69681  0.65660  0.55556  1.0000
  S   S257      1.0  0.67290  0.73551  0.94337  1.0000
  C   C1134     1.0  0.61090  0.64596  0.54469  1.0000
  H   H1999     1.0  0.96726  0.72374  0.61992  1.0000
  H   H2000     1.0  0.50291  0.69992  0.82621  1.0000
  H   H2001     1.0  0.49556  0.50708  0.54820  1.0000
  H   H2002     1.0  0.57611  0.49870  0.77829  1.0000
  H   H2003     1.0  0.72765  0.74289  0.79350  1.0000
  N   N62       1.0  0.67899  0.58510  0.56181  1.0000
  H   H2004     1.0  0.70868  0.62647  0.55310  1.0000
  H   H2005     1.0  0.84862  0.61110  0.02013  1.0000
  H   H2006     1.0  0.74374  0.71127  0.55315  1.0000
  H   H2007     1.0  0.70615  0.57156  0.56406  1.0000
  H   H2008     1.0  0.67072  0.55487  0.54227  1.0000
  C   C1135     1.0  0.68475  0.64276  0.54529  1.0000
  H   H2009     1.0  0.49161  0.54703  0.53787  1.0000
  H   H2010     1.0  0.54982  0.54597  0.53623  1.0000
  H   H2011     1.0  0.53612  0.51961  0.53641  1.0000
  H   H2012     1.0  0.54990  0.60261  0.53862  1.0000
  H   H2013     1.0  0.97433  0.72477  0.53606  1.0000
  H   H2014     1.0  0.76394  0.74533  0.69089  1.0000
  H   H2015     1.0  0.52012  0.97907  0.53272  1.0000
  Fe  Fe132     1.0  0.65567  0.90479  0.06771  1.0000
  C   C1136     1.0  0.69160  0.96807  0.36677  1.0000
  S   S258      1.0  0.66060  0.91435  0.13317  1.0000
  H   H2016     1.0  0.71635  0.99382  0.16960  1.0000
  H   H2017     1.0  0.51486  0.95048  0.47703  1.0000
  C   C1137     1.0  0.60970  0.78819  0.04826  1.0000
  H   H2018     1.0  0.48576  0.96065  0.24737  1.0000
  C   C1138     1.0  0.52800  0.94530  0.49326  1.0000
  S   S259      1.0  0.61111  0.76502  0.07239  1.0000
  Fe  Fe133     1.0  0.55757  0.97042  0.34539  1.0000
  S   S260      1.0  0.57096  0.94405  0.34639  1.0000
  H   H2019     1.0  0.57388  0.95450  0.51066  1.0000
  H   H2020     1.0  0.71077  0.90217  0.25730  1.0000
  S   S261      1.0  0.62088  0.97590  0.30869  1.0000
  C   C1139     1.0  0.56460  0.89220  0.30074  1.0000
  Fe  Fe134     1.0  0.58824  0.95801  0.28319  1.0000
  S   S262      1.0  0.58342  0.94086  0.22608  1.0000
  Fe  Fe135     1.0  0.60193  0.96449  0.37176  1.0000
  S   S263      1.0  0.61478  0.95482  0.43178  1.0000
  S   S264      1.0  0.57228  0.98297  0.28035  1.0000
  H   H2021     1.0  0.73884  0.95466  0.46511  1.0000
  H   H2022     1.0  0.54356  0.92305  0.28288  1.0000
  C   C1140     1.0  0.67955  0.89774  0.52077  1.0000
  C   C1141     1.0  0.50286  0.96424  0.30463  1.0000
  H   H2023     1.0  0.65005  0.93540  0.47575  1.0000
  H   H2024     1.0  0.51977  0.96801  0.28933  1.0000
  C   C1142     1.0  0.69908  0.77019  0.50041  1.0000
  C   C1143     1.0  0.62137  0.97487  0.46314  1.0000
  H   H2025     1.0  0.56637  0.88635  0.27019  1.0000
  H   H2026     1.0  0.71520  0.95911  0.07756  1.0000
  H   H2027     1.0  0.52835  0.87729  0.31065  1.0000
  C   C1144     1.0  0.61861  0.80580  0.06791  1.0000
  H   H2028     1.0  0.69051  0.75358  0.50554  1.0000
  H   H2029     1.0  0.62650  0.80499  0.09708  1.0000
  H   H2030     1.0  0.62356  0.83773  0.06639  1.0000
  C   C1145     1.0  0.63903  0.92152  0.15912  1.0000
  C   C1146     1.0  0.61745  0.91787  0.14384  1.0000
  C   C1147     1.0  0.60063  0.92391  0.16479  1.0000
  C   C1148     1.0  0.60518  0.93353  0.20134  1.0000
  C   C1149     1.0  0.62671  0.93707  0.21698  1.0000
  C   C1150     1.0  0.64358  0.93105  0.19585  1.0000
  H   H2031     1.0  0.61363  0.91014  0.11618  1.0000
  H   H2032     1.0  0.58395  0.92100  0.15273  1.0000
  H   H2033     1.0  0.63031  0.94435  0.24531  1.0000
  H   H2034     1.0  0.66015  0.93361  0.20799  1.0000
  C   C1151     1.0  0.47821  0.95899  0.36773  1.0000
  H   H2035     1.0  0.47665  0.91728  0.38250  1.0000
  C   C1152     1.0  0.61920  0.97083  0.50662  1.0000
  H   H2036     1.0  0.76192  0.83372  0.44785  1.0000
  H   H2037     1.0  0.68284  0.92818  0.49365  1.0000
  H   H2038     1.0  0.60162  0.96643  0.07552  1.0000
  S   S265      1.0  0.65977  0.87618  0.04599  1.0000
  H   H2039     1.0  0.65180  0.90335  0.45358  1.0000
  H   H2040     1.0  0.68543  0.98411  0.17558  1.0000
  C   C1153     1.0  0.67579  0.91861  0.52358  1.0000
  C   C1154     1.0  0.76110  0.80352  0.47320  1.0000
  H   H2041     1.0  0.71668  0.83252  0.05872  1.0000
  H   H2042     1.0  0.70714  0.86146  0.08614  1.0000
  C   C1155     1.0  0.70143  0.99188  0.23299  1.0000
  S   S266      1.0  0.74990  0.99277  0.41493  1.0000
  C   C1156     1.0  0.50009  0.96334  0.34807  1.0000
  H   H2043     1.0  0.72190  0.91152  0.30502  1.0000
  H   H2044     1.0  0.70887  0.90889  0.47493  1.0000
  H   H2045     1.0  0.53936  0.89816  0.34083  1.0000
  H   H2046     1.0  0.63454  0.95061  0.08207  1.0000
  N   N63       1.0  0.50916  0.90498  0.27408  1.0000
  C   C1157     1.0  0.70806  0.91066  0.28362  1.0000
  H   H2047     1.0  0.47893  0.86279  0.19247  1.0000
  H   H2048     1.0  0.61275  0.98931  0.19596  1.0000
  H   H2049     1.0  0.78955  0.83063  0.45451  1.0000
  C   C1158     1.0  0.48366  0.96019  0.28096  1.0000
  H   H2050     1.0  0.69133  0.90227  0.30055  1.0000
  H   H2051     1.0  0.48967  0.87323  0.28652  1.0000
  H   H2052     1.0  0.47604  0.95817  0.40136  1.0000
  C   C1159     1.0  0.59605  0.94079  0.04073  1.0000
  H   H2053     1.0  0.52643  0.95763  0.19154  1.0000
  C   C1160     1.0  0.64950  0.98410  0.11505  1.0000
  H   H2054     1.0  0.47869  0.99531  0.47258  1.0000
  C   C1161     1.0  0.70425  0.90022  0.50625  1.0000
  H   H2055     1.0  0.55033  0.94868  0.43577  1.0000
  H   H2056     1.0  0.72069  0.98582  0.06362  1.0000
  H   H2057     1.0  0.51817  0.93219  0.51531  1.0000
  S   S267      1.0  0.58735  0.98988  0.37478  1.0000
  H   H2058     1.0  0.50148  0.89400  0.33971  1.0000
  H   H2059     1.0  0.68850  0.81598  0.07764  1.0000
  C   C1162     1.0  0.68480  0.96849  0.07840  1.0000
  H   H2060     1.0  0.70443  0.84111  0.12634  1.0000
  H   H2061     1.0  0.50132  0.85136  0.18818  1.0000
  H   H2062     1.0  0.66130  0.78378  0.48574  1.0000
  H   H2063     1.0  0.53377  0.91450  0.41598  1.0000
  H   H2064     1.0  0.51154  0.92580  0.42376  1.0000
  H   H2065     1.0  0.70818  0.75258  0.43193  1.0000
  H   H2066     1.0  0.66828  0.88865  0.49910  1.0000
  C   C1163     1.0  0.73286  0.76128  0.47936  1.0000
  C   C1164     1.0  0.49578  0.88505  0.25949  1.0000
  C   C1165     1.0  0.53422  0.90742  0.27618  1.0000
  S   S268      1.0  0.52352  0.96680  0.37879  1.0000
  N   N64       1.0  0.54268  0.96218  0.51573  1.0000
  H   H2067     1.0  0.61808  0.89452  0.41194  1.0000
  H   H2068     1.0  0.78821  0.98357  0.27105  1.0000
  H   H2069     1.0  0.77220  0.83241  0.49952  1.0000
  H   H2070     1.0  0.65251  0.97072  0.13203  1.0000
  C   C1166     1.0  0.77176  0.82648  0.46854  1.0000
  C   C1167     1.0  0.50670  0.92255  0.24611  1.0000
  C   C1168     1.0  0.72650  0.76125  0.43329  1.0000
  C   C1169     1.0  0.73831  0.96593  0.48580  1.0000
  C   C1170     1.0  0.70881  0.97053  0.06048  1.0000
  H   H2071     1.0  0.69586  0.77480  0.46791  1.0000
  C   C1171     1.0  0.51503  0.94467  0.17727  1.0000
  H   H2072     1.0  0.63107  0.92138  0.41052  1.0000
  H   H2073     1.0  0.77188  0.79703  0.49284  1.0000
  C   C1172     1.0  0.62148  0.90750  0.43096  1.0000
  H   H2074     1.0  0.72650  0.80273  0.46671  1.0000
  H   H2075     1.0  0.50991  0.92081  0.32939  1.0000
  C   C1173     1.0  0.63522  0.96294  0.05733  1.0000
  H   H2076     1.0  0.67307  0.96514  0.31023  1.0000
  H   H2077     1.0  0.65491  0.95700  0.38045  1.0000
  H   H2078     1.0  0.75885  0.75947  0.40647  1.0000
  H   H2079     1.0  0.59544  0.92970  0.06786  1.0000
  H   H2080     1.0  0.49738  0.94567  0.17885  1.0000
  H   H2081     1.0  0.51511  0.90714  0.46312  1.0000
  H   H2082     1.0  0.52139  0.87034  0.24303  1.0000
  C   C1174     1.0  0.62108  0.98650  0.53200  1.0000
  C   C1175     1.0  0.69721  0.84559  0.09747  1.0000
  C   C1176     1.0  0.77426  0.98798  0.28635  1.0000
  N   N65       1.0  0.70749  0.96636  0.29153  1.0000
  C   C1177     1.0  0.70255  0.97042  0.24668  1.0000
  C   C1178     1.0  0.70367  0.94398  0.30236  1.0000
  C   C1179     1.0  0.50839  0.87588  0.22766  1.0000
  C   C1180     1.0  0.73134  0.97858  0.30016  1.0000
  C   C1181     1.0  0.75116  0.97384  0.27666  1.0000
  C   C1182     1.0  0.63984  0.92153  0.49573  1.0000
  H   H2083     1.0  0.67088  0.96626  0.42397  1.0000
  C   C1183     1.0  0.70839  0.93183  0.26663  1.0000
  H   H2084     1.0  0.67919  0.84469  0.10531  1.0000
  H   H2085     1.0  0.55312  0.93015  0.47569  1.0000
  H   H2086     1.0  0.67360  0.95296  0.07559  1.0000
  H   H2087     1.0  0.76202  0.79834  0.44175  1.0000
  H   H2088     1.0  0.68568  0.95983  0.24065  1.0000
  H   H2089     1.0  0.71517  0.96741  0.22477  1.0000
  H   H2090     1.0  0.71402  0.94161  0.32872  1.0000
  H   H2091     1.0  0.68555  0.93608  0.31392  1.0000
  C   C1184     1.0  0.73591  0.79719  0.49137  1.0000
  N   N66       1.0  0.65089  0.98284  0.06847  1.0000
  H   H2092     1.0  0.51732  0.88694  0.20110  1.0000
  H   H2093     1.0  0.73401  0.97627  0.33392  1.0000
  H   H2094     1.0  0.68562  0.99383  0.24719  1.0000
  H   H2095     1.0  0.75105  0.95826  0.28691  1.0000
  C   C1185     1.0  0.55313  0.98010  0.48341  1.0000
  H   H2096     1.0  0.69374  0.98909  0.31364  1.0000
  H   H2097     1.0  0.53989  0.98264  0.46302  1.0000
  C   C1186     1.0  0.74033  0.75109  0.40751  1.0000
  H   H2098     1.0  0.69495  0.93003  0.24406  1.0000
  H   H2099     1.0  0.72505  0.93935  0.24902  1.0000
  H   H2100     1.0  0.48850  0.92185  0.24515  1.0000
  H   H2101     1.0  0.73505  0.80631  0.51779  1.0000
  H   H2102     1.0  0.61499  0.95547  0.52064  1.0000
  H   H2103     1.0  0.72936  0.77681  0.41846  1.0000
  H   H2104     1.0  0.57832  0.94055  0.03533  1.0000
  H   H2105     1.0  0.70643  0.88511  0.50454  1.0000
  C   C1187     1.0  0.52421  0.92001  0.43971  1.0000
  H   H2106     1.0  0.69342  0.95304  0.37588  1.0000
  C   C1188     1.0  0.66986  0.96891  0.38976  1.0000
  C   C1189     1.0  0.54031  0.89286  0.30945  1.0000
  H   H2107     1.0  0.56616  0.97713  0.46216  1.0000
  H   H2108     1.0  0.50441  0.91241  0.18357  1.0000
  H   H2109     1.0  0.56868  0.88210  0.32559  1.0000
  C   C1190     1.0  0.74334  0.98623  0.46940  1.0000
  H   H2110     1.0  0.57712  0.90753  0.30021  1.0000
  H   H2111     1.0  0.62576  0.88941  0.48480  1.0000
  H   H2112     1.0  0.66104  0.96234  0.51098  1.0000
  C   C1191     1.0  0.61028  0.96199  0.04904  1.0000
  H   H2113     1.0  0.53344  0.92449  0.19627  1.0000
  C   C1192     1.0  0.51559  0.92469  0.19978  1.0000
  H   H2114     1.0  0.51558  0.93692  0.25908  1.0000
  H   H2115     1.0  0.70619  0.97966  0.37810  1.0000
  H   H2116     1.0  0.52104  0.94576  0.14392  1.0000
  H   H2117     1.0  0.65229  0.76031  0.51981  1.0000
  H   H2118     1.0  0.62339  0.92428  0.50355  1.0000
  H   H2119     1.0  0.75161  0.76469  0.47936  1.0000
  H   H2120     1.0  0.54205  0.90591  0.24554  1.0000
  C   C1193     1.0  0.68612  0.78020  0.52962  1.0000
  C   C1194     1.0  0.63538  0.90413  0.46739  1.0000
  H   H2121     1.0  0.73496  0.75077  0.37505  1.0000
  H   H2122     1.0  0.61383  0.96947  0.13774  1.0000
  C   C1195     1.0  0.66159  0.77675  0.51786  1.0000
  H   H2123     1.0  0.66735  0.98387  0.38245  1.0000
  H   H2124     1.0  0.69477  0.79671  0.52831  1.0000
  C   C1196     1.0  0.69081  0.97251  0.31887  1.0000
  C   C1197     1.0  0.54084  0.93677  0.46067  1.0000
  N   N67       1.0  0.72442  0.77499  0.50507  1.0000
  H   H2125     1.0  0.65942  0.76986  0.05687  1.0000
  H   H2126     1.0  0.60485  0.90887  0.44253  1.0000
  C   C1198     1.0  0.62958  0.99024  0.18069  1.0000
  H   H2127     1.0  0.71607  0.90810  0.52888  1.0000
  H   H2128     1.0  0.68624  0.97055  0.11192  1.0000
  H   H2129     1.0  0.68599  0.95742  0.52912  1.0000
  C   C1199     1.0  0.70074  0.99527  0.18572  1.0000
  H   H2130     1.0  0.69635  0.99461  0.45900  1.0000
  H   H2131     1.0  0.63655  0.97967  0.19928  1.0000
  H   H2132     1.0  0.75015  0.97563  0.24237  1.0000
  C   C1200     1.0  0.73299  0.96015  0.52893  1.0000
  C   C1201     1.0  0.69851  0.83149  0.06434  1.0000
  C   C1202     1.0  0.61705  0.82439  0.05044  1.0000
  H   H2133     1.0  0.47998  0.88642  0.24574  1.0000
  H   H2134     1.0  0.77613  0.98724  0.32057  1.0000
  H   H2135     1.0  0.48291  0.84601  0.23548  1.0000
  C   C1203     1.0  0.67527  0.98430  0.05549  1.0000
  C   C1204     1.0  0.49980  0.90643  0.31747  1.0000
  C   C1205     1.0  0.49179  0.85792  0.20998  1.0000
  C   C1206     1.0  0.62666  0.98468  0.13588  1.0000
  H   H2136     1.0  0.69771  0.79428  0.04105  1.0000
  H   H2137     1.0  0.67941  0.75747  0.04002  1.0000
  C   C1207     1.0  0.62729  0.99484  0.44511  1.0000
  H   H2138     1.0  0.73389  0.99499  0.29388  1.0000
  H   H2139     1.0  0.63622  0.93830  0.56593  1.0000
  S   S269      1.0  0.65321  0.89455  0.95076  1.0000
  S   S270      1.0  0.71454  0.89230  0.96663  1.0000
  S   S271      1.0  0.64918  0.94938  0.93966  1.0000
  Fe  Fe136     1.0  0.71633  0.93648  0.64413  1.0000
  S   S272      1.0  0.68942  0.90899  0.62799  1.0000
  S   S273      1.0  0.72488  0.96805  0.61018  1.0000
  Fe  Fe137     1.0  0.72517  0.91412  0.72338  1.0000
  S   S274      1.0  0.69910  0.88481  0.71373  1.0000
  S   S275      1.0  0.74847  0.91754  0.77593  1.0000
  Fe  Fe138     1.0  0.71312  0.89164  0.64713  1.0000
  S   S276      1.0  0.71437  0.86664  0.60792  1.0000
  Fe  Fe139     1.0  0.67729  0.90406  0.69535  1.0000
  S   S277      1.0  0.63973  0.89093  0.71311  1.0000
  S   S278      1.0  0.74137  0.91965  0.65771  1.0000
  S   S279      1.0  0.70209  0.93294  0.71105  1.0000
  H   H2140     1.0  0.64392  0.98859  0.98514  1.0000
  S   S280      1.0  0.72140  0.78546  0.70236  1.0000
  C   C1208     1.0  0.67127  0.97351  0.56948  1.0000
  C   C1209     1.0  0.77453  0.95613  0.91247  1.0000
  C   C1210     1.0  0.68157  0.83528  0.95013  1.0000
  H   H2141     1.0  0.56277  0.88582  0.94759  1.0000
  H   H2142     1.0  0.55724  0.91557  0.75880  1.0000
  C   C1211     1.0  0.62287  0.90649  0.70154  1.0000
  C   C1212     1.0  0.59937  0.89751  0.69994  1.0000
  C   C1213     1.0  0.58521  0.90945  0.69207  1.0000
  C   C1214     1.0  0.63222  0.92753  0.69547  1.0000
  H   H2143     1.0  0.59210  0.88124  0.70475  1.0000
  H   H2144     1.0  0.56706  0.90236  0.69067  1.0000
  H   H2145     1.0  0.65037  0.93456  0.69700  1.0000
  C   C1215     1.0  0.71623  0.84424  0.63499  1.0000
  C   C1216     1.0  0.70885  0.82610  0.61656  1.0000
  C   C1217     1.0  0.70999  0.80801  0.63746  1.0000
  C   C1218     1.0  0.71912  0.80799  0.67645  1.0000
  C   C1219     1.0  0.72686  0.82618  0.69464  1.0000
  C   C1220     1.0  0.72506  0.84421  0.67431  1.0000
  H   H2146     1.0  0.70198  0.82604  0.58623  1.0000
  H   H2147     1.0  0.70424  0.79417  0.62300  1.0000
  H   H2148     1.0  0.73418  0.82635  0.72457  1.0000
  H   H2149     1.0  0.73098  0.85817  0.68860  1.0000
  C   C1221     1.0  0.77201  0.97109  0.87698  1.0000
  H   H2150     1.0  0.63433  0.91619  0.79559  1.0000
  H   H2151     1.0  0.58890  0.80861  0.96509  1.0000
  H   H2152     1.0  0.54229  0.92481  0.55691  1.0000
  C   C1222     1.0  0.72261  0.89858  0.91281  1.0000
  C   C1223     1.0  0.74475  0.89971  0.89884  1.0000
  C   C1224     1.0  0.75216  0.90499  0.85657  1.0000
  C   C1225     1.0  0.73734  0.90874  0.82757  1.0000
  C   C1226     1.0  0.71491  0.90713  0.84108  1.0000
  C   C1227     1.0  0.70766  0.90229  0.88384  1.0000
  H   H2153     1.0  0.75645  0.89698  0.92096  1.0000
  H   H2154     1.0  0.76957  0.90643  0.84636  1.0000
  H   H2155     1.0  0.70347  0.91026  0.81887  1.0000
  H   H2156     1.0  0.69066  0.90165  0.89428  1.0000
  C   C1228     1.0  0.59934  0.78933  0.01069  1.0000
  H   H2157     1.0  0.77567  0.94209  0.90009  1.0000
  H   H2158     1.0  0.48778  0.97255  0.69760  1.0000
  C   C1229     1.0  0.67607  0.96816  0.93271  1.0000
  C   C1230     1.0  0.69594  0.96320  0.94015  1.0000
  H   H2159     1.0  0.74093  0.74685  0.72496  1.0000
  N   N68       1.0  0.66124  0.80083  0.80051  1.0000
  C   C1231     1.0  0.66340  0.80170  0.75346  1.0000
  C   C1232     1.0  0.67342  0.78667  0.81863  1.0000
  C   C1233     1.0  0.63617  0.79181  0.81453  1.0000
  C   C1234     1.0  0.67010  0.82141  0.81616  1.0000
  C   C1235     1.0  0.69057  0.83734  0.79036  1.0000
  C   C1236     1.0  0.64818  0.81246  0.73015  1.0000
  C   C1237     1.0  0.63032  0.78635  0.86235  1.0000
  C   C1238     1.0  0.69965  0.79357  0.81010  1.0000
  C   C1239     1.0  0.70942  0.77666  0.82372  1.0000
  C   C1240     1.0  0.70043  0.85571  0.81421  1.0000
  C   C1241     1.0  0.65651  0.81851  0.68420  1.0000
  C   C1242     1.0  0.60536  0.78403  0.87441  1.0000
  H   H2160     1.0  0.65885  0.78612  0.74357  1.0000
  H   H2161     1.0  0.68131  0.80894  0.74080  1.0000
  H   H2162     1.0  0.67065  0.78423  0.85323  1.0000
  S   S281      1.0  0.62528  0.90408  0.03111  1.0000
  H   H2163     1.0  0.62850  0.77782  0.79931  1.0000
  H   H2164     1.0  0.62662  0.80229  0.80394  1.0000
  H   H2165     1.0  0.65640  0.82869  0.81771  1.0000
  H   H2166     1.0  0.67497  0.81973  0.84880  1.0000
  H   H2167     1.0  0.68496  0.84271  0.76054  1.0000
  H   H2168     1.0  0.70461  0.83132  0.78232  1.0000
  H   H2169     1.0  0.63040  0.80206  0.73147  1.0000
  H   H2170     1.0  0.64778  0.82624  0.74447  1.0000
  H   H2171     1.0  0.64108  0.79800  0.88046  1.0000
  H   H2172     1.0  0.63310  0.77169  0.87212  1.0000
  H   H2173     1.0  0.70487  0.79812  0.77661  1.0000
  H   H2174     1.0  0.70758  0.80643  0.82822  1.0000
  Fe  Fe140     1.0  0.65111  0.92190  0.97958  1.0000
  H   H2175     1.0  0.66555  0.95082  0.83326  1.0000
  C   C1243     1.0  0.64970  0.88382  0.82268  1.0000
  H   H2176     1.0  0.68732  0.86311  0.82104  1.0000
  H   H2177     1.0  0.70694  0.85129  0.84396  1.0000
  H   H2178     1.0  0.71491  0.86689  0.79500  1.0000
  H   H2179     1.0  0.65783  0.80523  0.66887  1.0000
  H   H2180     1.0  0.64437  0.82482  0.66778  1.0000
  H   H2181     1.0  0.67343  0.83031  0.68138  1.0000
  H   H2182     1.0  0.60140  0.77882  0.90823  1.0000
  H   H2183     1.0  0.60202  0.79871  0.86836  1.0000
  C   C1244     1.0  0.77273  0.77036  0.72772  1.0000
  H   H2184     1.0  0.68443  0.82830  0.92143  1.0000
  H   H2185     1.0  0.75255  0.98981  0.73038  1.0000
  S   S282      1.0  0.68103  0.92440  0.01789  1.0000
  C   C1245     1.0  0.74933  0.96242  0.85615  1.0000
  H   H2186     1.0  0.49549  0.97331  0.60295  1.0000
  H   H2187     1.0  0.78948  0.96941  0.71558  1.0000
  H   H2188     1.0  0.69937  0.78614  0.99001  1.0000
  H   H2189     1.0  0.73184  0.85838  0.99003  1.0000
  C   C1246     1.0  0.55528  0.93780  0.56786  1.0000
  H   H2190     1.0  0.62505  0.95576  0.68569  1.0000
  C   C1247     1.0  0.57662  0.89910  0.95571  1.0000
  H   H2191     1.0  0.74329  0.74789  0.61327  1.0000
  H   H2192     1.0  0.68756  0.92579  0.54701  1.0000
  H   H2193     1.0  0.72354  0.94827  0.79414  1.0000
  H   H2194     1.0  0.65263  0.78365  0.53995  1.0000
  H   H2195     1.0  0.59920  0.94133  0.85681  1.0000
  H   H2196     1.0  0.77111  0.96252  0.78950  1.0000
  H   H2197     1.0  0.74808  0.94686  0.84901  1.0000
  C   C1248     1.0  0.60191  0.87813  0.60320  1.0000
  H   H2198     1.0  0.65957  0.89312  0.79441  1.0000
  H   H2199     1.0  0.57092  0.91804  0.60212  1.0000
  C   C1249     1.0  0.58896  0.90621  0.81290  1.0000
  H   H2200     1.0  0.58496  0.88959  0.81282  1.0000
  C   C1250     1.0  0.65331  0.93656  0.55950  1.0000
  H   H2201     1.0  0.77731  0.98221  0.67657  1.0000
  H   H2202     1.0  0.61626  0.88033  0.80194  1.0000
  H   H2203     1.0  0.63162  0.98074  0.77232  1.0000
  H   H2204     1.0  0.79138  0.77263  0.72589  1.0000
  Fe  Fe141     1.0  0.69337  0.75741  0.69116  1.0000
  Fe  Fe142     1.0  0.59116  0.97852  0.67399  1.0000
  H   H2205     1.0  0.70152  0.94866  0.85869  1.0000
  S   S283      1.0  0.61747  0.74568  0.96496  1.0000
  S   S284      1.0  0.60359  0.84865  0.99161  1.0000
  C   C1251     1.0  0.62835  0.90946  0.82814  1.0000
  Fe  Fe143     1.0  0.63086  0.87664  0.00627  1.0000
  C   C1252     1.0  0.60619  0.82548  0.01350  1.0000
  H   H2206     1.0  0.65956  0.76232  0.00451  1.0000
  H   H2207     1.0  0.76906  0.78046  0.70234  1.0000
  H   H2208     1.0  0.49380  0.94698  0.55246  1.0000
  N   N69       1.0  0.74606  0.97468  0.81737  1.0000
  H   H2209     1.0  0.70865  0.96791  0.02707  1.0000
  C   C1253     1.0  0.56585  0.90987  0.82239  1.0000
  H   H2210     1.0  0.62766  0.94227  0.86260  1.0000
  C   C1254     1.0  0.78175  0.98170  0.70964  1.0000
  H   H2211     1.0  0.57244  0.96921  0.55178  1.0000
  H   H2212     1.0  0.65460  0.97562  0.57782  1.0000
  H   H2213     1.0  0.67952  0.96364  0.78403  1.0000
  N   N70       1.0  0.69036  0.82588  0.98709  1.0000
  S   S285      1.0  0.57552  0.94482  0.68037  1.0000
  C   C1255     1.0  0.68016  0.95260  0.81052  1.0000
  H   H2214     1.0  0.73557  0.96063  0.88083  1.0000
  H   H2215     1.0  0.72026  0.97114  0.77231  1.0000
  C   C1256     1.0  0.49990  0.95931  0.61140  1.0000
  H   H2216     1.0  0.64246  0.91631  0.84806  1.0000
  H   H2217     1.0  0.75976  0.95221  0.93603  1.0000
  H   H2218     1.0  0.56933  0.90698  0.97836  1.0000
  H   H2219     1.0  0.77230  0.98521  0.89066  1.0000
  C   C1257     1.0  0.61954  0.94946  0.79911  1.0000
  C   C1258     1.0  0.61326  0.93682  0.84250  1.0000
  H   H2220     1.0  0.72732  0.85636  0.93526  1.0000
  H   H2221     1.0  0.68323  0.98806  0.55503  1.0000
  H   H2222     1.0  0.54867  0.94160  0.59763  1.0000
  C   C1259     1.0  0.61786  0.93955  0.68882  1.0000
  H   H2223     1.0  0.63104  0.84312  0.91888  1.0000
  H   H2224     1.0  0.56805  0.92584  0.82709  1.0000
  H   H2225     1.0  0.60334  0.89990  0.55138  1.0000
  H   H2226     1.0  0.54846  0.88908  0.77859  1.0000
  H   H2227     1.0  0.78703  0.97439  0.85430  1.0000
  S   S286      1.0  0.61097  0.74771  0.72291  1.0000
  H   H2228     1.0  0.55691  0.90004  0.85079  1.0000
  H   H2229     1.0  0.64765  0.86771  0.81923  1.0000
  H   H2230     1.0  0.72227  0.82022  0.00040  1.0000
  C   C1260     1.0  0.64899  0.84317  0.91433  1.0000
  C   C1261     1.0  0.71673  0.97844  0.94205  1.0000
  C   C1262     1.0  0.62708  0.97210  0.80370  1.0000
  C   C1263     1.0  0.72336  0.96345  0.80196  1.0000
  H   H2231     1.0  0.60455  0.94622  0.77993  1.0000
  C   C1264     1.0  0.73173  0.84895  0.96404  1.0000
  H   H2232     1.0  0.66616  0.77148  0.80749  1.0000
  H   H2233     1.0  0.58876  0.88774  0.88501  1.0000
  H   H2234     1.0  0.60009  0.86556  0.58339  1.0000
  S   S287      1.0  0.66604  0.75863  0.64848  1.0000
  H   H2235     1.0  0.63366  0.94638  0.78147  1.0000
  H   H2236     1.0  0.51287  0.93806  0.58321  1.0000
  H   H2237     1.0  0.59386  0.77271  0.85649  1.0000
  C   C1265     1.0  0.58704  0.91351  0.91657  1.0000
  H   H2238     1.0  0.61180  0.87588  0.63023  1.0000
  C   C1266     1.0  0.75940  0.74843  0.72281  1.0000
  H   H2239     1.0  0.64767  0.89846  0.59084  1.0000
  H   H2240     1.0  0.90750  0.74758  0.59363  1.0000
  C   C1267     1.0  0.52835  0.96844  0.54795  1.0000
  H   H2241     1.0  0.67872  0.93779  0.79888  1.0000
  H   H2242     1.0  0.64234  0.97639  0.82217  1.0000
  C   C1268     1.0  0.49359  0.98882  0.69714  1.0000
  H   H2243     1.0  0.59935  0.92729  0.92664  1.0000
  H   H2244     1.0  0.61381  0.91029  0.59885  1.0000
  H   H2245     1.0  0.48449  0.94765  0.62687  1.0000
  H   H2246     1.0  0.61772  0.87768  0.85768  1.0000
  H   H2247     1.0  0.61473  0.90248  0.90311  1.0000
  H   H2248     1.0  0.72172  0.78012  0.57026  1.0000
  C   C1269     1.0  0.55027  0.90459  0.78671  1.0000
  H   H2249     1.0  0.61310  0.97641  0.81920  1.0000
  H   H2250     1.0  0.64477  0.81829  0.96119  1.0000
  C   C1270     1.0  0.59431  0.93051  0.68719  1.0000
  C   C1271     1.0  0.59734  0.80789  0.99365  1.0000
  C   C1272     1.0  0.62621  0.88671  0.82821  1.0000
  N   N71       1.0  0.60705  0.91414  0.84255  1.0000
  H   H2251     1.0  0.75706  0.83941  0.92928  1.0000
  H   H2252     1.0  0.66036  0.80249  0.01666  1.0000
  C   C1273     1.0  0.61377  0.89847  0.57793  1.0000
  H   H2253     1.0  0.76748  0.77467  0.75806  1.0000
  H   H2254     1.0  0.73181  0.97446  0.94966  1.0000
  H   H2255     1.0  0.59224  0.77580  0.99551  1.0000
  H   H2256     1.0  0.65010  0.83414  0.88828  1.0000
  H   H2257     1.0  0.65296  0.84296  0.97965  1.0000
  H   H2258     1.0  0.66003  0.85900  0.90601  1.0000
  H   H2259     1.0  0.79035  0.96294  0.92812  1.0000
  H   H2260     1.0  0.58977  0.89367  0.97086  1.0000
  H   H2261     1.0  0.65973  0.93388  0.59066  1.0000
  H   H2262     1.0  0.69108  0.85165  0.94383  1.0000
  H   H2263     1.0  0.53310  0.90545  0.79607  1.0000
  H   H2264     1.0  0.74806  0.96316  0.73109  1.0000
  Fe  Fe144     1.0  0.68173  0.89601  0.99182  1.0000
  H   H2265     1.0  0.69538  0.94760  0.94441  1.0000
  H   H2266     1.0  0.57314  0.91793  0.90205  1.0000
  C   C1274     1.0  0.75222  0.76439  0.60830  1.0000
  H   H2267     1.0  0.76198  0.84182  0.98397  1.0000
  H   H2268     1.0  0.58465  0.87773  0.61536  1.0000
  C   C1275     1.0  0.67764  0.98842  0.92235  1.0000
  C   C1276     1.0  0.70213  0.96020  0.83240  1.0000
  H   H2269     1.0  0.65946  0.88815  0.85036  1.0000
  H   H2270     1.0  0.59543  0.91245  0.78023  1.0000
  C   C1277     1.0  0.65605  0.83411  0.95439  1.0000
  H   H2271     1.0  0.70281  0.76386  0.80481  1.0000
  H   H2272     1.0  0.77009  0.76716  0.61682  1.0000
  C   C1278     1.0  0.59966  0.90364  0.88635  1.0000
  H   H2273     1.0  0.70203  0.97440  0.84514  1.0000
  H   H2274     1.0  0.58966  0.94339  0.58873  1.0000
  C   C1279     1.0  0.75608  0.84840  0.95570  1.0000
  C   C1280     1.0  0.67580  0.80393  0.99580  1.0000
  C   C1281     1.0  0.75213  0.77229  0.56262  1.0000
  H   H2275     1.0  0.53952  0.97695  0.57091  1.0000
  C   C1282     1.0  0.56196  0.95661  0.53536  1.0000
  H   H2276     1.0  0.78056  0.98915  0.78948  1.0000
  H   H2277     1.0  0.70477  0.77138  0.85739  1.0000
  C   C1283     1.0  0.71483  0.82737  0.97513  1.0000
  C   C1284     1.0  0.68834  0.83729  0.02397  1.0000
  H   H2278     1.0  0.71656  0.75444  0.56153  1.0000
  H   H2279     1.0  0.72831  0.78219  0.81845  1.0000
  H   H2280     1.0  0.66897  0.79778  0.96652  1.0000
  H   H2281     1.0  0.67009  0.83507  0.03313  1.0000
  H   H2282     1.0  0.67839  0.96912  0.59854  1.0000
  C   C1285     1.0  0.50829  0.95167  0.57267  1.0000
  H   H2283     1.0  0.76771  0.86403  0.94737  1.0000
  C   C1286     1.0  0.76531  0.97616  0.78515  1.0000
  H   H2284     1.0  0.71542  0.81872  0.94782  1.0000
  H   H2285     1.0  0.74380  0.77226  0.62920  1.0000
  C   C1287     1.0  0.57596  0.93096  0.57736  1.0000
  C   C1288     1.0  0.73228  0.97460  0.55595  1.0000
  C   C1289     1.0  0.68765  0.78878  0.01447  1.0000
  C   C1290     1.0  0.76016  0.97768  0.73839  1.0000
  H   H2286     1.0  0.69597  0.85383  0.01539  1.0000
  H   H2287     1.0  0.51333  0.96252  0.63409  1.0000
  C   C1291     1.0  0.63843  0.89993  0.56245  1.0000
  H   H2288     1.0  0.61826  0.98314  0.56551  1.0000
  C   C1292     1.0  0.67037  0.76839  0.02989  1.0000
  H   H2289     1.0  0.60984  0.97217  0.02101  1.0000
  H   H2290     1.0  0.67714  0.98249  0.02161  1.0000
  H   H2291     1.0  0.52935  0.99099  0.69310  1.0000
  H   H2292     1.0  0.68507  0.77340  0.56229  1.0000
  H   H2293     1.0  0.93045  0.75017  0.62814  1.0000
  H   H2294     1.0  0.66260  0.99238  0.91437  1.0000
  H   H2295     1.0  0.58263  0.92603  0.54899  1.0000
  H   H2296     1.0  0.60335  0.93631  0.01240  1.0000
  H   H2297     1.0  0.64225  0.95842  0.02862  1.0000
  H   H2298     1.0  0.72958  0.94459  0.54134  1.0000
  H   H2299     1.0  0.67610  0.88885  0.55192  1.0000
  H   H2300     1.0  0.63723  0.88614  0.54695  1.0000
  H   H2301     1.0  0.76241  0.78848  0.55928  1.0000
  C   C1293     1.0  0.72753  0.77009  0.55058  1.0000
  H   H2302     1.0  0.97311  0.74861  0.99027  1.0000
  H   H2303     1.0  0.73610  0.99392  0.85845  1.0000
  S   S288      1.0  0.62753  0.99441  0.65139  1.0000
  C   C1294     1.0  0.66864  0.95751  0.53895  1.0000
  H   H2304     1.0  0.76051  0.76375  0.54356  1.0000
  C   C1295     1.0  0.73722  0.99488  0.53952  1.0000
  C   C1296     1.0  0.74681  0.99532  0.82908  1.0000
  N   N72       1.0  0.65171  0.91882  0.53475  1.0000
