data_image0
_chemical_formula_structural       FeS2FeS2FeSFeS3HCHSCFeS2FeSFeSHSCH6CHCHC4H2C6H2CHCH2C2H2FeCHCH3CHCHC2H3C2H4C2H2C2H4C6H4C2HC3H4C2HC2HCH2C2H4C2H2C2H2CH5CHSHC2NC2H2C2H5C5H7NHC3H2C3SHCH8CH2NH7SH4CH2CNC10H21CH3CHNH2CH2CH2CHCSH10CH3SHCHCNH4C2H5CH2CH2C3H3NCH5CH5CH4C2H5CH2FeHC2H4CHC2H14C2H6C2HCH4NH3CHNCH3CHCH2C2HC2HCH2C2H3C2H3C2H2C2HCH3CSH3CH3CHCHNH2C3HC2H2CHCH4CH4CH2FeSH2CH3SCSHSHFeS2FeHFeHCSCHSC2FeSHCH2FeS2FeSFeSFeHS2C2HFeS2FeHFeSHSC6H4C6H4C8HC2HC3HNH2C3H2CH3FeH3CHC2SH4CSHCHCHFeH2CS2C2H3CH2CH2CH2C4H4CH4NH7C2H2SH4CHC7H5CH9CHCH2CH5SCHSH10NSC2H4C2HC2H3CHCNC4H2CH6CH5FeH2CH2CH3CHSH6NC6HCHSCSH5CH5CH6CH7CHCH10CHC3FeS2FeS2FeSFeS3HS2FeS2FeSFeSHSHC2H8CHC4HFeC6H4C6H4C6H4SH2C2H2CH2C3HSH13CH4CHCH3CH2C4HC2H10CH2C4H4CHNC2HC3HCNH6FeH4C2HCH2CHNCH2CHCHCH2CH5CH4CH2C2HCNC12H19CNH6CHCHCHCHC2H3NCH2CHCH3CHSH7C2H2CH2CSH9CH4CH2CH10CHCHCSHCSHSC3HSHFeS4HSCFeHSFeCFeSCSFe2SHC2FeH3CH4C4HCHCH2NC3FeCFeHC2H4CH5FeC2HFeC2HCH2SHSH2CH3SHFe2CH3CHCNCHC5H4FeSH5CH2CH4C2HCHCH2SH2CH5C5H5CH2FeH4NHCH2FeCSC3H4NC4HC2HCHC2H3CH12CHC2H8NC9HC2H7CH5C2HSCH2C2H9C2SNHSHCHC2HC2H5C4H4CSH6CH2C2SHFeHCH4FeH2CHCHC3SH4CHFeSHCHS2HCH2CSCH3C3SH5CH5SHCFeH3SH3CHCHCH2CH2CHC2H2CSCH2CFeHCH2CH11CSCHCHSCH4CHFeHSH2CH2CHCHS2H2CFeH2C2H4CH2CH2CHC3SCHSFeS2FeS2FeSFeS3CHFeS2FeS2FeSFeHS2HCHCH2CHCH2C4H2CH3CH4C2H3CH5CH2CH5CHCHC3H5C3HCH3C6H4C5H8CHCHC2HC2H3CH2CHCH7C2H5C2H3C3HCH4C2H3CH2CH3CH3SHNHSHCHC2NH2SH2CH2CHCH7CH4CNH6C2NC4HC3NH6C2HC2H2C2H3CHCHCH2CHFeSHFeSCFeSFeSHSHCH3FeSCHSHFeS2FeSFeSFeS3FeSCFeS2FeSFeS3C6H4C6H8C2H7C4H2SC5H5C2HCH4CHCFeH2CH2S2C2HCH2NC5HC5H18CH5CH8CH4SHC2H2C3HCHC2H2C2HCHC4H3CHCHCH4NH4CHCHNHC2H3C3H2CHSH7CH7NH3CH6CHC2H3CH2CH2CHCH6C3H2CH4C2H3FeCHFeHCH2SHC2HNH2C2HCH4C2H11C2HCSH2CNC8H9C2H4CHCH2CH2S2CH4CHNH3C2H2CHCHCH3FeS2FeS2FeSFeS3HC2FeS2FeSFeSHSC5SH4CHC5H2C6H4C6H2CHC6H4CNH6CHC3H9NC6HC4H5CH5CH7CH3CH2FeHCH2CH11NH3C2HC2H3C2H4SHCNC2H3SCH4SCHCH3C2H3CH2C4H14CH5CH4NHC2H2CSHC2H8CH5CH4C3NHC2H2CHCH2C3HC2HCH4CH3FeS4FeSHFeSHFeHFeSCSH3SC3NH4CHC2HCH3CHCHC5HFeHC2NHCHC2H8CH3SH5CH2CHCH2CHCHCH13C2H2CHCSCHSCH7CH3CHFeHC2H2SCHC2FeHCHS2HSC2H4C2HNCHC3H2CHCH4FeH2C3H2CH2C2H3C4H5C2H5CHNSH5CH5C3H6CH2CH2CFeS2FeS2FeSFeS3C2H2SFeS2FeSFeSHSH3CH4C2HC4HC5HCH2CH2SHCHCHC2HCH7C2SH2C3H3C2HCH3CH2C6H4C6H5CNHNH5NH2CH2FeHCH3C2HCH2CH2CH2C2H3C3HC2H3CH10CH3C4HNC2H7CHC2H8CH6NC9HC2H18CHCHCHCHCHCH6NCH4SH2CH3CH4C3HC2HCHCHSH2CHCHC3H5CHCH2SH2CH5C3H9SH2CHC2NHCH14CH2CH2CH2SCH2C4HCH3C2H3CH6C3HCHNCHCH3CH6CFeH4C3HSH2CHCH2C2HCH2CH8CH3CH3SH2SHFeS2FeCFeS3FeCHCH2SHS2HFeS2FeSFeSFeS3FeSHFeS2FeSFeS3C6H4C6H4C2H2FeH5FeCHC2H4C2FeC4H2SH3C3H6SCHC2SHCH4C2HSHNC6HCH20CHC2H4SCSHCSHCHCH2CH3CHCHC3NH2CHCH2C2H5NH3CH7C3HCH3C3SCFeCH3CHFeCNH5CH2CNHC4HC2SCH11CH3SH7C3H2CHCH2C2HCH26CH3CHNC6HC4H2C2HCH6C3H8C2H7CH5C3HC3H3CHC3H6C3H2CHCH4CH3C3H3C2H3CFeS2FeS2FeSFeS3HS2FeS2FeSFeS3HC4SCH2CHC5H3C6H4C3H2CH4CH3C2H7C2NH3C6H2CH4C2HCH2C2H3C2HCHCH2CH10CH2C2NC2HC3H18FeC3H7CNCHNCH6CH2CH3CHCHNC2NH5CHC2HCHCHC4HCHCH4C2HCN2CH4CHCH9CHCH2CHCH2C4HCH7CHCH3C2HCHC6H2C3NH13CH4CHCH3CH2C2H4CH3SH3C2H6CH8C2HCH2SHCFeC2HFeS4FeS2HSCFeCFeCS2CNHFeHFeSH3C2FeC7H6C3HFeH3SHCHCNC9SC2H19FeH8FeHCFeH2CHC2HC2HCHSH5CH3SHCSHCH3CHCHSCH3CHFeH2CH3SHNC12H31CS2Fe2HCFeHCNCH3SC2H8CH2C3NH2FeH2CHFeC2HSCSHSH2S2FeC2FeC3HSCSH5SC3SH2CSCS2H3C3SH2CNH4CH4CH2SFeCH3CHCH4C3H4CH2CH8CHCHCH3CH2NHC5H2CHSC3HC4HCSC2H5SH4CH2CH2CFeHC2HCH6CH2C3HC2HCHC2SHCH3FeS2FeS2FeSFeS3HCFeHSFeS2FeCFeHS2H2C2H2NH2C2H5CH4CH6C2H5CH2CH4CHCH2CHCH3CH3C3SC2H2C6H4CHS2C2H7CH4CH2CSHC2H2CHCHNHCH3CH4C2HCHCH5CH4C2H3C5H2C3H8CNHC7HC3H8C2NH3SCH2CFeSH2SHFeCFeSHSCSHCHFeSCHSHFeS2FeSFeSFeS3FeSHFeS2FeSFeS3C6H4C6H6C5H3CH2C3H3FeC3HCH2CHCH3CH6C2H2C2HCH2CHCH2CH5CHCH4CH4CHCH6CH4C2HNC10H24C3HCHCHNH2C2H3FeNCH4NHCHC5H3CHSH2CH8CH2C2HCH7CHCH4C2H4CHCH2FeCHCH2SCHCH2C2H5CHCH2C2H2CH2CH3CH2SC2H6CH3CH3SH2SH5CSH6CFeS2FeS2FeSFeS3CSHFeS2FeSFeS3HC6H5C4H3C6H4C3H6C7H5CHFeH5C5H3CH2C2H2CH2CHCH4C2H3CH3CHC3H2CHCH2CH8C3H3NH2C2HCHSC4H7NCHCH3C3HCHC3H3CHSH4CH4C2H6CH8NCH2C3H2CHCH5SCH3CH2C2H5CH5CHNHC2NH2C2H2CHC3H2C2H3CH5C2NH8C2H9C2H2C2H7C4HSH3CFeS4FeS2FeH2FeCFeHS2FeH2SC3H12SC2H2CHC3H2CH3SHCH5FeH3C2SCHCH2CHC2H3CH3CH3CH7CH2SH3SH7CHCFeHNC12H4CH4CH4CHNH2CH6CH4C2SCH7C2HNHC
_chemical_formula_sum              "Fe192 S384 H3072 C1728 N96"
_cell_length_a       48.8852
_cell_length_b       49.2118
_cell_length_c       59.2351
_cell_angle_alpha    89.8869
_cell_angle_beta     90.2369
_cell_angle_gamma    120.124

_space_group_name_H-M_alt    "P 1"
_space_group_IT_number       1

loop_
  _space_group_symop_operation_xyz
  'x, y, z'

loop_
  _atom_site_type_symbol
  _atom_site_label
  _atom_site_symmetry_multiplicity
  _atom_site_fract_x
  _atom_site_fract_y
  _atom_site_fract_z
  _atom_site_occupancy
  Fe  Fe1       1.0  0.33374  0.26786  0.09651  1.0000
  S   S1        1.0  0.30428  0.22475  0.07591  1.0000
  S   S2        1.0  0.36585  0.31300  0.07889  1.0000
  Fe  Fe2       1.0  0.30501  0.23466  0.14059  1.0000
  S   S3        1.0  0.27262  0.18898  0.12329  1.0000
  S   S4        1.0  0.30429  0.23860  0.17848  1.0000
  Fe  Fe3       1.0  0.31594  0.20023  0.10295  1.0000
  S   S5        1.0  0.33161  0.16470  0.09728  1.0000
  Fe  Fe4       1.0  0.26418  0.21855  0.09803  1.0000
  S   S6        1.0  0.22076  0.21113  0.07832  1.0000
  S   S7        1.0  0.34868  0.24410  0.12189  1.0000
  S   S8        1.0  0.29339  0.26342  0.11706  1.0000
  H   H1        1.0  0.06379  0.17559  0.99768  1.0000
  C   C1        1.0  0.23851  0.40362  0.00814  1.0000
  H   H2        1.0  0.25436  0.37202  0.97374  1.0000
  S   S9        1.0  0.05031  0.30502  0.09067  1.0000
  C   C2        1.0  0.33145  0.22821  0.21581  1.0000
  Fe  Fe5       1.0  0.08297  0.24862  0.10344  1.0000
  S   S10       1.0  0.11185  0.30061  0.10900  1.0000
  S   S11       1.0  0.10164  0.21678  0.11516  1.0000
  Fe  Fe6       1.0  0.06743  0.29628  0.12354  1.0000
  S   S12       1.0  0.06776  0.31590  0.15812  1.0000
  Fe  Fe7       1.0  0.09181  0.30394  0.07560  1.0000
  S   S13       1.0  0.11960  0.33969  0.04897  1.0000
  H   H3        1.0  0.29984  0.08800  0.97227  1.0000
  S   S14       1.0  0.06613  0.25220  0.06872  1.0000
  C   C3        1.0  0.28795  0.27226  0.97355  1.0000
  H   H4        1.0  0.12504  0.26462  0.99689  1.0000
  H   H5        1.0  0.01181  0.30672  0.02273  1.0000
  H   H6        1.0  0.09405  0.42136  0.98354  1.0000
  H   H7        1.0  0.41960  0.23951  0.15661  1.0000
  H   H8        1.0  0.20825  0.13960  0.10616  1.0000
  H   H9        1.0  0.41810  0.29111  0.10386  1.0000
  C   C4        1.0  0.25235  0.02434  0.01171  1.0000
  H   H10       1.0  0.31916  0.01882  0.08909  1.0000
  C   C5        1.0  0.39071  0.02443  0.01991  1.0000
  H   H11       1.0  0.42752  0.08451  0.07527  1.0000
  C   C6        1.0  0.06446  0.34959  0.16254  1.0000
  C   C7        1.0  0.06491  0.36869  0.14482  1.0000
  C   C8        1.0  0.06321  0.39590  0.14954  1.0000
  C   C9        1.0  0.33852  0.07863  0.96964  1.0000
  H   H12       1.0  0.06717  0.36284  0.12759  1.0000
  H   H13       1.0  0.26646  0.16538  0.18161  1.0000
  C   C10       1.0  0.12074  0.32443  0.02243  1.0000
  C   C11       1.0  0.12487  0.34275  0.00334  1.0000
  C   C12       1.0  0.12850  0.33279  0.98206  1.0000
  C   C13       1.0  0.13015  0.30543  0.97986  1.0000
  C   C14       1.0  0.12462  0.28620  0.99874  1.0000
  C   C15       1.0  0.11953  0.29550  0.02004  1.0000
  H   H14       1.0  0.12554  0.36486  0.00503  1.0000
  H   H15       1.0  0.46452  0.15478  0.08677  1.0000
  C   C16       1.0  0.29136  0.10989  0.03717  1.0000
  H   H16       1.0  0.11624  0.28109  0.03468  1.0000
  C   C17       1.0  0.27789  0.29027  0.20981  1.0000
  H   H17       1.0  0.47594  0.09626  0.04224  1.0000
  H   H18       1.0  0.28045  0.11030  0.12715  1.0000
  C   C18       1.0  0.45277  0.23212  0.17666  1.0000
  C   C19       1.0  0.32747  0.05063  0.06084  1.0000
  H   H19       1.0  0.30979  0.04939  0.09490  1.0000
  H   H20       1.0  0.16709  0.44881  0.11363  1.0000
  Fe  Fe8       1.0  0.02530  0.25279  0.08586  1.0000
  C   C20       1.0  0.04155  0.15786  0.00566  1.0000
  H   H21       1.0  0.45186  0.34565  0.04213  1.0000
  C   C21       1.0  0.39473  0.32252  0.01423  1.0000
  H   H22       1.0  0.04545  0.17614  0.03961  1.0000
  H   H23       1.0  0.01638  0.37107  0.02972  1.0000
  H   H24       1.0  0.24388  0.41688  0.02435  1.0000
  C   C22       1.0  0.23832  0.35975  0.98819  1.0000
  H   H25       1.0  0.40242  0.08521  0.01666  1.0000
  C   C23       1.0  0.49721  0.29149  0.05009  1.0000
  H   H26       1.0  0.41944  0.05967  0.04378  1.0000
  C   C24       1.0  0.30915  0.03286  0.08189  1.0000
  C   C25       1.0  0.32705  0.22491  0.19233  1.0000
  H   H27       1.0  0.19314  0.46017  0.20758  1.0000
  H   H28       1.0  0.31238  0.27675  0.97561  1.0000
  H   H29       1.0  0.28155  0.05269  0.14671  1.0000
  C   C26       1.0  0.35901  0.19987  0.19117  1.0000
  C   C27       1.0  0.34053  0.21030  0.18012  1.0000
  H   H30       1.0  0.28409  0.01651  0.07733  1.0000
  H   H31       1.0  0.36528  0.12502  0.04898  1.0000
  H   H32       1.0  0.36956  0.18884  0.18154  1.0000
  H   H33       1.0  0.33664  0.20686  0.16215  1.0000
  C   C28       1.0  0.37160  0.18089  0.08932  1.0000
  C   C29       1.0  0.39261  0.17643  0.10294  1.0000
  H   H34       1.0  0.04359  0.05781  0.99984  1.0000
  H   H35       1.0  0.05655  0.09411  0.98496  1.0000
  C   C30       1.0  0.43374  0.20096  0.07451  1.0000
  C   C31       1.0  0.38187  0.19570  0.06838  1.0000
  H   H36       1.0  0.38466  0.16462  0.11902  1.0000
  H   H37       1.0  0.44912  0.23609  0.14023  1.0000
  H   H38       1.0  0.21394  0.16627  0.15730  1.0000
  H   H39       1.0  0.36576  0.19892  0.05764  1.0000
  C   C32       1.0  0.18951  0.21477  0.09000  1.0000
  C   C33       1.0  0.16970  0.19362  0.10636  1.0000
  C   C34       1.0  0.14289  0.19457  0.11376  1.0000
  C   C35       1.0  0.13556  0.21668  0.10495  1.0000
  C   C36       1.0  0.15528  0.23784  0.08852  1.0000
  C   C37       1.0  0.18194  0.23659  0.08087  1.0000
  H   H40       1.0  0.17455  0.17590  0.11285  1.0000
  H   H41       1.0  0.12761  0.17795  0.12635  1.0000
  H   H42       1.0  0.14987  0.25503  0.08170  1.0000
  H   H43       1.0  0.19682  0.25265  0.06790  1.0000
  C   C38       1.0  0.37788  0.30610  0.05277  1.0000
  C   C39       1.0  0.38508  0.32768  0.03523  1.0000
  H   H44       1.0  0.35068  0.13494  0.00028  1.0000
  C   C40       1.0  0.39833  0.29636  0.01095  1.0000
  C   C41       1.0  0.39082  0.27454  0.02841  1.0000
  C   C42       1.0  0.38011  0.27916  0.04922  1.0000
  H   H45       1.0  0.38300  0.34834  0.03782  1.0000
  H   H46       1.0  0.09701  0.19811  0.05563  1.0000
  H   H47       1.0  0.39346  0.25420  0.02591  1.0000
  H   H48       1.0  0.37442  0.26234  0.06271  1.0000
  C   C43       1.0  0.03035  0.38736  0.98541  1.0000
  C   C44       1.0  0.48159  0.26987  0.97773  1.0000
  H   H49       1.0  0.18164  0.14369  0.00317  1.0000
  C   C45       1.0  0.10147  0.18362  0.04349  1.0000
  C   C46       1.0  0.48706  0.33161  0.03465  1.0000
  H   H50       1.0  0.25441  0.32638  0.99820  1.0000
  C   C47       1.0  0.01610  0.16616  0.99995  1.0000
  H   H51       1.0  0.41464  0.10609  0.09226  1.0000
  H   H52       1.0  0.05034  0.33031  0.99316  1.0000
  C   C48       1.0  0.23601  0.04048  0.00721  1.0000
  C   C49       1.0  0.20698  0.03108  0.01775  1.0000
  H   H53       1.0  0.21484  0.35608  0.98267  1.0000
  H   H54       1.0  0.20119  0.01747  0.21034  1.0000
  H   H55       1.0  0.44095  0.28671  0.05838  1.0000
  H   H56       1.0  0.02185  0.13470  0.03673  1.0000
  C   C50       1.0  0.04731  0.13410  0.10345  1.0000
  C   C51       1.0  0.30129  0.20527  0.99143  1.0000
  H   H57       1.0  0.10880  0.00524  0.04683  1.0000
  H   H58       1.0  0.19294  0.13807  0.07822  1.0000
  C   C52       1.0  0.23451  0.10158  0.09803  1.0000
  C   C53       1.0  0.24893  0.06321  0.11246  1.0000
  H   H59       1.0  0.28395  0.18093  0.99655  1.0000
  H   H60       1.0  0.33683  0.07141  0.98706  1.0000
  C   C54       1.0  0.42560  0.27336  0.10173  1.0000
  H   H61       1.0  0.14888  0.44094  0.99646  1.0000
  H   H62       1.0  0.18410  0.01211  0.10814  1.0000
  H   H63       1.0  0.35239  0.23204  0.98738  1.0000
  H   H64       1.0  0.09443  0.04570  0.97262  1.0000
  H   H65       1.0  0.30183  0.22361  0.02455  1.0000
  C   C55       1.0  0.06147  0.35739  0.18474  1.0000
  H   H66       1.0  0.43628  0.22259  0.19112  1.0000
  S   S15       1.0  0.03919  0.24366  0.12007  1.0000
  H   H67       1.0  0.45463  0.32278  0.07311  1.0000
  C   C56       1.0  0.02621  0.43663  0.98158  1.0000
  C   C57       1.0  0.26378  0.10155  0.05317  1.0000
  N   N1        1.0  0.24996  0.38020  0.00905  1.0000
  C   C58       1.0  0.23774  0.36178  0.03071  1.0000
  C   C59       1.0  0.28571  0.39870  0.00986  1.0000
  H   H68       1.0  0.48126  0.28775  0.98890  1.0000
  H   H69       1.0  0.13017  0.46936  0.17627  1.0000
  C   C60       1.0  0.30316  0.37989  0.01253  1.0000
  C   C61       1.0  0.33790  0.40154  0.01882  1.0000
  H   H70       1.0  0.42006  0.21594  0.04441  1.0000
  H   H71       1.0  0.24953  0.37737  0.04551  1.0000
  H   H72       1.0  0.24385  0.34301  0.03201  1.0000
  H   H73       1.0  0.29542  0.41230  0.99401  1.0000
  H   H74       1.0  0.29367  0.41636  0.02376  1.0000
  C   C62       1.0  0.48049  0.37370  0.01476  1.0000
  C   C63       1.0  0.05885  0.38390  0.18938  1.0000
  C   C64       1.0  0.12872  0.42781  0.00818  1.0000
  C   C65       1.0  0.17134  0.46120  0.20410  1.0000
  C   C66       1.0  0.45899  0.28848  0.09206  1.0000
  H   H75       1.0  0.29301  0.36192  0.02593  1.0000
  H   H76       1.0  0.30257  0.36843  0.99625  1.0000
  H   H77       1.0  0.34962  0.42109  0.00651  1.0000
  H   H78       1.0  0.34000  0.41150  0.03596  1.0000
  H   H79       1.0  0.35052  0.38801  0.01870  1.0000
  H   H80       1.0  0.40612  0.03730  0.00542  1.0000
  H   H81       1.0  0.07748  0.36916  0.01887  1.0000
  N   N2        1.0  0.26792  0.22983  0.00514  1.0000
  H   H82       1.0  0.31932  0.25262  0.00341  1.0000
  C   C67       1.0  0.26713  0.25139  0.02299  1.0000
  C   C68       1.0  0.24098  0.19692  0.00974  1.0000
  C   C69       1.0  0.26300  0.23914  0.98184  1.0000
  H   H83       1.0  0.05249  0.01872  0.96966  1.0000
  H   H84       1.0  0.43977  0.18322  0.10629  1.0000
  C   C70       1.0  0.20764  0.19318  0.01281  1.0000
  C   C71       1.0  0.29890  0.28116  0.02934  1.0000
  C   C72       1.0  0.29352  0.30195  0.04574  1.0000
  S   S16       1.0  0.06109  0.43919  0.17789  1.0000
  H   H85       1.0  0.49842  0.33130  0.18284  1.0000
  C   C73       1.0  0.18280  0.15894  0.01740  1.0000
  H   H86       1.0  0.15907  0.48254  0.13987  1.0000
  H   H87       1.0  0.25160  0.04257  0.10821  1.0000
  H   H88       1.0  0.24976  0.25880  0.01823  1.0000
  H   H89       1.0  0.25863  0.23853  0.03928  1.0000
  H   H90       1.0  0.24609  0.18734  0.02528  1.0000
  H   H91       1.0  0.23849  0.18084  0.99567  1.0000
  H   H92       1.0  0.27537  0.03228  0.00435  1.0000
  H   H93       1.0  0.01157  0.32035  0.98448  1.0000
  C   C74       1.0  0.43341  0.22727  0.15521  1.0000
  H   H94       1.0  0.26243  0.07243  0.15914  1.0000
  H   H95       1.0  0.33915  0.20541  0.01123  1.0000
  N   N3        1.0  0.23977  0.07476  0.09165  1.0000
  H   H96       1.0  0.20001  0.20049  0.99745  1.0000
  H   H97       1.0  0.20716  0.20727  0.02723  1.0000
  H   H98       1.0  0.31463  0.27424  0.03802  1.0000
  H   H99       1.0  0.31172  0.29549  0.01450  1.0000
  H   H100      1.0  0.28331  0.28915  0.06180  1.0000
  H   H101      1.0  0.31650  0.32334  0.04965  1.0000
  H   H102      1.0  0.27731  0.30918  0.03826  1.0000
  S   S17       1.0  0.47079  0.21037  0.06309  1.0000
  H   H103      1.0  0.42489  0.26288  0.11844  1.0000
  H   H104      1.0  0.07098  0.13945  0.10965  1.0000
  H   H105      1.0  0.40002  0.33924  0.00077  1.0000
  H   H106      1.0  0.27765  0.44484  0.99126  1.0000
  C   C75       1.0  0.37415  0.15181  0.00760  1.0000
  H   H107      1.0  0.11845  0.19210  0.00797  1.0000
  H   H108      1.0  0.49727  0.27285  0.16788  1.0000
  C   C76       1.0  0.26634  0.08527  0.07480  1.0000
  N   N4        1.0  0.21494  0.26320  0.16122  1.0000
  C   C77       1.0  0.24631  0.27939  0.17346  1.0000
  C   C78       1.0  0.22074  0.27062  0.13641  1.0000
  C   C79       1.0  0.19396  0.27474  0.17078  1.0000
  C   C80       1.0  0.19857  0.22804  0.16425  1.0000
  C   C81       1.0  0.21766  0.21207  0.15698  1.0000
  C   C82       1.0  0.16307  0.26548  0.15736  1.0000
  C   C83       1.0  0.23641  0.30588  0.13003  1.0000
  C   C84       1.0  0.23797  0.31018  0.10441  1.0000
  C   C85       1.0  0.20022  0.17726  0.16327  1.0000
  C   C86       1.0  0.14328  0.27738  0.16907  1.0000
  H   H109      1.0  0.48752  0.10810  0.00414  1.0000
  H   H110      1.0  0.26416  0.27560  0.16453  1.0000
  H   H111      1.0  0.23647  0.26246  0.12961  1.0000
  H   H112      1.0  0.19841  0.25726  0.12671  1.0000
  H   H113      1.0  0.20719  0.30077  0.17258  1.0000
  H   H114      1.0  0.13615  0.26699  0.18619  1.0000
  H   H115      1.0  0.19108  0.22154  0.18211  1.0000
  H   H116      1.0  0.17624  0.21638  0.15435  1.0000
  H   H117      1.0  0.24115  0.22301  0.16519  1.0000
  H   H118      1.0  0.22125  0.21364  0.13845  1.0000
  H   H119      1.0  0.14814  0.23962  0.15582  1.0000
  H   H120      1.0  0.16827  0.27574  0.14014  1.0000
  H   H121      1.0  0.22315  0.31681  0.13691  1.0000
  H   H122      1.0  0.26104  0.31894  0.13657  1.0000
  H   H123      1.0  0.25115  0.33561  0.10024  1.0000
  H   H124      1.0  0.25026  0.29879  0.09649  1.0000
  H   H125      1.0  0.21374  0.29986  0.09729  1.0000
  H   H126      1.0  0.15668  0.30341  0.17039  1.0000
  H   H127      1.0  0.08671  0.01626  0.08681  1.0000
  H   H128      1.0  0.19765  0.17438  0.18188  1.0000
  H   H129      1.0  0.30483  0.09280  0.15631  1.0000
  C   C87       1.0  0.03650  0.34018  0.98516  1.0000
  H   H130      1.0  0.26075  0.22155  0.96910  1.0000
  H   H131      1.0  0.48420  0.22930  0.21083  1.0000
  H   H132      1.0  0.47545  0.27169  0.04239  1.0000
  C   C88       1.0  0.06065  0.40381  0.17191  1.0000
  H   H133      1.0  0.47485  0.30638  0.10447  1.0000
  N   N5        1.0  0.38353  0.09303  0.04742  1.0000
  H   H134      1.0  0.21271  0.31093  0.00022  1.0000
  H   H135      1.0  0.39365  0.12178  0.00297  1.0000
  C   C89       1.0  0.41267  0.20535  0.06093  1.0000
  H   H136      1.0  0.21597  0.02879  0.07610  1.0000
  H   H137      1.0  0.37156  0.06239  0.07667  1.0000
  C   C90       1.0  0.07635  0.02169  0.96715  1.0000
  H   H138      1.0  0.41726  0.13890  0.06091  1.0000
  H   H139      1.0  0.14772  0.44542  0.15229  1.0000
  C   C91       1.0  0.25201  0.42818  0.98880  1.0000
  H   H140      1.0  0.29171  0.08843  0.03198  1.0000
  C   C92       1.0  0.18215  0.03048  0.09846  1.0000
  S   S18       1.0  0.41306  0.29142  0.98530  1.0000
  H   H141      1.0  0.31415  0.12657  0.04546  1.0000
  H   H142      1.0  0.25742  0.12423  0.09766  1.0000
  H   H143      1.0  0.21228  0.39116  0.00617  1.0000
  H   H144      1.0  0.21283  0.10380  0.06530  1.0000
  H   H145      1.0  0.46764  0.28169  0.17485  1.0000
  H   H146      1.0  0.41384  0.15245  0.02360  1.0000
  H   H147      1.0  0.10478  0.39124  0.98392  1.0000
  H   H148      1.0  0.29662  0.28829  0.20067  1.0000
  H   H149      1.0  0.12514  0.44502  0.01793  1.0000
  H   H150      1.0  0.18552  0.08681  0.08798  1.0000
  C   C93       1.0  0.21051  0.04705  0.08190  1.0000
  H   H151      1.0  0.24163  0.08623  0.04390  1.0000
  H   H152      1.0  0.22978  0.05456  0.12526  1.0000
  H   H153      1.0  0.05579  0.38902  0.20657  1.0000
  S   S19       1.0  0.18725  0.05208  0.01403  1.0000
  H   H154      1.0  0.26902  0.06494  0.06969  1.0000
  C   C94       1.0  0.14865  0.23261  0.02733  1.0000
  H   H155      1.0  0.29538  0.15803  0.21325  1.0000
  C   C95       1.0  0.27964  0.08754  0.12485  1.0000
  N   N6        1.0  0.49137  0.31789  0.05635  1.0000
  H   H156      1.0  0.06438  0.41108  0.13589  1.0000
  H   H157      1.0  0.25629  0.30529  0.17325  1.0000
  H   H158      1.0  0.24104  0.46213  0.00362  1.0000
  H   H159      1.0  0.15876  0.24659  0.01172  1.0000
  C   C96       1.0  0.11575  0.20478  0.02239  1.0000
  C   C97       1.0  0.05504  0.09768  0.02152  1.0000
  H   H160      1.0  0.22916  0.13739  0.19392  1.0000
  H   H161      1.0  0.04450  0.11055  0.06077  1.0000
  H   H162      1.0  0.13481  0.41409  0.02002  1.0000
  H   H163      1.0  0.16480  0.22427  0.03316  1.0000
  H   H164      1.0  0.43014  0.24315  0.97546  1.0000
  C   C98       1.0  0.39024  0.13444  0.01718  1.0000
  H   H165      1.0  0.01215  0.29066  0.20455  1.0000
  H   H166      1.0  0.30089  0.09179  0.11523  1.0000
  C   C99       1.0  0.33398  0.20856  0.99344  1.0000
  H   H167      1.0  0.16521  0.31279  0.05711  1.0000
  H   H168      1.0  0.20377  0.33429  0.06973  1.0000
  C   C100      1.0  0.20155  0.34613  0.03453  1.0000
  C   C101      1.0  0.20985  0.10541  0.08365  1.0000
  C   C102      1.0  0.19211  0.48545  0.16647  1.0000
  H   H169      1.0  0.34665  0.09494  0.02815  1.0000
  H   H170      1.0  0.17644  0.16488  0.15524  1.0000
  H   H171      1.0  0.42348  0.25960  0.20289  1.0000
  N   N7        1.0  0.07211  0.15190  0.03984  1.0000
  C   C103      1.0  0.44989  0.23961  0.98083  1.0000
  H   H172      1.0  0.29742  0.20866  0.97343  1.0000
  H   H173      1.0  0.26474  0.12395  0.05749  1.0000
  H   H174      1.0  0.04602  0.39718  0.97061  1.0000
  H   H175      1.0  0.05457  0.43037  0.00632  1.0000
  H   H176      1.0  0.24007  0.23865  0.98086  1.0000
  C   C104      1.0  0.05004  0.14893  0.08027  1.0000
  H   H177      1.0  0.47177  0.12453  0.09703  1.0000
  H   H178      1.0  0.03089  0.09436  0.02076  1.0000
  H   H179      1.0  0.07042  0.40032  0.02410  1.0000
  H   H180      1.0  0.14723  0.24808  0.04031  1.0000
  H   H181      1.0  0.31491  0.06206  0.05349  1.0000
  C   C105      1.0  0.24569  0.06213  0.21140  1.0000
  H   H182      1.0  0.24858  0.41640  0.97227  1.0000
  H   H183      1.0  0.15924  0.15687  0.01917  1.0000
  H   H184      1.0  0.19515  0.36415  0.03903  1.0000
  H   H185      1.0  0.37940  0.03323  0.05291  1.0000
  C   C106      1.0  0.19083  0.32255  0.05399  1.0000
  C   C107      1.0  0.07093  0.38525  0.01030  1.0000
  H   H186      1.0  0.25510  0.17410  0.20830  1.0000
  H   H187      1.0  0.46528  0.26984  0.09051  1.0000
  H   H188      1.0  0.18180  0.04711  0.11090  1.0000
  H   H189      1.0  0.18815  0.33385  0.01910  1.0000
  H   H190      1.0  0.31531  0.01520  0.98602  1.0000
  C   C108      1.0  0.36985  0.11121  0.03612  1.0000
  H   H191      1.0  0.18657  0.26568  0.18823  1.0000
  H   H192      1.0  0.10052  0.21454  0.01731  1.0000
  Fe  Fe9       1.0  0.20060  0.07501  0.98035  1.0000
  H   H193      1.0  0.47313  0.14984  0.97996  1.0000
  C   C109      1.0  0.23586  0.44793  0.98799  1.0000
  C   C110      1.0  0.23403  0.32634  0.99006  1.0000
  H   H194      1.0  0.08416  0.13494  0.06998  1.0000
  H   H195      1.0  0.46908  0.31262  0.02360  1.0000
  H   H196      1.0  0.24643  0.06091  0.99635  1.0000
  H   H197      1.0  0.22643  0.09923  0.11586  1.0000
  C   C111      1.0  0.08033  0.13293  0.02408  1.0000
  H   H198      1.0  0.32645  0.03310  0.04861  1.0000
  C   C112      1.0  0.04476  0.15536  0.03149  1.0000
  C   C113      1.0  0.29846  0.22918  0.00686  1.0000
  H   H199      1.0  0.02473  0.45523  0.99115  1.0000
  H   H200      1.0  0.19278  0.44455  0.13340  1.0000
  H   H201      1.0  0.13777  0.48909  0.20214  1.0000
  H   H202      1.0  0.28866  0.12126  0.02177  1.0000
  H   H203      1.0  0.19489  0.30284  0.04989  1.0000
  H   H204      1.0  0.49749  0.09346  0.08046  1.0000
  H   H205      1.0  0.48894  0.07109  0.03088  1.0000
  H   H206      1.0  0.12041  0.18043  0.05145  1.0000
  H   H207      1.0  0.47859  0.13597  0.06774  1.0000
  H   H208      1.0  0.36151  0.09213  0.07914  1.0000
  H   H209      1.0  0.06483  0.17458  0.08212  1.0000
  H   H210      1.0  0.50019  0.26528  0.98396  1.0000
  H   H211      1.0  0.06323  0.00990  0.00986  1.0000
  H   H212      1.0  0.12146  0.27042  0.15903  1.0000
  C   C114      1.0  0.46301  0.13217  0.08239  1.0000
  C   C115      1.0  0.42382  0.18695  0.09575  1.0000
  H   H213      1.0  0.18842  0.15067  0.03329  1.0000
  H   H214      1.0  0.20262  0.05360  0.06628  1.0000
  H   H215      1.0  0.03748  0.14399  0.11571  1.0000
  H   H216      1.0  0.05625  0.08415  0.03616  1.0000
  H   H217      1.0  0.02601  0.14388  0.07528  1.0000
  H   H218      1.0  0.23496  0.15642  0.08232  1.0000
  C   C116      1.0  0.24569  0.26992  0.19854  1.0000
  C   C117      1.0  0.21175  0.13683  0.08798  1.0000
  H   H219      1.0  0.20984  0.43282  0.98612  1.0000
  C   C118      1.0  0.18436  0.46059  0.12757  1.0000
  H   H220      1.0  0.33492  0.19040  0.98290  1.0000
  H   H221      1.0  0.40853  0.25442  0.09044  1.0000
  H   H222      1.0  0.47085  0.38979  0.01643  1.0000
  H   H223      1.0  0.41651  0.20181  0.15281  1.0000
  N   N8        1.0  0.03870  0.36680  0.99937  1.0000
  H   H224      1.0  0.20648  0.47394  0.16935  1.0000
  H   H225      1.0  0.28533  0.29032  0.98296  1.0000
  H   H226      1.0  0.28922  0.10263  0.08246  1.0000
  C   C119      1.0  0.38498  0.07139  0.03002  1.0000
  H   H227      1.0  0.03921  0.33709  0.04142  1.0000
  N   N9        1.0  0.49159  0.27576  0.20386  1.0000
  C   C120      1.0  0.06344  0.13548  0.06252  1.0000
  H   H228      1.0  0.08493  0.08735  0.00001  1.0000
  H   H229      1.0  0.43408  0.12316  0.04230  1.0000
  H   H230      1.0  0.37103  0.16579  0.02099  1.0000
  C   C121      1.0  0.19372  0.00495  0.03185  1.0000
  H   H231      1.0  0.24487  0.46411  0.97328  1.0000
  C   C122      1.0  0.06050  0.08347  0.00027  1.0000
  H   H232      1.0  0.05027  0.01700  0.08421  1.0000
  H   H233      1.0  0.23598  0.07330  0.20015  1.0000
  C   C123      1.0  0.46062  0.30430  0.06914  1.0000
  C   C124      1.0  0.39428  0.04737  0.03861  1.0000
  H   H234      1.0  0.15634  0.42203  0.18038  1.0000
  C   C125      1.0  0.47801  0.26724  0.18028  1.0000
  C   C126      1.0  0.41629  0.11657  0.05600  1.0000
  H   H235      1.0  0.46461  0.21796  0.17492  1.0000
  C   C127      1.0  0.16839  0.46784  0.14688  1.0000
  H   H236      1.0  0.22904  0.02246  0.18864  1.0000
  H   H237      1.0  0.23992  0.24510  0.19996  1.0000
  C   C128      1.0  0.15041  0.01471  0.08615  1.0000
  C   C129      1.0  0.09899  0.40613  0.99456  1.0000
  H   H238      1.0  0.27052  0.07006  0.20683  1.0000
  H   H239      1.0  0.38900  0.16808  0.99402  1.0000
  H   H240      1.0  0.06163  0.34304  0.19850  1.0000
  C   C130      1.0  0.42876  0.10743  0.07719  1.0000
  C   C131      1.0  0.28216  0.07553  0.14817  1.0000
  H   H241      1.0  0.10251  0.13382  0.02982  1.0000
  H   H242      1.0  0.08563  0.14319  0.00687  1.0000
  H   H243      1.0  0.36199  0.05819  0.02089  1.0000
  C   C132      1.0  0.03141  0.41557  0.99793  1.0000
  C   C133      1.0  0.01436  0.35258  0.01794  1.0000
  H   H244      1.0  0.48158  0.02067  0.03847  1.0000
  H   H245      1.0  0.10465  0.02390  0.00982  1.0000
  C   C134      1.0  0.36215  0.07521  0.06693  1.0000
  C   C135      1.0  0.25418  0.15499  0.19778  1.0000
  H   H246      1.0  0.03447  0.13494  0.99770  1.0000
  C   C136      1.0  0.14709  0.42795  0.19551  1.0000
  H   H247      1.0  0.45041  0.30076  0.20316  1.0000
  H   H248      1.0  0.12411  0.42610  0.19145  1.0000
  H   H249      1.0  0.27131  0.12257  0.19813  1.0000
  C   C137      1.0  0.36392  0.20367  0.21454  1.0000
  S   S20       1.0  0.45033  0.04288  0.96927  1.0000
  H   H250      1.0  0.07731  0.02916  0.04751  1.0000
  H   H251      1.0  0.44918  0.22018  0.97084  1.0000
  H   H252      1.0  0.44655  0.23275  0.99893  1.0000
  C   C138      1.0  0.22668  0.02696  0.20669  1.0000
  H   H253      1.0  0.50185  0.28111  0.06521  1.0000
  H   H254      1.0  0.46731  0.05573  0.06991  1.0000
  H   H255      1.0  0.04614  0.44808  0.96951  1.0000
  C   C139      1.0  0.49438  0.08950  0.04371  1.0000
  H   H256      1.0  0.49163  0.37473  0.04998  1.0000
  C   C140      1.0  0.14115  0.40295  0.21323  1.0000
  H   H257      1.0  0.46379  0.00665  0.99883  1.0000
  N   N10       1.0  0.17835  0.48832  0.18857  1.0000
  H   H258      1.0  0.46712  0.35640  0.00124  1.0000
  H   H259      1.0  0.22798  0.27275  0.20830  1.0000
  C   C141      1.0  0.14864  0.49014  0.18544  1.0000
  C   C142      1.0  0.44122  0.27921  0.21343  1.0000
  C   C143      1.0  0.47707  0.35682  0.03714  1.0000
  H   H260      1.0  0.12375  0.37937  0.20657  1.0000
  C   C144      1.0  0.27056  0.13955  0.20990  1.0000
  C   C145      1.0  0.50402  0.25404  0.20990  1.0000
  H   H261      1.0  0.01252  0.40731  0.01083  1.0000
  H   H262      1.0  0.14710  0.03234  0.07669  1.0000
  C   C146      1.0  0.49176  0.07546  0.06718  1.0000
  H   H263      1.0  0.36581  0.01095  0.01394  1.0000
  C   C147      1.0  0.01592  0.32738  0.03288  1.0000
  H   H264      1.0  0.50384  0.14645  0.01592  1.0000
  H   H265      1.0  0.50575  0.38774  0.00979  1.0000
  H   H266      1.0  0.39777  0.00760  0.02636  1.0000
  H   H267      1.0  0.49898  0.33794  0.21300  1.0000
  C   C148      1.0  0.48465  0.13954  0.96970  1.0000
  H   H268      1.0  0.22481  0.28679  0.96896  1.0000
  H   H269      1.0  0.03136  0.10822  0.10268  1.0000
  H   H270      1.0  0.11256  0.49690  0.15079  1.0000
  H   H271      1.0  0.20467  0.48258  0.12092  1.0000
  C   C149      1.0  0.06492  0.00433  0.05335  1.0000
  H   H272      1.0  0.01396  0.16706  0.98131  1.0000
  H   H273      1.0  0.02250  0.18954  0.00699  1.0000
  Fe  Fe10      1.0  0.06780  0.45345  0.21481  1.0000
  S   S21       1.0  0.23972  0.12363  0.97237  1.0000
  H   H274      1.0  0.46804  0.11393  0.96762  1.0000
  H   H275      1.0  0.50822  0.06617  0.06886  1.0000
  C   C150      1.0  0.06276  0.00436  0.07908  1.0000
  H   H276      1.0  0.28410  0.31529  0.21012  1.0000
  H   H277      1.0  0.36848  0.45479  0.96717  1.0000
  H   H278      1.0  0.13018  0.34649  0.96738  1.0000
  S   S22       1.0  0.38786  0.06708  0.96710  1.0000
  C   C151      1.0  0.22946  0.31116  0.96687  1.0000
  S   S23       1.0  0.37372  0.40019  0.96737  1.0000
  H   H279      1.0  0.42662  0.48952  0.38054  1.0000
  S   S24       1.0  0.09225  0.43585  0.23766  1.0000
  H   H280      1.0  0.40007  0.05873  0.32954  1.0000
  Fe  Fe11      1.0  0.05714  0.48846  0.25382  1.0000
  S   S25       1.0  0.07939  0.47109  0.27865  1.0000
  S   S26       1.0  0.37916  0.38156  0.45257  1.0000
  Fe  Fe12      1.0  0.11689  0.48490  0.25217  1.0000
  H   H281      1.0  0.29373  0.06749  0.36541  1.0000
  Fe  Fe13      1.0  0.05173  0.42475  0.26100  1.0000
  H   H282      1.0  0.40084  0.01252  0.41349  1.0000
  C   C152      1.0  0.03952  0.01863  0.33468  1.0000
  S   S27       1.0  0.02678  0.44110  0.23776  1.0000
  C   C153      1.0  0.43322  0.00833  0.39126  1.0000
  H   H283      1.0  0.48443  0.47318  0.43990  1.0000
  S   S28       1.0  0.50744  0.10434  0.42014  1.0000
  C   C154      1.0  0.34977  0.21750  0.22694  1.0000
  C   C155      1.0  0.45827  0.06485  0.33051  1.0000
  Fe  Fe14      1.0  0.08451  0.10047  0.41875  1.0000
  S   S29       1.0  0.09581  0.15048  0.41312  1.0000
  H   H284      1.0  0.26629  0.13854  0.39236  1.0000
  C   C156      1.0  0.42390  0.28294  0.23352  1.0000
  H   H285      1.0  0.36041  0.12796  0.24352  1.0000
  H   H286      1.0  0.19018  0.11074  0.44898  1.0000
  Fe  Fe15      1.0  0.39782  0.22696  0.30922  1.0000
  S   S30       1.0  0.40949  0.19534  0.32911  1.0000
  S   S31       1.0  0.39595  0.26694  0.32615  1.0000
  Fe  Fe16      1.0  0.39500  0.19492  0.26517  1.0000
  S   S32       1.0  0.40680  0.16081  0.28172  1.0000
  Fe  Fe17      1.0  0.37186  0.15621  0.30810  1.0000
  S   S33       1.0  0.33342  0.11283  0.32595  1.0000
  Fe  Fe18      1.0  0.44323  0.20328  0.30091  1.0000
  H   H287      1.0  0.14330  0.20800  0.46058  1.0000
  S   S34       1.0  0.35763  0.18762  0.29021  1.0000
  S   S35       1.0  0.43414  0.23752  0.28234  1.0000
  C   C157      1.0  0.50012  0.18002  0.38642  1.0000
  C   C158      1.0  0.50006  0.35305  0.31355  1.0000
  H   H288      1.0  0.46656  0.16240  0.34862  1.0000
  Fe  Fe19      1.0  0.32017  0.26203  0.43895  1.0000
  S   S36       1.0  0.31923  0.30057  0.41934  1.0000
  S   S37       1.0  0.33035  0.22722  0.42194  1.0000
  Fe  Fe20      1.0  0.34106  0.32970  0.45047  1.0000
  H   H289      1.0  0.49537  0.32623  0.27131  1.0000
  Fe  Fe21      1.0  0.27204  0.28278  0.43591  1.0000
  S   S38       1.0  0.22969  0.27643  0.41612  1.0000
  H   H290      1.0  0.37204  0.04433  0.36657  1.0000
  S   S39       1.0  0.27162  0.24254  0.45353  1.0000
  C   C159      1.0  0.37766  0.25589  0.35274  1.0000
  C   C160      1.0  0.37808  0.27867  0.36711  1.0000
  C   C161      1.0  0.36393  0.27018  0.38851  1.0000
  C   C162      1.0  0.34919  0.23883  0.39557  1.0000
  C   C163      1.0  0.34912  0.21616  0.38129  1.0000
  C   C164      1.0  0.36299  0.22457  0.35984  1.0000
  H   H291      1.0  0.38951  0.30288  0.36176  1.0000
  H   H292      1.0  0.36493  0.28794  0.39968  1.0000
  H   H293      1.0  0.33820  0.19197  0.38680  1.0000
  H   H294      1.0  0.36215  0.20673  0.34881  1.0000
  C   C165      1.0  0.13427  0.18384  0.41360  1.0000
  C   C166      1.0  0.13838  0.21148  0.40373  1.0000
  C   C167      1.0  0.16777  0.23924  0.40450  1.0000
  C   C168      1.0  0.19348  0.24016  0.41565  1.0000
  C   C169      1.0  0.18957  0.21253  0.42573  1.0000
  C   C170      1.0  0.16011  0.18422  0.42438  1.0000
  H   H295      1.0  0.11859  0.21149  0.39547  1.0000
  H   H296      1.0  0.17041  0.26032  0.39670  1.0000
  H   H297      1.0  0.20902  0.21302  0.43471  1.0000
  H   H298      1.0  0.15712  0.16304  0.43220  1.0000
  C   C171      1.0  0.47741  0.43414  0.41941  1.0000
  C   C172      1.0  0.46845  0.44884  0.43555  1.0000
  C   C173      1.0  0.43837  0.43226  0.44564  1.0000
  C   C174      1.0  0.41714  0.40071  0.43998  1.0000
  C   C175      1.0  0.42628  0.38585  0.42409  1.0000
  C   C176      1.0  0.45623  0.40259  0.41380  1.0000
  C   C177      1.0  0.14692  0.03258  0.32391  1.0000
  C   C178      1.0  0.27750  0.00453  0.36796  1.0000
  H   H299      1.0  0.27718  0.28228  0.22746  1.0000
  C   C179      1.0  0.46890  0.37935  0.34661  1.0000
  C   C180      1.0  0.14861  0.04337  0.37056  1.0000
  H   H300      1.0  0.28847  0.11729  0.36532  1.0000
  C   C181      1.0  0.34304  0.10245  0.24338  1.0000
  C   C182      1.0  0.30899  0.07573  0.31329  1.0000
  C   C183      1.0  0.16495  0.02479  0.33810  1.0000
  H   H301      1.0  0.49996  0.37433  0.30733  1.0000
  N   N11       1.0  0.45763  0.11600  0.33970  1.0000
  H   H302      1.0  0.34681  0.07244  0.29754  1.0000
  H   H303      1.0  0.26649  0.07099  0.32779  1.0000
  C   C184      1.0  0.13175  0.05217  0.35613  1.0000
  C   C185      1.0  0.22324  0.10000  0.30212  1.0000
  C   C186      1.0  0.46746  0.27217  0.22128  1.0000
  H   H304      1.0  0.47966  0.28713  0.23624  1.0000
  H   H305      1.0  0.32974  0.41578  0.34710  1.0000
  C   C187      1.0  0.01584  0.45615  0.33532  1.0000
  H   H306      1.0  0.44153  0.06399  0.42919  1.0000
  H   H307      1.0  0.30717  0.41581  0.45886  1.0000
  H   H308      1.0  0.19908  0.09475  0.30679  1.0000
  Fe  Fe22      1.0  0.10727  0.05408  0.41198  1.0000
  H   H309      1.0  0.18996  0.17571  0.38618  1.0000
  H   H310      1.0  0.41019  0.36161  0.41957  1.0000
  H   H311      1.0  0.43331  0.39249  0.35247  1.0000
  C   C188      1.0  0.25478  0.22860  0.38258  1.0000
  H   H312      1.0  0.50266  0.15717  0.30622  1.0000
  C   C189      1.0  0.31161  0.09610  0.25333  1.0000
  C   C190      1.0  0.47970  0.06689  0.40925  1.0000
  S   S40       1.0  0.14768  0.04796  0.39992  1.0000
  H   H313      1.0  0.28274  0.38592  0.42369  1.0000
  H   H314      1.0  0.35472  0.41451  0.42862  1.0000
  H   H315      1.0  0.31697  0.35592  0.39189  1.0000
  H   H316      1.0  0.50707  0.42981  0.45938  1.0000
  C   C191      1.0  0.05072  0.46549  0.33503  1.0000
  S   S41       1.0  0.06472  0.01421  0.42849  1.0000
  H   H317      1.0  0.31206  0.01759  0.28416  1.0000
  C   C192      1.0  0.48803  0.05167  0.39308  1.0000
  H   H318      1.0  0.39810  0.45795  0.41469  1.0000
  C   C193      1.0  0.47443  0.09750  0.34202  1.0000
  H   H319      1.0  0.10209  0.19502  0.45859  1.0000
  Fe  Fe23      1.0  0.07015  0.05053  0.45357  1.0000
  H   H320      1.0  0.35273  0.09026  0.25361  1.0000
  H   H321      1.0  0.30327  0.26291  0.37356  1.0000
  C   C194      1.0  0.46546  0.00590  0.45412  1.0000
  S   S42       1.0  0.29333  0.31624  0.46499  1.0000
  S   S43       1.0  0.09515  0.50327  0.22762  1.0000
  C   C195      1.0  0.26647  0.11739  0.36074  1.0000
  C   C196      1.0  0.23011  0.16511  0.40599  1.0000
  H   H322      1.0  0.20724  0.07049  0.27299  1.0000
  H   H323      1.0  0.01438  0.47608  0.34270  1.0000
  H   H324      1.0  0.43500  0.10031  0.30673  1.0000
  C   C197      1.0  0.20468  0.13365  0.41635  1.0000
  H   H325      1.0  0.45637  0.11835  0.26827  1.0000
  H   H326      1.0  0.27913  0.39347  0.32668  1.0000
  C   C198      1.0  0.42628  0.09983  0.35213  1.0000
  H   H327      1.0  0.42792  0.08716  0.36725  1.0000
  H   H328      1.0  0.31239  0.13933  0.24557  1.0000
  C   C199      1.0  0.13209  0.24477  0.46142  1.0000
  H   H329      1.0  0.06458  0.48728  0.32500  1.0000
  H   H330      1.0  0.47669  0.33296  0.30831  1.0000
  C   C200      1.0  0.39643  0.07631  0.33859  1.0000
  C   C201      1.0  0.43532  0.37099  0.35285  1.0000
  C   C202      1.0  0.47797  0.14775  0.35061  1.0000
  C   C203      1.0  0.36774  0.05854  0.35397  1.0000
  H   H331      1.0  0.47126  0.01131  0.37116  1.0000
  H   H332      1.0  0.29544  0.07036  0.25303  1.0000
  H   H333      1.0  0.01742  0.46636  0.29943  1.0000
  H   H334      1.0  0.46315  0.39101  0.40149  1.0000
  C   C204      1.0  0.44820  0.05240  0.41667  1.0000
  H   H335      1.0  0.45246  0.32991  0.34149  1.0000
  H   H336      1.0  0.30523  0.37388  0.35195  1.0000
  H   H337      1.0  0.27717  0.27869  0.37700  1.0000
  H   H338      1.0  0.44036  0.30335  0.24406  1.0000
  N   N12       1.0  0.50349  0.35409  0.33894  1.0000
  H   H339      1.0  0.42979  0.45649  0.37023  1.0000
  H   H340      1.0  0.24575  0.09390  0.36440  1.0000
  H   H341      1.0  0.41826  0.35384  0.34050  1.0000
  H   H342      1.0  0.39034  0.08931  0.32605  1.0000
  H   H343      1.0  0.05369  0.44632  0.32777  1.0000
  H   H344      1.0  0.48542  0.39873  0.35790  1.0000
  H   H345      1.0  0.23147  0.01714  0.31314  1.0000
  C   C205      1.0  0.27990  0.39785  0.34513  1.0000
  C   C206      1.0  0.47357  0.35050  0.34911  1.0000
  H   H346      1.0  0.23125  0.22623  0.37981  1.0000
  H   H347      1.0  0.32549  0.39220  0.46379  1.0000
  S   S44       1.0  0.11570  0.08900  0.43935  1.0000
  H   H348      1.0  0.48243  0.18791  0.38655  1.0000
  H   H349      1.0  0.20620  0.11354  0.40943  1.0000
  H   H350      1.0  0.44392  0.13854  0.31426  1.0000
  H   H351      1.0  0.50831  0.26265  0.24669  1.0000
  C   C207      1.0  0.50814  0.32780  0.34749  1.0000
  H   H352      1.0  0.13252  0.24733  0.44278  1.0000
  C   C208      1.0  0.27640  0.05976  0.31774  1.0000
  C   C209      1.0  0.23375  0.14313  0.36882  1.0000
  C   C210      1.0  0.19896  0.16621  0.37291  1.0000
  C   C211      1.0  0.32169  0.06057  0.30081  1.0000
  C   C212      1.0  0.26475  0.14297  0.37415  1.0000
  C   C213      1.0  0.17112  0.13374  0.36551  1.0000
  C   C214      1.0  0.14140  0.13571  0.36075  1.0000
  H   H353      1.0  0.23283  0.14588  0.35019  1.0000
  H   H354      1.0  0.21408  0.11912  0.37270  1.0000
  H   H355      1.0  0.20340  0.18156  0.35788  1.0000
  H   H356      1.0  0.43846  0.04772  0.34126  1.0000
  H   H357      1.0  0.18076  0.13011  0.41315  1.0000
  C   C215      1.0  0.48286  0.13468  0.29991  1.0000
  H   H358      1.0  0.26696  0.06594  0.38699  1.0000
  H   H359      1.0  0.17719  0.12591  0.34967  1.0000
  H   H360      1.0  0.16527  0.11543  0.37847  1.0000
  H   H361      1.0  0.12252  0.11305  0.35378  1.0000
  H   H362      1.0  0.13262  0.14068  0.37658  1.0000
  H   H363      1.0  0.14629  0.15444  0.34824  1.0000
  H   H364      1.0  0.26735  0.12219  0.34237  1.0000
  H   H365      1.0  0.29851  0.05880  0.39434  1.0000
  H   H366      1.0  0.28583  0.16545  0.36932  1.0000
  C   C216      1.0  0.20860  0.13362  0.44198  1.0000
  H   H367      1.0  0.47255  0.00624  0.43631  1.0000
  C   C217      1.0  0.16603  0.03049  0.36144  1.0000
  H   H368      1.0  0.35333  0.22038  0.24500  1.0000
  H   H369      1.0  0.11909  0.06286  0.36280  1.0000
  C   C218      1.0  0.13135  0.04731  0.33287  1.0000
  H   H370      1.0  0.20587  0.15260  0.44986  1.0000
  H   H371      1.0  0.32923  0.32467  0.36757  1.0000
  H   H372      1.0  0.47315  0.38838  0.32907  1.0000
  H   H373      1.0  0.26007  0.23207  0.40095  1.0000
  H   H374      1.0  0.35318  0.38182  0.35548  1.0000
  S   S45       1.0  0.03904  0.06452  0.43506  1.0000
  C   C219      1.0  0.45316  0.12194  0.31524  1.0000
  H   H375      1.0  0.27942  0.20317  0.38089  1.0000
  S   S46       1.0  0.49214  0.21133  0.30899  1.0000
  H   H376      1.0  0.22695  0.18362  0.41416  1.0000
  H   H377      1.0  0.48054  0.29176  0.32150  1.0000
  H   H378      1.0  0.06319  0.13534  0.46078  1.0000
  H   H379      1.0  0.41318  0.26138  0.24404  1.0000
  H   H380      1.0  0.44902  0.47569  0.39615  1.0000
  H   H381      1.0  0.32088  0.23927  0.22538  1.0000
  H   H382      1.0  0.30335  0.11414  0.22229  1.0000
  H   H383      1.0  0.02211  0.02529  0.32872  1.0000
  H   H384      1.0  0.23221  0.13698  0.44641  1.0000
  H   H385      1.0  0.25913  0.20123  0.35535  1.0000
  N   N13       1.0  0.22938  0.16784  0.38067  1.0000
  S   S47       1.0  0.14244  0.02348  0.29509  1.0000
  C   C220      1.0  0.25662  0.19967  0.37409  1.0000
  C   C221      1.0  0.26934  0.01367  0.29761  1.0000
  H   H386      1.0  0.49224  0.27031  0.36757  1.0000
  H   H387      1.0  0.42922  0.36073  0.37007  1.0000
  H   H388      1.0  0.24033  0.12460  0.30705  1.0000
  H   H389      1.0  0.27420  0.25654  0.35205  1.0000
  C   C222      1.0  0.48276  0.29416  0.34012  1.0000
  C   C223      1.0  0.29795  0.11416  0.24043  1.0000
  H   H390      1.0  0.46459  0.13128  0.38601  1.0000
  C   C224      1.0  0.27894  0.25848  0.37049  1.0000
  C   C225      1.0  0.28096  0.05529  0.38103  1.0000
  H   H391      1.0  0.11813  0.05414  0.32185  1.0000
  H   H392      1.0  0.45932  0.28797  0.34714  1.0000
  H   H393      1.0  0.36615  0.34085  0.35300  1.0000
  C   C226      1.0  0.25654  0.02916  0.30953  1.0000
  H   H394      1.0  0.16308  0.46478  0.22080  1.0000
  C   C227      1.0  0.46481  0.02261  0.38404  1.0000
  N   N14       1.0  0.26326  0.10269  0.24416  1.0000
  C   C228      1.0  0.30517  0.39264  0.45570  1.0000
  C   C229      1.0  0.25398  0.12439  0.23259  1.0000
  C   C230      1.0  0.25842  0.10373  0.26928  1.0000
  C   C231      1.0  0.24237  0.06923  0.23634  1.0000
  H   H395      1.0  0.40037  0.42519  0.40382  1.0000
  H   H396      1.0  0.36240  0.07523  0.36283  1.0000
  C   C232      1.0  0.22461  0.09546  0.27673  1.0000
  H   H397      1.0  0.02358  0.31609  0.22890  1.0000
  H   H398      1.0  0.46809  0.15841  0.27575  1.0000
  H   H399      1.0  0.47200  0.34476  0.36743  1.0000
  H   H400      1.0  0.33970  0.09362  0.22576  1.0000
  H   H401      1.0  0.42044  0.11746  0.35890  1.0000
  H   H402      1.0  0.49696  0.14923  0.26525  1.0000
  C   C233      1.0  0.30419  0.38633  0.43036  1.0000
  H   H403      1.0  0.25929  0.14473  0.24374  1.0000
  H   H404      1.0  0.27553  0.12749  0.27608  1.0000
  H   H405      1.0  0.26357  0.08699  0.27842  1.0000
  H   H406      1.0  0.24561  0.05263  0.24727  1.0000
  H   H407      1.0  0.21700  0.06199  0.23842  1.0000
  Fe  Fe24      1.0  0.03631  0.03037  0.40878  1.0000
  H   H408      1.0  0.04355  0.02388  0.35299  1.0000
  H   H409      1.0  0.31600  0.10406  0.27117  1.0000
  C   C234      1.0  0.30199  0.02949  0.29329  1.0000
  H   H410      1.0  0.13147  0.40704  0.22894  1.0000
  H   H411      1.0  0.21678  0.11043  0.26812  1.0000
  C   C235      1.0  0.47547  0.14044  0.27585  1.0000
  H   H412      1.0  0.50804  0.32743  0.36627  1.0000
  H   H413      1.0  0.06023  0.47014  0.35253  1.0000
  H   H414      1.0  0.28180  0.42110  0.34773  1.0000
  C   C236      1.0  0.35479  0.34225  0.36878  1.0000
  H   H415      1.0  0.24592  0.00971  0.39238  1.0000
  S   S48       1.0  0.07862  0.06800  0.39026  1.0000
  H   H416      1.0  0.35271  0.37435  0.40730  1.0000
  H   H417      1.0  0.22844  0.08363  0.31161  1.0000
  H   H418      1.0  0.38556  0.39146  0.37400  1.0000
  H   H419      1.0  0.50120  0.16116  0.34207  1.0000
  H   H420      1.0  0.25383  0.16991  0.41182  1.0000
  H   H421      1.0  0.40461  0.28679  0.22736  1.0000
  N   N15       1.0  0.33833  0.40646  0.39391  1.0000
  C   C237      1.0  0.36729  0.43553  0.38529  1.0000
  C   C238      1.0  0.30945  0.40240  0.38148  1.0000
  C   C239      1.0  0.33444  0.41211  0.41849  1.0000
  C   C240      1.0  0.34101  0.37722  0.39203  1.0000
  C   C241      1.0  0.35983  0.37529  0.37156  1.0000
  C   C242      1.0  0.39816  0.44573  0.39894  1.0000
  H   H422      1.0  0.44885  0.06506  0.31354  1.0000
  C   C243      1.0  0.30828  0.39735  0.35564  1.0000
  H   H423      1.0  0.36547  0.33642  0.38322  1.0000
  S   S49       1.0  0.02057  0.37970  0.28013  1.0000
  C   C244      1.0  0.42760  0.46826  0.38554  1.0000
  S   S50       1.0  0.38848  0.19146  0.22739  1.0000
  H   H424      1.0  0.36320  0.45589  0.38528  1.0000
  H   H425      1.0  0.37205  0.43281  0.36742  1.0000
  H   H426      1.0  0.28773  0.38143  0.38784  1.0000
  H   H427      1.0  0.30635  0.42301  0.38478  1.0000
  H   H428      1.0  0.33482  0.43483  0.42051  1.0000
  C   C245      1.0  0.49120  0.27002  0.34884  1.0000
  H   H429      1.0  0.43141  0.44399  0.45783  1.0000
  H   H430      1.0  0.22792  0.11199  0.22972  1.0000
  H   H431      1.0  0.47685  0.09291  0.36013  1.0000
  H   H432      1.0  0.49948  0.06700  0.31462  1.0000
  H   H433      1.0  0.17953  0.02403  0.37248  1.0000
  C   C246      1.0  0.48580  0.14728  0.37602  1.0000
  H   H434      1.0  0.25745  0.37924  0.35267  1.0000
  H   H435      1.0  0.34677  0.04247  0.34363  1.0000
  H   H436      1.0  0.30155  0.36277  0.42797  1.0000
  H   H437      1.0  0.46273  0.02667  0.45697  1.0000
  H   H438      1.0  0.06204  0.03304  0.32550  1.0000
  H   H439      1.0  0.47287  0.24616  0.34335  1.0000
  C   C247      1.0  0.42512  0.02314  0.40789  1.0000
  H   H440      1.0  0.45463  0.24772  0.22803  1.0000
  H   H441      1.0  0.23567  0.01434  0.21719  1.0000
  H   H442      1.0  0.17789  0.01431  0.33115  1.0000
  H   H443      1.0  0.49116  0.11748  0.29880  1.0000
  H   H444      1.0  0.50344  0.13949  0.37797  1.0000
  H   H445      1.0  0.28309  0.37412  0.46367  1.0000
  H   H446      1.0  0.46879  0.02804  0.32237  1.0000
  C   C248      1.0  0.25886  0.02033  0.37654  1.0000
  H   H447      1.0  0.49924  0.11164  0.33592  1.0000
  C   C249      1.0  0.48159  0.05304  0.32767  1.0000
  H   H448      1.0  0.49402  0.05498  0.34379  1.0000
  H   H449      1.0  0.50574  0.21169  0.24191  1.0000
  H   H450      1.0  0.50747  0.17939  0.40410  1.0000
  H   H451      1.0  0.11634  0.00675  0.44998  1.0000
  H   H452      1.0  0.28295  0.01159  0.34995  1.0000
  H   H453      1.0  0.30103  0.01551  0.37645  1.0000
  H   H454      1.0  0.24121  0.01790  0.36360  1.0000
  H   H455      1.0  0.16340  0.40304  0.21729  1.0000
  H   H456      1.0  0.17033  0.01140  0.67107  1.0000
  H   H457      1.0  0.20473  0.45295  0.64159  1.0000
  C   C250      1.0  0.15161  0.08887  0.51177  1.0000
  H   H458      1.0  0.13551  0.02952  0.52855  1.0000
  C   C251      1.0  0.12496  0.07334  0.49772  1.0000
  C   C252      1.0  0.21781  0.39055  0.68698  1.0000
  C   C253      1.0  0.12546  0.43582  0.69920  1.0000
  Fe  Fe25      1.0  0.15408  0.28789  0.57723  1.0000
  S   S51       1.0  0.10601  0.28135  0.58460  1.0000
  S   S52       1.0  0.16602  0.28767  0.54047  1.0000
  Fe  Fe26      1.0  0.17197  0.29575  0.62708  1.0000
  S   S53       1.0  0.12533  0.28952  0.63747  1.0000
  S   S54       1.0  0.20880  0.30442  0.65345  1.0000
  Fe  Fe27      1.0  0.10544  0.24986  0.61251  1.0000
  S   S55       1.0  0.06280  0.20260  0.62077  1.0000
  Fe  Fe28      1.0  0.13172  0.32203  0.60863  1.0000
  S   S56       1.0  0.13246  0.36769  0.61703  1.0000
  S   S57       1.0  0.15192  0.25418  0.60368  1.0000
  S   S58       1.0  0.17977  0.33014  0.59951  1.0000
  H   H459      1.0  0.28280  0.43659  0.68724  1.0000
  S   S59       1.0  0.10702  0.04159  0.58860  1.0000
  S   S60       1.0  0.09379  0.45951  0.57040  1.0000
  Fe  Fe29      1.0  0.10596  0.06770  0.61937  1.0000
  S   S61       1.0  0.15527  0.10799  0.61528  1.0000
  S   S62       1.0  0.06408  0.07390  0.62707  1.0000
  Fe  Fe30      1.0  0.15758  0.08044  0.58616  1.0000
  S   S63       1.0  0.17902  0.10505  0.55351  1.0000
  Fe  Fe31      1.0  0.16925  0.07855  0.63572  1.0000
  S   S64       1.0  0.20672  0.09908  0.66241  1.0000
  H   H460      1.0  0.21077  0.37012  0.47527  1.0000
  S   S65       1.0  0.11973  0.04005  0.64231  1.0000
  H   H461      1.0  0.18238  0.47540  0.68220  1.0000
  C   C254      1.0  0.14784  0.09402  0.53447  1.0000
  C   C255      1.0  0.11803  0.08646  0.54253  1.0000
  H   H462      1.0  0.12551  0.32318  0.54740  1.0000
  H   H463      1.0  0.11572  0.31334  0.51812  1.0000
  H   H464      1.0  0.01757  0.09691  0.69699  1.0000
  H   H465      1.0  0.08320  0.37374  0.68436  1.0000
  H   H466      1.0  0.11395  0.24972  0.46833  1.0000
  H   H467      1.0  0.18390  0.43973  0.68093  1.0000
  H   H468      1.0  0.43414  0.33760  0.49073  1.0000
  H   H469      1.0  0.23860  0.07766  0.69188  1.0000
  C   C256      1.0  0.08831  0.18106  0.56246  1.0000
  H   H470      1.0  0.07157  0.45192  0.63180  1.0000
  C   C257      1.0  0.16263  0.06231  0.69389  1.0000
  C   C258      1.0  0.19380  0.07510  0.68640  1.0000
  C   C259      1.0  0.21462  0.06817  0.69785  1.0000
  C   C260      1.0  0.21008  0.38645  0.50945  1.0000
  H   H471      1.0  0.14663  0.06807  0.68535  1.0000
  Fe  Fe32      1.0  0.12590  0.01785  0.61103  1.0000
  C   C261      1.0  0.06522  0.16786  0.62220  1.0000
  C   C262      1.0  0.03708  0.13926  0.62501  1.0000
  C   C263      1.0  0.03736  0.11096  0.62636  1.0000
  C   C264      1.0  0.06576  0.11064  0.62480  1.0000
  C   C265      1.0  0.09415  0.13920  0.62194  1.0000
  C   C266      1.0  0.09390  0.16780  0.62078  1.0000
  H   H472      1.0  0.19382  0.05834  0.53447  1.0000
  H   H473      1.0  0.49198  0.45267  0.51323  1.0000
  H   H474      1.0  0.11625  0.13931  0.62087  1.0000
  H   H475      1.0  0.11583  0.18968  0.61886  1.0000
  C   C267      1.0  0.12455  0.39226  0.59957  1.0000
  C   C268      1.0  0.09563  0.38059  0.58828  1.0000
  C   C269      1.0  0.08701  0.40150  0.57873  1.0000
  C   C270      1.0  0.10718  0.43420  0.58033  1.0000
  C   C271      1.0  0.13683  0.44583  0.59057  1.0000
  C   C272      1.0  0.14542  0.42492  0.60012  1.0000
  H   H476      1.0  0.07906  0.35559  0.58812  1.0000
  H   H477      1.0  0.06403  0.39233  0.57085  1.0000
  H   H478      1.0  0.15264  0.47095  0.59182  1.0000
  H   H479      1.0  0.16786  0.43425  0.60876  1.0000
  C   C273      1.0  0.19722  0.28061  0.53465  1.0000
  C   C274      1.0  0.21438  0.27660  0.55200  1.0000
  C   C275      1.0  0.23966  0.27173  0.54678  1.0000
  C   C276      1.0  0.24767  0.27059  0.52422  1.0000
  C   C277      1.0  0.23009  0.27403  0.50692  1.0000
  C   C278      1.0  0.20513  0.27927  0.51214  1.0000
  H   H480      1.0  0.20859  0.27782  0.56943  1.0000
  H   H481      1.0  0.25344  0.26961  0.56023  1.0000
  H   H482      1.0  0.17260  0.03696  0.55919  1.0000
  H   H483      1.0  0.19210  0.28254  0.49867  1.0000
  S   S66       1.0  0.17673  0.05477  0.60613  1.0000
  H   H484      1.0  0.04510  0.08855  0.48455  1.0000
  H   H485      1.0  0.23446  0.43606  0.58625  1.0000
  C   C279      1.0  0.22989  0.39861  0.66235  1.0000
  C   C280      1.0  0.17950  0.45614  0.67091  1.0000
  H   H486      1.0  0.13453  0.38543  0.70472  1.0000
  H   H487      1.0  0.19584  0.40480  0.59420  1.0000
  C   C281      1.0  0.10659  0.38723  0.67594  1.0000
  H   H488      1.0  0.22140  0.38657  0.52575  1.0000
  H   H489      1.0  0.10239  0.37794  0.65836  1.0000
  C   C282      1.0  0.20894  0.28201  0.69558  1.0000
  C   C283      1.0  0.19377  0.29255  0.68091  1.0000
  C   C284      1.0  0.16796  0.29479  0.68870  1.0000
  H   H490      1.0  0.33361  0.28408  0.58529  1.0000
  S   S67       1.0  0.06092  0.03974  0.49036  1.0000
  H   H491      1.0  0.22886  0.28025  0.68961  1.0000
  H   H492      1.0  0.15685  0.30401  0.67787  1.0000
  H   H493      1.0  0.11526  0.09160  0.55983  1.0000
  H   H494      1.0  0.02688  0.01819  0.70823  1.0000
  H   H495      1.0  0.07253  0.31689  0.55420  1.0000
  H   H496      1.0  0.14449  0.45809  0.65060  1.0000
  H   H497      1.0  0.08816  0.20788  0.66792  1.0000
  H   H498      1.0  0.08129  0.15736  0.56922  1.0000
  H   H499      1.0  0.07439  0.16281  0.52021  1.0000
  H   H500      1.0  0.09906  0.19836  0.57639  1.0000
  H   H501      1.0  0.20189  0.48817  0.64259  1.0000
  H   H502      1.0  0.03986  0.03473  0.68045  1.0000
  H   H503      1.0  0.10164  0.12746  0.49197  1.0000
  C   C285      1.0  0.17339  0.18821  0.48845  1.0000
  H   H504      1.0  0.44585  0.40501  0.48719  1.0000
  H   H505      1.0  0.14655  0.42370  0.54845  1.0000
  H   H506      1.0  0.15945  0.41074  0.49994  1.0000
  H   H507      1.0  0.05066  0.41640  0.61557  1.0000
  C   C286      1.0  0.25269  0.20735  0.71636  1.0000
  H   H508      1.0  0.29963  0.01723  0.69734  1.0000
  C   C287      1.0  0.11228  0.32518  0.53290  1.0000
  H   H509      1.0  0.06693  0.18143  0.55651  1.0000
  H   H510      1.0  0.15317  0.38000  0.56397  1.0000
  H   H511      1.0  0.21416  0.20343  0.51067  1.0000
  C   C288      1.0  0.45452  0.38811  0.48595  1.0000
  H   H512      1.0  0.15188  0.38865  0.67725  1.0000
  H   H513      1.0  0.11265  0.36827  0.53982  1.0000
  C   C289      1.0  0.20235  0.38665  0.64575  1.0000
  C   C290      1.0  0.15217  0.04225  0.71267  1.0000
  C   C291      1.0  0.27426  0.26605  0.71416  1.0000
  C   C292      1.0  0.09152  0.22101  0.68388  1.0000
  H   H514      1.0  0.28110  0.26777  0.69613  1.0000
  C   C293      1.0  0.17368  0.36797  0.51193  1.0000
  C   C294      1.0  0.09479  0.06347  0.50637  1.0000
  H   H515      1.0  0.12282  0.41571  0.52359  1.0000
  H   H516      1.0  0.13315  0.18979  0.55064  1.0000
  H   H517      1.0  0.18870  0.39879  0.64832  1.0000
  H   H518      1.0  0.21167  0.39129  0.62829  1.0000
  H   H519      1.0  0.18634  0.36089  0.64764  1.0000
  H   H520      1.0  0.20073  0.36481  0.68722  1.0000
  H   H521      1.0  0.06942  0.41307  0.67712  1.0000
  H   H522      1.0  0.06902  0.28218  0.54126  1.0000
  H   H523      1.0  0.24381  0.38735  0.65765  1.0000
  H   H524      1.0  0.03451  0.22044  0.68892  1.0000
  C   C295      1.0  0.20135  0.41567  0.55837  1.0000
  H   H525      1.0  0.22065  0.42385  0.54589  1.0000
  H   H526      1.0  0.24712  0.38416  0.49095  1.0000
  C   C296      1.0  0.12080  0.20593  0.49336  1.0000
  C   C297      1.0  0.14758  0.42734  0.52996  1.0000
  C   C298      1.0  0.06632  0.13892  0.47937  1.0000
  C   C299      1.0  0.08024  0.41432  0.64212  1.0000
  H   H527      1.0  0.19634  0.02769  0.64717  1.0000
  H   H528      1.0  0.32256  0.27917  0.55578  1.0000
  H   H529      1.0  0.48934  0.45324  0.48355  1.0000
  H   H530      1.0  0.06301  0.30932  0.52442  1.0000
  C   C300      1.0  0.48338  0.39818  0.50180  1.0000
  H   H531      1.0  0.09444  0.14310  0.52975  1.0000
  N   N16       1.0  0.11756  0.17549  0.50204  1.0000
  C   C301      1.0  0.16254  0.46251  0.52540  1.0000
  C   C302      1.0  0.14948  0.17955  0.50797  1.0000
  H   H532      1.0  0.27671  0.33551  0.70947  1.0000
  C   C303      1.0  0.28585  0.49064  0.69945  1.0000
  C   C304      1.0  0.22092  0.37074  0.49220  1.0000
  C   C305      1.0  0.14591  0.43929  0.66015  1.0000
  H   H533      1.0  0.02401  0.14103  0.67289  1.0000
  C   C306      1.0  0.29499  0.35996  0.71378  1.0000
  N   N17       1.0  0.24289  0.39889  0.70479  1.0000
  H   H534      1.0  0.03745  0.41777  0.64372  1.0000
  H   H535      1.0  0.23966  0.45294  0.69119  1.0000
  H   H536      1.0  0.24024  0.13529  0.52164  1.0000
  H   H537      1.0  0.28081  0.16674  0.51815  1.0000
  H   H538      1.0  0.21362  0.34634  0.49755  1.0000
  H   H539      1.0  0.16195  0.19874  0.52053  1.0000
  Fe  Fe33      1.0  0.29572  0.27673  0.48173  1.0000
  H   H540      1.0  0.29688  0.13541  0.71346  1.0000
  H   H541      1.0  0.12763  0.06718  0.48072  1.0000
  H   H542      1.0  0.26518  0.00845  0.66444  1.0000
  H   H543      1.0  0.14125  0.22636  0.50170  1.0000
  C   C307      1.0  0.11584  0.34238  0.68611  1.0000
  C   C308      1.0  0.21446  0.41282  0.58110  1.0000
  H   H544      1.0  0.17469  0.09470  0.50552  1.0000
  C   C309      1.0  0.09104  0.42601  0.66667  1.0000
  H   H545      1.0  0.11389  0.36070  0.51059  1.0000
  H   H546      1.0  0.30502  0.49687  0.71204  1.0000
  C   C310      1.0  0.12953  0.37794  0.68681  1.0000
  H   H547      1.0  0.26724  0.21226  0.70085  1.0000
  N   N18       1.0  0.11766  0.42187  0.67575  1.0000
  C   C311      1.0  0.50540  0.45489  0.49753  1.0000
  H   H548      1.0  0.14616  0.43527  0.70639  1.0000
  H   H549      1.0  0.04383  0.10940  0.50914  1.0000
  C   C312      1.0  0.25709  0.37813  0.70147  1.0000
  H   H550      1.0  0.06696  0.38824  0.64156  1.0000
  C   C313      1.0  0.17172  0.38410  0.55140  1.0000
  H   H551      1.0  0.10050  0.42272  0.63052  1.0000
  C   C314      1.0  0.26388  0.15262  0.71085  1.0000
  H   H552      1.0  0.23568  0.27264  0.48948  1.0000
  H   H553      1.0  0.41947  0.35593  0.51004  1.0000
  C   C315      1.0  0.17872  0.03449  0.54161  1.0000
  H   H554      1.0  0.21969  0.19395  0.48236  1.0000
  H   H555      1.0  0.22319  0.39593  0.57997  1.0000
  H   H556      1.0  0.29536  0.49228  0.68219  1.0000
  H   H557      1.0  0.06823  0.06400  0.53511  1.0000
  H   H558      1.0  0.11149  0.33387  0.66837  1.0000
  C   C316      1.0  0.04188  0.10812  0.49047  1.0000
  H   H559      1.0  0.03134  0.18996  0.67156  1.0000
  H   H560      1.0  0.19145  0.43073  0.51862  1.0000
  H   H561      1.0  0.18165  0.21259  0.48267  1.0000
  H   H562      1.0  0.23823  0.35315  0.69920  1.0000
  C   C317      1.0  0.20421  0.04822  0.71667  1.0000
  H   H563      1.0  0.16292  0.36444  0.49477  1.0000
  H   H564      1.0  0.16817  0.34430  0.51790  1.0000
  C   C318      1.0  0.20247  0.18698  0.49637  1.0000
  C   C319      1.0  0.10102  0.14852  0.48561  1.0000
  H   H565      1.0  0.22880  0.48403  0.66111  1.0000
  C   C320      1.0  0.03238  0.19687  0.68959  1.0000
  N   N19       1.0  0.26155  0.18876  0.58203  1.0000
  C   C321      1.0  0.28141  0.22387  0.57869  1.0000
  C   C322      1.0  0.22809  0.17974  0.58860  1.0000
  C   C323      1.0  0.27584  0.17994  0.60139  1.0000
  C   C324      1.0  0.26170  0.17078  0.56147  1.0000
  C   C325      1.0  0.25162  0.17891  0.53886  1.0000
  C   C326      1.0  0.31655  0.23676  0.57225  1.0000
  C   C327      1.0  0.25701  0.14511  0.60930  1.0000
  C   C328      1.0  0.21429  0.19969  0.57882  1.0000
  C   C329      1.0  0.17913  0.18497  0.58424  1.0000
  C   C330      1.0  0.25581  0.16104  0.51933  1.0000
  C   C331      1.0  0.33382  0.27244  0.56930  1.0000
  C   C332      1.0  0.27397  0.13942  0.62890  1.0000
  H   H566      1.0  0.28093  0.23623  0.59431  1.0000
  H   H567      1.0  0.27141  0.23203  0.56521  1.0000
  H   H568      1.0  0.21144  0.15468  0.58445  1.0000
  H   H569      1.0  0.22630  0.18143  0.60725  1.0000
  H   H570      1.0  0.27914  0.19503  0.61636  1.0000
  H   H571      1.0  0.29972  0.18421  0.59689  1.0000
  H   H572      1.0  0.28550  0.17343  0.55911  1.0000
  H   H573      1.0  0.24548  0.14518  0.56388  1.0000
  H   H574      1.0  0.26596  0.20423  0.53493  1.0000
  H   H575      1.0  0.22627  0.17184  0.53941  1.0000
  H   H576      1.0  0.32944  0.23180  0.58555  1.0000
  H   H577      1.0  0.31834  0.22638  0.55608  1.0000
  H   H578      1.0  0.25475  0.12887  0.59553  1.0000
  H   H579      1.0  0.23289  0.13852  0.61510  1.0000
  H   H580      1.0  0.22653  0.22346  0.58660  1.0000
  H   H581      1.0  0.21707  0.20259  0.56030  1.0000
  H   H582      1.0  0.17496  0.18081  0.60267  1.0000
  H   H583      1.0  0.17080  0.20126  0.57896  1.0000
  H   H584      1.0  0.16518  0.16233  0.57509  1.0000
  C   C333      1.0  0.09146  0.07099  0.52853  1.0000
  N   N20       1.0  0.22517  0.17401  0.71571  1.0000
  H   H585      1.0  0.09387  0.24417  0.67997  1.0000
  H   H586      1.0  0.16335  0.17186  0.47401  1.0000
  H   H587      1.0  0.09331  0.33012  0.69567  1.0000
  H   H588      1.0  0.26117  0.11407  0.63336  1.0000
  H   H589      1.0  0.29852  0.14610  0.62417  1.0000
  H   H590      1.0  0.27447  0.15302  0.64400  1.0000
  C   C334      1.0  0.42719  0.35579  0.49245  1.0000
  H   H591      1.0  0.01485  0.13897  0.62608  1.0000
  C   C335      1.0  0.21336  0.16402  0.69187  1.0000
  H   H592      1.0  0.11954  0.21413  0.53793  1.0000
  C   C336      1.0  0.20520  0.47112  0.65289  1.0000
  H   H593      1.0  0.13255  0.46108  0.69826  1.0000
  C   C337      1.0  0.16588  0.41307  0.51820  1.0000
  H   H594      1.0  0.31078  0.37080  0.69904  1.0000
  C   C338      1.0  0.20106  0.18336  0.67921  1.0000
  C   C339      1.0  0.18544  0.16772  0.65686  1.0000
  H   H595      1.0  0.09988  0.20794  0.49819  1.0000
  H   H596      1.0  0.19517  0.43439  0.56014  1.0000
  H   H597      1.0  0.13287  0.33639  0.69385  1.0000
  N   N21       1.0  0.15950  0.38183  0.52753  1.0000
  C   C340      1.0  0.25816  0.45763  0.70390  1.0000
  H   H598      1.0  0.23236  0.16523  0.68096  1.0000
  H   H599      1.0  0.19415  0.13889  0.69179  1.0000
  C   C341      1.0  0.48996  0.00570  0.47079  1.0000
  H   H600      1.0  0.47516  0.39982  0.51896  1.0000
  C   C342      1.0  0.01958  0.02489  0.69235  1.0000
  H   H601      1.0  0.40683  0.34954  0.48101  1.0000
  H   H602      1.0  0.17688  0.36478  0.55465  1.0000
  H   H603      1.0  0.19249  0.02213  0.54167  1.0000
  C   C343      1.0  0.09829  0.16619  0.52350  1.0000
  H   H604      1.0  0.20343  0.40171  0.69069  1.0000
  S   S68       1.0  0.34484  0.29196  0.46931  1.0000
  H   H605      1.0  0.25501  0.13983  0.69467  1.0000
  H   H606      1.0  0.18319  0.18578  0.68906  1.0000
  H   H607      1.0  0.22114  0.20705  0.67513  1.0000
  H   H608      1.0  0.20226  0.16464  0.64611  1.0000
  H   H609      1.0  0.16420  0.14437  0.65997  1.0000
  H   H610      1.0  0.17785  0.18253  0.64766  1.0000
  H   H611      1.0  0.21881  0.41091  0.50378  1.0000
  C   C344      1.0  0.15740  0.28647  0.71105  1.0000
  C   C345      1.0  0.11228  0.18987  0.54340  1.0000
  H   H612      1.0  0.06908  0.21606  0.71573  1.0000
  H   H613      1.0  0.06074  0.15761  0.48336  1.0000
  C   C346      1.0  0.26885  0.43278  0.70293  1.0000
  H   H614      1.0  0.14783  0.47129  0.53326  1.0000
  H   H615      1.0  0.35878  0.28108  0.56445  1.0000
  C   C347      1.0  0.05862  0.42585  0.63287  1.0000
  S   S69       1.0  0.27963  0.26484  0.51789  1.0000
  H   H616      1.0  0.28304  0.17683  0.70709  1.0000
  H   H617      1.0  0.06329  0.17987  0.70347  1.0000
  H   H618      1.0  0.01365  0.04342  0.69610  1.0000
  H   H619      1.0  0.11384  0.22503  0.69187  1.0000
  H   H620      1.0  0.27104  0.38449  0.68561  1.0000
  H   H621      1.0  0.15646  0.01699  0.50984  1.0000
  H   H622      1.0  0.14635  0.15770  0.51616  1.0000
  H   H623      1.0  0.14571  0.42319  0.64693  1.0000
  H   H624      1.0  0.19567  0.16274  0.50172  1.0000
  C   C348      1.0  0.12403  0.36012  0.52737  1.0000
  H   H625      1.0  0.48863  0.37867  0.50296  1.0000
  H   H626      1.0  0.24943  0.16789  0.50315  1.0000
  H   H627      1.0  0.22590  0.23142  0.70761  1.0000
  H   H628      1.0  0.18662  0.47558  0.53290  1.0000
  C   C349      1.0  0.06386  0.20224  0.69991  1.0000
  H   H629      1.0  0.24481  0.42436  0.65993  1.0000
  H   H630      1.0  0.09784  0.45129  0.66754  1.0000
  C   C350      1.0  0.07702  0.30742  0.53851  1.0000
  H   H631      1.0  0.07875  0.42396  0.71278  1.0000
  H   H632      1.0  0.01765  0.14212  0.71495  1.0000
  H   H633      1.0  0.16386  0.46721  0.50698  1.0000
  H   H634      1.0  0.50248  0.37659  0.46702  1.0000
  H   H635      1.0  0.05515  0.01121  0.55033  1.0000
  H   H636      1.0  0.11466  0.01009  0.49090  1.0000
  H   H637      1.0  0.01770  0.10273  0.48561  1.0000
  H   H638      1.0  0.46040  0.38685  0.46808  1.0000
  H   H639      1.0  0.11389  0.15380  0.46936  1.0000
  H   H640      1.0  0.50644  0.05708  0.49273  1.0000
  C   C351      1.0  0.14866  0.01669  0.52744  1.0000
  H   H641      1.0  0.01535  0.08909  0.62846  1.0000
  C   C352      1.0  0.17955  0.00552  0.65588  1.0000
  H   H642      1.0  0.15572  0.26224  0.46809  1.0000
  C   C353      1.0  0.12438  0.21147  0.46747  1.0000
  S   S70       1.0  0.23504  0.29718  0.86068  1.0000
  H   H643      1.0  0.20978  0.26505  0.72900  1.0000
  C   C354      1.0  0.01649  0.19564  0.76630  1.0000
  S   S71       1.0  0.41535  0.38308  0.91444  1.0000
  H   H644      1.0  0.07808  0.18319  0.86400  1.0000
  S   S72       1.0  0.36410  0.30279  0.88316  1.0000
  C   C355      1.0  0.27319  0.16649  0.78825  1.0000
  C   C356      1.0  0.32805  0.30140  0.87789  1.0000
  C   C357      1.0  0.27623  0.38089  0.85116  1.0000
  H   H645      1.0  0.32005  0.27558  0.84684  1.0000
  S   S73       1.0  0.19594  0.16814  0.95186  1.0000
  H   H646      1.0  0.25268  0.17812  0.88729  1.0000
  Fe  Fe34      1.0  0.23611  0.29947  0.82272  1.0000
  S   S74       1.0  0.28490  0.32206  0.80814  1.0000
  S   S75       1.0  0.16238  0.26967  0.75446  1.0000
  S   S76       1.0  0.21579  0.25742  0.79983  1.0000
  S   S77       1.0  0.22051  0.32705  0.80128  1.0000
  H   H647      1.0  0.40551  0.01779  0.82388  1.0000
  S   S78       1.0  0.26821  0.05583  0.81632  1.0000
  C   C358      1.0  0.15983  0.45163  0.82292  1.0000
  Fe  Fe35      1.0  0.20137  0.02683  0.77163  1.0000
  H   H648      1.0  0.13907  0.45015  0.85525  1.0000
  S   S79       1.0  0.16220  0.36483  0.84770  1.0000
  Fe  Fe36      1.0  0.26885  0.04358  0.77969  1.0000
  C   C359      1.0  0.29607  0.43174  0.77286  1.0000
  Fe  Fe37      1.0  0.24151  0.07962  0.80425  1.0000
  S   S80       1.0  0.23947  0.12050  0.82017  1.0000
  C   C360      1.0  0.06446  0.37256  0.82774  1.0000
  S   S81       1.0  0.19436  0.03568  0.80739  1.0000
  Fe  Fe38      1.0  0.20587  0.28747  0.77640  1.0000
  Fe  Fe39      1.0  0.39082  0.33058  0.91350  1.0000
  S   S82       1.0  0.21390  0.10776  0.91992  1.0000
  H   H649      1.0  0.35279  0.23971  0.81998  1.0000
  C   C361      1.0  0.25386  0.15758  0.80733  1.0000
  C   C362      1.0  0.24591  0.17880  0.81683  1.0000
  Fe  Fe40      1.0  0.26393  0.28146  0.78416  1.0000
  H   H650      1.0  0.20901  0.31030  0.95792  1.0000
  H   H651      1.0  0.23122  0.17220  0.83170  1.0000
  H   H652      1.0  0.34320  0.02368  0.90628  1.0000
  C   C363      1.0  0.08066  0.47133  0.83689  1.0000
  H   H653      1.0  0.24779  0.46263  0.78193  1.0000
  H   H654      1.0  0.22413  0.25712  0.91198  1.0000
  H   H655      1.0  0.22015  0.04226  0.72508  1.0000
  H   H656      1.0  0.03167  0.22131  0.76341  1.0000
  C   C364      1.0  0.14823  0.41199  0.85166  1.0000
  C   C365      1.0  0.17308  0.27654  0.72581  1.0000
  C   C366      1.0  0.20190  0.36004  0.73349  1.0000
  C   C367      1.0  0.35199  0.44958  0.82588  1.0000
  H   H657      1.0  0.29268  0.41662  0.82614  1.0000
  C   C368      1.0  0.24641  0.45307  0.84282  1.0000
  H   H658      1.0  0.20467  0.15245  0.76298  1.0000
  C   C369      1.0  0.07874  0.42803  0.93229  1.0000
  H   H659      1.0  0.17052  0.20786  0.96177  1.0000
  H   H660      1.0  0.36897  0.43985  0.91076  1.0000
  N   N22       1.0  0.33520  0.42252  0.84225  1.0000
  C   C370      1.0  0.31074  0.28556  0.85866  1.0000
  C   C371      1.0  0.28155  0.28318  0.85418  1.0000
  C   C372      1.0  0.26977  0.29737  0.86847  1.0000
  Fe  Fe41      1.0  0.24765  0.10081  0.94214  1.0000
  C   C373      1.0  0.25659  0.20848  0.80706  1.0000
  Fe  Fe42      1.0  0.48061  0.05403  0.93832  1.0000
  H   H661      1.0  0.26834  0.27070  0.83932  1.0000
  C   C374      1.0  0.03683  0.05511  0.83785  1.0000
  C   C375      1.0  0.06078  0.40012  0.83560  1.0000
  H   H662      1.0  0.17984  0.39802  0.80516  1.0000
  H   H663      1.0  0.03585  0.43034  0.92883  1.0000
  H   H664      1.0  0.31434  0.36045  0.94202  1.0000
  H   H665      1.0  0.09654  0.23162  0.94003  1.0000
  C   C376      1.0  0.29901  0.42096  0.93789  1.0000
  H   H666      1.0  0.37788  0.45844  0.82591  1.0000
  H   H667      1.0  0.05605  0.32647  0.93109  1.0000
  H   H668      1.0  0.21271  0.28634  0.91514  1.0000
  H   H669      1.0  0.33520  0.03865  0.86873  1.0000
  H   H670      1.0  0.22357  0.43265  0.84807  1.0000
  Fe  Fe43      1.0  0.16919  0.36823  0.88533  1.0000
  C   C377      1.0  0.14930  0.27896  0.86799  1.0000
  C   C378      1.0  0.34378  0.09913  0.92515  1.0000
  H   H671      1.0  0.08766  0.44421  0.94635  1.0000
  Fe  Fe44      1.0  0.01153  0.09787  0.95114  1.0000
  C   C379      1.0  0.38307  0.22720  0.93521  1.0000
  C   C380      1.0  0.33980  0.01896  0.86973  1.0000
  H   H672      1.0  0.09877  0.38485  0.89879  1.0000
  C   C381      1.0  0.26815  0.46129  0.77639  1.0000
  H   H673      1.0  0.32529  0.06136  0.83607  1.0000
  H   H674      1.0  0.34462  0.09757  0.80323  1.0000
  S   S83       1.0  0.12964  0.35023  0.91044  1.0000
  H   H675      1.0  0.18384  0.17832  0.78693  1.0000
  S   S84       1.0  0.19790  0.35195  0.90503  1.0000
  H   H676      1.0  0.20822  0.36630  0.76991  1.0000
  H   H677      1.0  0.38074  0.04342  0.89204  1.0000
  C   C382      1.0  0.27869  0.13648  0.72399  1.0000
  H   H678      1.0  0.36546  0.40161  0.91330  1.0000
  H   H679      1.0  0.06340  0.04776  0.81241  1.0000
  H   H680      1.0  0.22623  0.35359  0.85903  1.0000
  S   S85       1.0  0.16021  0.48621  0.81481  1.0000
  H   H681      1.0  0.47461  0.29614  0.95176  1.0000
  Fe  Fe45      1.0  0.45645  0.38017  0.92924  1.0000
  Fe  Fe46      1.0  0.16108  0.33969  0.93186  1.0000
  C   C383      1.0  0.08515  0.39467  0.90554  1.0000
  H   H682      1.0  0.12806  0.03238  0.71844  1.0000
  H   H683      1.0  0.24625  0.40222  0.74112  1.0000
  H   H684      1.0  0.13752  0.29165  0.87444  1.0000
  C   C384      1.0  0.15973  0.39719  0.83764  1.0000
  H   H685      1.0  0.38609  0.06566  0.81829  1.0000
  C   C385      1.0  0.09418  0.15019  0.95268  1.0000
  N   N23       1.0  0.11920  0.23199  0.89546  1.0000
  C   C386      1.0  0.09650  0.24217  0.90365  1.0000
  H   H686      1.0  0.29857  0.40325  0.72409  1.0000
  C   C387      1.0  0.10447  0.19675  0.89612  1.0000
  C   C388      1.0  0.14782  0.24630  0.91075  1.0000
  C   C389      1.0  0.12815  0.24298  0.87140  1.0000
  C   C390      1.0  0.07946  0.22755  0.92631  1.0000
  C   C391      1.0  0.07351  0.17786  0.88227  1.0000
  H   H687      1.0  0.47245  0.26153  0.94161  1.0000
  H   H688      1.0  0.49085  0.34200  0.89574  1.0000
  H   H689      1.0  0.07792  0.23710  0.89076  1.0000
  H   H690      1.0  0.10915  0.26817  0.90586  1.0000
  Fe  Fe47      1.0  0.26803  0.34706  0.78517  1.0000
  S   S86       1.0  0.30082  0.39850  0.77643  1.0000
  H   H691      1.0  0.09992  0.18815  0.91384  1.0000
  H   H692      1.0  0.12129  0.18975  0.88947  1.0000
  H   H693      1.0  0.15747  0.27207  0.91249  1.0000
  H   H694      1.0  0.14119  0.23710  0.92822  1.0000
  H   H695      1.0  0.21123  0.34366  0.73286  1.0000
  C   C392      1.0  0.05992  0.14248  0.88516  1.0000
  H   H696      1.0  0.05358  0.47021  0.86676  1.0000
  H   H697      1.0  0.27789  0.32439  0.89891  1.0000
  C   C393      1.0  0.35693  0.02202  0.89201  1.0000
  H   H698      1.0  0.20029  0.25502  0.93582  1.0000
  H   H699      1.0  0.09688  0.10131  0.83337  1.0000
  H   H700      1.0  0.03752  0.39030  0.84396  1.0000
  H   H701      1.0  0.48981  0.15050  0.95269  1.0000
  C   C394      1.0  0.05936  0.24170  0.93378  1.0000
  C   C395      1.0  0.17113  0.43675  0.80873  1.0000
  H   H702      1.0  0.12756  0.02588  0.80935  1.0000
  C   C396      1.0  0.35074  0.07339  0.83203  1.0000
  H   H703      1.0  0.07437  0.26748  0.93629  1.0000
  C   C397      1.0  0.31757  0.08813  0.96132  1.0000
  H   H704      1.0  0.04888  0.40670  0.80147  1.0000
  H   H705      1.0  0.32955  0.32777  0.90736  1.0000
  S   S87       1.0  0.43292  0.32788  0.92540  1.0000
  H   H706      1.0  0.29860  0.43136  0.85427  1.0000
  H   H707      1.0  0.17837  0.19766  0.76294  1.0000
  C   C398      1.0  0.04933  0.42004  0.92251  1.0000
  H   H708      1.0  0.26862  0.50265  0.83872  1.0000
  H   H709      1.0  0.06538  0.44125  0.86749  1.0000
  H   H710      1.0  0.34454  0.38685  0.87599  1.0000
  H   H711      1.0  0.17235  0.28819  0.87677  1.0000
  H   H712      1.0  0.35274  0.05254  0.80020  1.0000
  C   C399      1.0  0.28682  0.31310  0.88791  1.0000
  C   C400      1.0  0.36385  0.08836  0.93320  1.0000
  C   C401      1.0  0.27583  0.21745  0.78791  1.0000
  C   C402      1.0  0.36972  0.42072  0.90138  1.0000
  C   C403      1.0  0.29353  0.48751  0.76595  1.0000
  H   H713      1.0  0.09159  0.42494  0.75281  1.0000
  H   H714      1.0  0.18144  0.24579  0.88586  1.0000
  H   H715      1.0  0.24997  0.22444  0.81436  1.0000
  H   H716      1.0  0.28295  0.37434  0.86721  1.0000
  H   H717      1.0  0.33983  0.22792  0.93334  1.0000
  C   C404      1.0  0.06393  0.42170  0.81561  1.0000
  H   H718      1.0  0.32983  0.19735  0.81781  1.0000
  H   H719      1.0  0.29021  0.14969  0.73966  1.0000
  Fe  Fe48      1.0  0.22101  0.40003  0.92037  1.0000
  H   H720      1.0  0.29268  0.16066  0.90323  1.0000
  H   H721      1.0  0.37234  0.21722  0.81607  1.0000
  H   H722      1.0  0.24462  0.20988  0.91558  1.0000
  H   H723      1.0  0.04522  0.35744  0.81578  1.0000
  N   N24       1.0  0.34710  0.01914  0.82600  1.0000
  H   H724      1.0  0.06952  0.36913  0.95801  1.0000
  C   C405      1.0  0.19768  0.16912  0.73017  1.0000
  H   H725      1.0  0.33562  0.18973  0.92873  1.0000
  H   H726      1.0  0.26975  0.21111  0.86791  1.0000
  Fe  Fe49      1.0  0.20260  0.12600  0.95113  1.0000
  C   C406      1.0  0.09962  0.12563  0.94716  1.0000
  S   S88       1.0  0.25285  0.30904  0.75915  1.0000
  C   C407      1.0  0.15648  0.16043  0.95219  1.0000
  C   C408      1.0  0.31608  0.31516  0.89261  1.0000
  C   C409      1.0  0.07344  0.05285  0.90357  1.0000
  H   H727      1.0  0.04443  0.44745  0.78517  1.0000
  H   H728      1.0  0.20888  0.46976  0.86860  1.0000
  H   H729      1.0  0.14737  0.09613  0.76000  1.0000
  H   H730      1.0  0.34495  0.44982  0.87303  1.0000
  N   N25       1.0  0.12639  0.08033  0.83060  1.0000
  C   C410      1.0  0.12771  0.08264  0.80514  1.0000
  C   C411      1.0  0.09659  0.07937  0.83862  1.0000
  C   C412      1.0  0.15419  0.11010  0.83980  1.0000
  C   C413      1.0  0.12847  0.05253  0.83944  1.0000
  H   H731      1.0  0.16631  0.49215  0.93276  1.0000
  C   C414      1.0  0.15976  0.09032  0.79444  1.0000
  C   C415      1.0  0.15535  0.11431  0.86585  1.0000
  H   H732      1.0  0.07971  0.01931  0.94891  1.0000
  C   C416      1.0  0.24852  0.01056  0.91925  1.0000
  H   H733      1.0  0.23744  0.23482  0.73651  1.0000
  C   C417      1.0  0.15644  0.08259  0.76924  1.0000
  C   C418      1.0  0.18744  0.14120  0.87345  1.0000
  H   H734      1.0  0.12273  0.10132  0.79938  1.0000
  H   H735      1.0  0.10887  0.06078  0.79722  1.0000
  H   H736      1.0  0.09547  0.07881  0.85732  1.0000
  C   C419      1.0  0.27840  0.02421  0.90418  1.0000
  H   H737      1.0  0.15508  0.13122  0.83205  1.0000
  H   H738      1.0  0.17683  0.11137  0.83507  1.0000
  H   H739      1.0  0.15366  0.05884  0.84182  1.0000
  H   H740      1.0  0.11799  0.04609  0.85665  1.0000
  H   H741      1.0  0.22793  0.48179  0.83039  1.0000
  H   H742      1.0  0.10420  0.47365  0.83424  1.0000
  H   H743      1.0  0.17717  0.11578  0.79634  1.0000
  H   H744      1.0  0.16970  0.07711  0.80288  1.0000
  H   H745      1.0  0.15128  0.09273  0.87475  1.0000
  H   H746      1.0  0.13727  0.12022  0.87139  1.0000
  H   H747      1.0  0.10988  0.50208  0.79953  1.0000
  H   H748      1.0  0.06114  0.02933  0.83938  1.0000
  C   C420      1.0  0.37141  0.40054  0.83047  1.0000
  H   H749      1.0  0.07723  0.13553  0.87962  1.0000
  C   C421      1.0  0.35916  0.01808  0.84929  1.0000
  C   C422      1.0  0.31976  0.48546  0.75909  1.0000
  H   H750      1.0  0.01941  0.45509  0.83227  1.0000
  H   H751      1.0  0.48683  0.31665  0.87257  1.0000
  H   H752      1.0  0.14015  0.05707  0.76649  1.0000
  H   H753      1.0  0.32942  0.46730  0.95122  1.0000
  H   H754      1.0  0.17990  0.08872  0.76222  1.0000
  H   H755      1.0  0.20630  0.13563  0.86950  1.0000
  H   H756      1.0  0.28059  0.02126  0.95671  1.0000
  H   H757      1.0  0.26895  0.21053  0.73066  1.0000
  N   N26       1.0  0.32129  0.20512  0.88623  1.0000
  C   C423      1.0  0.32774  0.21712  0.86228  1.0000
  C   C424      1.0  0.29986  0.21507  0.89722  1.0000
  C   C425      1.0  0.35237  0.22111  0.89897  1.0000
  C   C426      1.0  0.30742  0.16991  0.88777  1.0000
  C   C427      1.0  0.28705  0.14965  0.86758  1.0000
  C   C428      1.0  0.35436  0.21465  0.84997  1.0000
  C   C429      1.0  0.35030  0.21516  0.92484  1.0000
  C   C430      1.0  0.26741  0.20394  0.88586  1.0000
  C   C431      1.0  0.01504  0.17726  0.74512  1.0000
  H   H758      1.0  0.16792  0.27432  0.83566  1.0000
  C   C432      1.0  0.35214  0.21742  0.82440  1.0000
  C   C433      1.0  0.34448  0.40768  0.88288  1.0000
  H   H759      1.0  0.33479  0.24235  0.86195  1.0000
  H   H760      1.0  0.30602  0.20532  0.85173  1.0000
  H   H761      1.0  0.29426  0.20615  0.91484  1.0000
  H   H762      1.0  0.31225  0.24120  0.89844  1.0000
  H   H763      1.0  0.36460  0.24704  0.89641  1.0000
  H   H764      1.0  0.36872  0.21357  0.89220  1.0000
  H   H765      1.0  0.32649  0.16397  0.88996  1.0000
  C   C434      1.0  0.15088  0.18486  0.95771  1.0000
  H   H766      1.0  0.30111  0.15556  0.85186  1.0000
  H   H767      1.0  0.26666  0.15297  0.86428  1.0000
  H   H768      1.0  0.37780  0.23412  0.85557  1.0000
  H   H769      1.0  0.35350  0.19214  0.85377  1.0000
  H   H770      1.0  0.38418  0.41761  0.81674  1.0000
  C   C435      1.0  0.26957  0.43346  0.78007  1.0000
  C   C436      1.0  0.34752  0.47830  0.83002  1.0000
  H   H771      1.0  0.26526  0.45496  0.85433  1.0000
  S   S89       1.0  0.28772  0.25368  0.77425  1.0000
  C   C437      1.0  0.17506  0.24047  0.90387  1.0000
  H   H772      1.0  0.17811  0.37352  0.75848  1.0000
  H   H773      1.0  0.30936  0.35935  0.72815  1.0000
  C   C438      1.0  0.11328  0.02226  0.82477  1.0000
  C   C439      1.0  0.28445  0.19650  0.77873  1.0000
  H   H774      1.0  0.21661  0.40869  0.72957  1.0000
  H   H775      1.0  0.32273  0.47210  0.82635  1.0000
  H   H776      1.0  0.29464  0.11068  0.87528  1.0000
  H   H777      1.0  0.25034  0.41354  0.78849  1.0000
  H   H778      1.0  0.29934  0.04070  0.91422  1.0000
  H   H779      1.0  0.38518  0.40956  0.84633  1.0000
  H   H780      1.0  0.10656  0.23566  0.86097  1.0000
  H   H781      1.0  0.34158  0.45705  0.75689  1.0000
  H   H782      1.0  0.14018  0.23137  0.86335  1.0000
  C   C440      1.0  0.20483  0.26106  0.91766  1.0000
  C   C441      1.0  0.27576  0.04225  0.88410  1.0000
  S   S90       1.0  0.13805  0.02082  0.91315  1.0000
  N   N27       1.0  0.05684  0.44764  0.82043  1.0000
  H   H783      1.0  0.24886  0.45804  0.72089  1.0000
  S   S91       1.0  0.29549  0.11212  0.92804  1.0000
  H   H784      1.0  0.16824  0.21560  0.90700  1.0000
  C   C442      1.0  0.02365  0.43515  0.82918  1.0000
  H   H785      1.0  0.25850  0.27060  0.94520  1.0000
  C   C443      1.0  0.32096  0.45793  0.76242  1.0000
  C   C444      1.0  0.13073  0.13076  0.94684  1.0000
  H   H786      1.0  0.27972  0.15039  0.78101  1.0000
  C   C445      1.0  0.35986  0.05255  0.81812  1.0000
  C   C446      1.0  0.17864  0.17621  0.76853  1.0000
  H   H787      1.0  0.32134  0.39995  0.89101  1.0000
  H   H788      1.0  0.34407  0.44157  0.80827  1.0000
  H   H789      1.0  0.26378  0.24403  0.89743  1.0000
  H   H790      1.0  0.06329  0.35811  0.84253  1.0000
  H   H791      1.0  0.01155  0.21203  0.72446  1.0000
  C   C447      1.0  0.05606  0.38713  0.89552  1.0000
  C   C448      1.0  0.32026  0.09862  0.93906  1.0000
  C   C449      1.0  0.09244  0.49891  0.76584  1.0000
  C   C450      1.0  0.15607  0.00826  0.89369  1.0000
  H   H792      1.0  0.36460  0.08063  0.84799  1.0000
  H   H793      1.0  0.34615  0.10742  0.90795  1.0000
  H   H794      1.0  0.24483  0.39404  0.86785  1.0000
  H   H795      1.0  0.38172  0.08869  0.92231  1.0000
  C   C451      1.0  0.34443  0.40698  0.95543  1.0000
  S   S92       1.0  0.24706  0.07211  0.76766  1.0000
  H   H796      1.0  0.27410  0.37284  0.92647  1.0000
  H   H797      1.0  0.37736  0.44737  0.86271  1.0000
  H   H798      1.0  0.39370  0.42976  0.89417  1.0000
  H   H799      1.0  0.29947  0.20333  0.76400  1.0000
  H   H800      1.0  0.26588  0.36866  0.73611  1.0000
  H   H801      1.0  0.02660  0.18877  0.78053  1.0000
  C   C452      1.0  0.27463  0.11479  0.87198  1.0000
  H   H802      1.0  0.24509  0.15842  0.74196  1.0000
  H   H803      1.0  0.13453  0.28072  0.83342  1.0000
  C   C453      1.0  0.33747  0.39521  0.83294  1.0000
  C   C454      1.0  0.20415  0.17311  0.75593  1.0000
  S   S93       1.0  0.18635  0.38694  0.94854  1.0000
  H   H804      1.0  0.09017  0.39503  0.71882  1.0000
  Fe  Fe50      1.0  0.39633  0.37548  0.94986  1.0000
  H   H805      1.0  0.26645  0.05757  0.88966  1.0000
  C   C455      1.0  0.17073  0.40931  0.81600  1.0000
  H   H806      1.0  0.36440  0.49849  0.79664  1.0000
  H   H807      1.0  0.07986  0.41339  0.84807  1.0000
  H   H808      1.0  0.35233  0.11822  0.82967  1.0000
  H   H809      1.0  0.25837  0.10656  0.88661  1.0000
  Fe  Fe51      1.0  0.17683  0.06052  0.93261  1.0000
  H   H810      1.0  0.38413  0.11707  0.81514  1.0000
  H   H811      1.0  0.17309  0.31248  0.84107  1.0000
  C   C456      1.0  0.24966  0.21798  0.89778  1.0000
  H   H812      1.0  0.38417  0.03730  0.85130  1.0000
  C   C457      1.0  0.35124  0.43330  0.86496  1.0000
  H   H813      1.0  0.26144  0.10057  0.85710  1.0000
  C   C458      1.0  0.35851  0.10340  0.81919  1.0000
  C   C459      1.0  0.24387  0.37806  0.85427  1.0000
  C   C460      1.0  0.15648  0.28690  0.84298  1.0000
  S   S94       1.0  0.20606  0.49884  0.75736  1.0000
  H   H814      1.0  0.19246  0.05516  0.88485  1.0000
  H   H815      1.0  0.13474  0.11192  0.94199  1.0000
  H   H816      1.0  0.26903  0.28501  0.71786  1.0000
  H   H817      1.0  0.21799  0.03733  0.85729  1.0000
  C   C461      1.0  0.39490  0.01809  0.80733  1.0000
  H   H818      1.0  0.13046  0.43170  0.74622  1.0000
  Fe  Fe52      1.0  0.15713  0.39844  0.92531  1.0000
  S   S95       1.0  0.36917  0.32297  0.94778  1.0000
  H   H819      1.0  0.08868  0.43166  0.80966  1.0000
  C   C462      1.0  0.48661  0.28194  0.95296  1.0000
  H   H820      1.0  0.18902  0.18520  0.72512  1.0000
  S   S96       1.0  0.19485  0.41722  0.89893  1.0000
  S   S97       1.0  0.27333  0.43265  0.92592  1.0000
  H   H821      1.0  0.03807  0.12945  0.87484  1.0000
  C   C463      1.0  0.33973  0.01443  0.74547  1.0000
  H   H822      1.0  0.27333  0.36345  0.83816  1.0000
  H   H823      1.0  0.15500  0.15525  0.76555  1.0000
  C   C464      1.0  0.30098  0.41436  0.84327  1.0000
  S   S98       1.0  0.01280  0.05544  0.93946  1.0000
  C   C465      1.0  0.18900  0.35846  0.75721  1.0000
  H   H824      1.0  0.10282  0.46770  0.78412  1.0000
  H   H825      1.0  0.08775  0.38120  0.81943  1.0000
  H   H826      1.0  0.32372  0.37370  0.84324  1.0000
  C   C466      1.0  0.07300  0.46559  0.86248  1.0000
  C   C467      1.0  0.14796  0.43890  0.84422  1.0000
  C   C468      1.0  0.37061  0.36993  0.82452  1.0000
  S   S99       1.0  0.44691  0.06296  0.91750  1.0000
  H   H827      1.0  0.28617  0.43895  0.71696  1.0000
  H   H828      1.0  0.47723  0.28771  0.90820  1.0000
  H   H829      1.0  0.04749  0.37139  0.88121  1.0000
  H   H830      1.0  0.02864  0.35017  0.95030  1.0000
  H   H831      1.0  0.22687  0.21062  0.88903  1.0000
  C   C469      1.0  0.34794  0.43675  0.95836  1.0000
  H   H832      1.0  0.08908  0.01527  0.81911  1.0000
  H   H833      1.0  0.39447  0.21451  0.92803  1.0000
  H   H834      1.0  0.24990  0.03075  0.92874  1.0000
  H   H835      1.0  0.13784  0.28880  0.71712  1.0000
  H   H836      1.0  0.17066  0.33390  0.76117  1.0000
  S   S100      1.0  0.13258  0.42427  0.93744  1.0000
  H   H837      1.0  0.23575  0.38371  0.83832  1.0000
  C   C470      1.0  0.22789  0.39404  0.72772  1.0000
  Fe  Fe53      1.0  0.41481  0.04756  0.94786  1.0000
  H   H838      1.0  0.03922  0.18191  0.74165  1.0000
  H   H839      1.0  0.18025  0.44638  0.79224  1.0000
  H   H840      1.0  0.38080  0.22321  0.95372  1.0000
  S   S101      1.0  0.31090  0.04512  0.76266  1.0000
  H   H841      1.0  0.32616  0.38877  0.81601  1.0000
  H   H842      1.0  0.04769  0.23100  0.95006  1.0000
  H   H843      1.0  0.13942  0.40261  0.86827  1.0000
  C   C471      1.0  0.19756  0.02018  0.86661  1.0000
  H   H844      1.0  0.03853  0.07626  0.82970  1.0000
  C   C472      1.0  0.29455  0.39058  0.93554  1.0000
  H   H845      1.0  0.35849  0.35206  0.83796  1.0000
  C   C473      1.0  0.05949  0.46444  0.79841  1.0000
  H   H846      1.0  0.07997  0.10288  0.94280  1.0000
  H   H847      1.0  0.05368  0.13557  0.90309  1.0000
  C   C474      1.0  0.09659  0.41510  0.92401  1.0000
  H   H848      1.0  0.29934  0.05727  0.87642  1.0000
  H   H849      1.0  0.07387  0.05696  0.92202  1.0000
  C   C475      1.0  0.09314  0.48325  0.78800  1.0000
  H   H850      1.0  0.09823  0.06574  0.89749  1.0000
  C   C476      1.0  0.19843  0.27376  0.71788  1.0000
  C   C477      1.0  0.11995  0.17975  0.95798  1.0000
  H   H851      1.0  0.09520  0.48292  0.89513  1.0000
  H   H852      1.0  0.35680  0.03718  0.73875  1.0000
  C   C478      1.0  0.31740  0.38363  0.94420  1.0000
  S   S102      1.0  0.05597  0.14570  0.95219  1.0000
  C   C479      1.0  0.05902  0.01779  0.89870  1.0000
  H   H853      1.0  0.35814  0.36051  0.80820  1.0000
  H   H854      1.0  0.05514  0.18341  0.88758  1.0000
  C   C480      1.0  0.36148  0.07830  0.95556  1.0000
  Fe  Fe54      1.0  0.22121  0.01155  0.81618  1.0000
  H   H855      1.0  0.12008  0.46128  0.73957  1.0000
  C   C481      1.0  0.03801  0.39970  0.90399  1.0000
  H   H856      1.0  0.35317  0.48664  0.84771  1.0000
  H   H857      1.0  0.17713  0.14502  0.72752  1.0000
  C   C482      1.0  0.28319  0.27647  0.94854  1.0000
  H   H858      1.0  0.05972  0.06235  0.89505  1.0000
  H   H859      1.0  0.12141  0.48274  0.87398  1.0000
  H   H860      1.0  0.06342  0.20185  0.92467  1.0000
  H   H861      1.0  0.30127  0.01115  0.83714  1.0000
  H   H862      1.0  0.39513  0.37432  0.82292  1.0000
  H   H863      1.0  0.03601  0.05726  0.85646  1.0000
  H   H864      1.0  0.29911  0.30130  0.94355  1.0000
  H   H865      1.0  0.18728  0.14465  0.89198  1.0000
  H   H866      1.0  0.28882  0.26128  0.93800  1.0000
  H   H867      1.0  0.11601  0.19891  0.96222  1.0000
  H   H868      1.0  0.29444  0.26974  0.72500  1.0000
  C   C483      1.0  0.11108  0.43558  0.74032  1.0000
  S   S103      1.0  0.21110  0.05188  0.95194  1.0000
  C   C484      1.0  0.06468  0.05099  0.83097  1.0000
  H   H869      1.0  0.07390  0.01016  0.90760  1.0000
  C   C485      1.0  0.04939  0.32075  0.94912  1.0000
  H   H870      1.0  0.19276  0.16340  0.86485  1.0000
  S   S104      1.0  0.14178  0.29686  0.95405  1.0000
  C   C486      1.0  0.32574  0.44382  0.94936  1.0000
  H   H871      1.0  0.22716  0.19424  0.75949  1.0000
  H   H872      1.0  0.25104  0.32449  0.95644  1.0000
  H   H873      1.0  0.04081  0.23702  0.92100  1.0000
  H   H874      1.0  0.21644  0.12752  0.72479  1.0000
  C   C487      1.0  0.19589  0.50178  0.90324  1.0000
  H   H875      1.0  0.02041  0.42365  0.84583  1.0000
  Fe  Fe55      1.0  0.41397  0.32592  0.95999  1.0000
  H   H876      1.0  0.06803  0.31784  0.95767  1.0000
  S   S105      1.0  0.16313  0.07925  0.96201  1.0000
  H   H877      1.0  0.25173  0.44881  0.82542  1.0000
  H   H878      1.0  0.39832  0.25282  0.93215  1.0000
  C   C488      1.0  0.18308  0.03029  0.88217  1.0000
  H   H879      1.0  0.18588  0.47663  0.89886  1.0000
  H   H880      1.0  0.05053  0.48113  0.80056  1.0000
  C   C489      1.0  0.04659  0.34737  0.96002  1.0000
  H   H881      1.0  0.40653  0.04255  0.80100  1.0000
  C   C490      1.0  0.23427  0.48803  0.86718  1.0000
  H   H882      1.0  0.24648  0.48163  0.88028  1.0000
  S   S106      1.0  0.50586  0.40752  0.91447  1.0000
  S   S107      1.0  0.44025  0.37817  0.96492  1.0000
  H   H883      1.0  0.02650  0.29833  0.95000  1.0000
  H   H884      1.0  0.02520  0.00521  0.92529  1.0000
  C   C491      1.0  0.17301  0.03533  0.72414  1.0000
  Fe  Fe56      1.0  0.42336  0.01112  0.90914  1.0000
  H   H885      1.0  0.07650  0.48104  0.75340  1.0000
  H   H886      1.0  0.26040  0.11216  0.72843  1.0000
  C   C492      1.0  0.23643  0.15230  0.72429  1.0000
  C   C493      1.0  0.24490  0.48332  0.84351  1.0000
  H   H887      1.0  0.01069  0.00841  0.89873  1.0000
  H   H888      1.0  0.25972  0.02560  0.87111  1.0000
  H   H889      1.0  0.18168  0.35167  0.72163  1.0000
  H   H890      1.0  0.28288  0.00567  0.89778  1.0000
  C   C494      1.0  0.10169  0.48734  0.87699  1.0000
  H   H891      1.0  0.20263  0.49220  0.93815  1.0000
  H   H892      1.0  0.06030  0.01493  0.88025  1.0000
  C   C495      1.0  0.09890  0.42053  0.71713  1.0000
  H   H893      1.0  0.08404  0.49516  0.83367  1.0000
  H   H894      1.0  0.01426  0.03430  0.83235  1.0000
  C   C496      1.0  0.31353  0.01103  0.75741  1.0000
  H   H895      1.0  0.42874  0.00878  0.79044  1.0000
  C   C497      1.0  0.50137  0.32906  0.88761  1.0000
  C   C498      1.0  0.50204  0.30529  0.90395  1.0000
  C   C499      1.0  0.24503  0.23416  0.71900  1.0000
  S   S108      1.0  0.16029  0.01138  0.74818  1.0000
  C   C500      1.0  0.27940  0.37900  0.72042  1.0000
  H   H896      1.0  0.30359  0.00613  0.80815  1.0000
  S   S109      1.0  0.45927  0.00362  0.92769  1.0000
  Fe  Fe57      1.0  0.43863  0.94185  0.09860  1.0000
  S   S110      1.0  0.42893  0.89745  0.08103  1.0000
  S   S111      1.0  0.45721  0.98719  0.07977  1.0000
  Fe  Fe58      1.0  0.41992  0.91093  0.14430  1.0000
  S   S112      1.0  0.40807  0.86403  0.13048  1.0000
  S   S113      1.0  0.41813  0.92111  0.18109  1.0000
  Fe  Fe59      1.0  0.45327  0.89054  0.11088  1.0000
  S   S114      1.0  0.48608  0.87042  0.11043  1.0000
  Fe  Fe60      1.0  0.38490  0.87562  0.10223  1.0000
  S   S115      1.0  0.33787  0.83830  0.08832  1.0000
  S   S116      1.0  0.46661  0.93686  0.12658  1.0000
  S   S117      1.0  0.39305  0.92058  0.11769  1.0000
  C   C501      1.0  0.50694  0.87549  0.20016  1.0000
  H   H897      1.0  0.06932  0.89398  0.20067  1.0000
  Fe  Fe61      1.0  0.17159  0.92423  0.08996  1.0000
  S   S118      1.0  0.21620  0.97145  0.09144  1.0000
  S   S119      1.0  0.13068  0.93393  0.09022  1.0000
  Fe  Fe62      1.0  0.21104  0.89111  0.08988  1.0000
  S   S120      1.0  0.25735  0.93601  0.09088  1.0000
  S   S121      1.0  0.21169  0.84556  0.09071  1.0000
  Fe  Fe63      1.0  0.23350  0.94992  0.11662  1.0000
  S   S122      1.0  0.25564  0.97119  0.14978  1.0000
  Fe  Fe64      1.0  0.23487  0.95216  0.06532  1.0000
  H   H898      1.0  0.49291  0.97126  0.00726  1.0000
  S   S123      1.0  0.18801  0.90408  0.11737  1.0000
  S   S124      1.0  0.18967  0.90621  0.06210  1.0000
  H   H899      1.0  0.05405  0.97946  0.15996  1.0000
  C   C502      1.0  0.10958  0.85673  0.15616  1.0000
  H   H900      1.0  0.48929  0.90098  0.00446  1.0000
  C   C503      1.0  0.48688  0.91300  0.01959  1.0000
  H   H901      1.0  0.10464  0.50984  0.17726  1.0000
  H   H902      1.0  0.34537  0.92982  0.14919  1.0000
  C   C504      1.0  0.31661  0.86682  0.15502  1.0000
  H   H903      1.0  0.32999  0.91593  0.18596  1.0000
  C   C505      1.0  0.02935  0.84716  0.20598  1.0000
  H   H904      1.0  0.05139  0.93897  0.18564  1.0000
  H   H905      1.0  0.16245  0.54001  0.18562  1.0000
  C   C506      1.0  0.22330  0.96375  0.16664  1.0000
  C   C507      1.0  0.19670  0.96232  0.15654  1.0000
  C   C508      1.0  0.17011  0.95524  0.16949  1.0000
  C   C509      1.0  0.28423  0.86288  0.16144  1.0000
  H   H906      1.0  0.19659  0.96686  0.13871  1.0000
  H   H907      1.0  0.04906  0.83770  0.16419  1.0000
  C   C510      1.0  0.30332  0.90801  0.97679  1.0000
  H   H908      1.0  0.19643  0.83618  0.01474  1.0000
  H   H909      1.0  0.20917  0.50912  0.15961  1.0000
  H   H910      1.0  0.07626  0.91829  0.02908  1.0000
  C   C511      1.0  0.49359  0.90738  0.17594  1.0000
  H   H911      1.0  0.07897  0.96896  0.05717  1.0000
  H   H912      1.0  0.02247  0.92199  0.16354  1.0000
  H   H913      1.0  0.30128  0.89582  0.05107  1.0000
  H   H914      1.0  0.17061  0.52739  0.15941  1.0000
  C   C512      1.0  0.30458  0.90658  0.18969  1.0000
  C   C513      1.0  0.02559  0.92765  0.03886  1.0000
  H   H915      1.0  0.30446  0.86671  0.20664  1.0000
  H   H916      1.0  0.35401  0.96471  0.05313  1.0000
  H   H917      1.0  0.33442  0.87850  0.16857  1.0000
  C   C514      1.0  0.06105  0.86272  0.15907  1.0000
  H   H918      1.0  0.13498  0.86780  0.16075  1.0000
  H   H919      1.0  0.45093  0.92147  0.00357  1.0000
  H   H920      1.0  0.09974  0.87817  0.18403  1.0000
  H   H921      1.0  0.19463  0.88576  0.16958  1.0000
  H   H922      1.0  0.34831  0.82388  0.03347  1.0000
  C   C515      1.0  0.22326  0.95799  0.18979  1.0000
  H   H923      1.0  0.36295  0.97653  0.12515  1.0000
  H   H924      1.0  0.17603  0.85298  0.15027  1.0000
  C   C516      1.0  0.08310  0.98784  0.04508  1.0000
  H   H925      1.0  0.10754  0.85529  0.13744  1.0000
  H   H926      1.0  0.18568  0.84685  0.17842  1.0000
  H   H927      1.0  0.45507  0.85195  0.15177  1.0000
  H   H928      1.0  0.19847  0.96768  0.04628  1.0000
  H   H929      1.0  0.03192  0.89121  0.20044  1.0000
  C   C517      1.0  0.45091  0.85617  0.18813  1.0000
  H   H930      1.0  0.26439  0.56995  0.20073  1.0000
  C   C518      1.0  0.31236  0.90531  0.03445  1.0000
  H   H931      1.0  0.19192  0.84615  0.04314  1.0000
  C   C519      1.0  0.29444  0.91599  0.15010  1.0000
  C   C520      1.0  0.37482  0.85899  0.19013  1.0000
  C   C521      1.0  0.29560  0.85132  0.02380  1.0000
  H   H932      1.0  0.33984  0.90751  0.99748  1.0000
  H   H933      1.0  0.32864  0.94923  0.01592  1.0000
  H   H934      1.0  0.37854  0.85378  0.17314  1.0000
  H   H935      1.0  0.25013  0.90327  0.18305  1.0000
  H   H936      1.0  0.24376  0.95897  0.19762  1.0000
  C   C522      1.0  0.07211  0.92698  0.09463  1.0000
  C   C523      1.0  0.08897  0.91106  0.09196  1.0000
  C   C524      1.0  0.07223  0.87828  0.09002  1.0000
  H   H937      1.0  0.25081  0.85437  0.99967  1.0000
  C   C525      1.0  0.19635  0.95044  0.20276  1.0000
  H   H938      1.0  0.08475  0.95225  0.09620  1.0000
  H   H939      1.0  0.08495  0.86574  0.08786  1.0000
  H   H940      1.0  0.09688  0.83270  0.16345  1.0000
  C   C526      1.0  0.30374  0.84177  0.08990  1.0000
  C   C527      1.0  0.27417  0.81461  0.08737  1.0000
  C   C528      1.0  0.24634  0.81620  0.08803  1.0000
  C   C529      1.0  0.24766  0.84505  0.09077  1.0000
  C   C530      1.0  0.27730  0.87237  0.09303  1.0000
  C   C531      1.0  0.30530  0.87075  0.09280  1.0000
  H   H941      1.0  0.27275  0.79212  0.08507  1.0000
  H   H942      1.0  0.22366  0.79492  0.08621  1.0000
  H   H943      1.0  0.27881  0.89478  0.09478  1.0000
  H   H944      1.0  0.32807  0.89191  0.09441  1.0000
  C   C532      1.0  0.44277  0.97858  0.05219  1.0000
  C   C533      1.0  0.41544  0.95008  0.04734  1.0000
  C   C534      1.0  0.40568  0.94192  0.02493  1.0000
  C   C535      1.0  0.42269  0.96255  0.00744  1.0000
  C   C536      1.0  0.44974  0.99130  0.01233  1.0000
  H   H945      1.0  0.04061  0.99294  0.04639  1.0000
  H   H946      1.0  0.40217  0.93404  0.06083  1.0000
  H   H947      1.0  0.31255  0.87121  0.98484  1.0000
  H   H948      1.0  0.02645  0.92334  0.09672  1.0000
  H   H949      1.0  0.04053  0.83334  0.20085  1.0000
  H   H950      1.0  0.05966  0.86260  0.14026  1.0000
  H   H951      1.0  0.25796  0.97542  0.98241  1.0000
  H   H952      1.0  0.24385  0.51274  0.19403  1.0000
  C   C537      1.0  0.04807  0.93361  0.16729  1.0000
  H   H953      1.0  0.01023  0.87534  0.14340  1.0000
  C   C538      1.0  0.39145  0.88988  0.19818  1.0000
  H   H954      1.0  0.09013  0.97791  0.15849  1.0000
  C   C539      1.0  0.47699  0.90025  0.21539  1.0000
  C   C540      1.0  0.42096  0.80682  0.16440  1.0000
  H   H955      1.0  0.12371  0.98640  0.01415  1.0000
  C   C541      1.0  0.03880  0.86178  0.09049  1.0000
  C   C542      1.0  0.04479  0.87946  0.19410  1.0000
  H   H956      1.0  0.30175  0.92760  0.98448  1.0000
  H   H957      1.0  0.38541  0.91935  0.02110  1.0000
  H   H958      1.0  0.28123  0.83181  0.01177  1.0000
  C   C543      1.0  0.33022  0.94054  0.14811  1.0000
  H   H959      1.0  0.32816  0.98063  0.04872  1.0000
  H   H960      1.0  0.06084  0.96093  0.13615  1.0000
  C   C544      1.0  0.45193  0.83797  0.16715  1.0000
  H   H961      1.0  0.26923  0.85287  0.14612  1.0000
  C   C545      1.0  0.22604  0.87061  0.15565  1.0000
  H   H962      1.0  0.19821  0.60932  0.21623  1.0000
  H   H963      1.0  0.04085  0.92082  0.04811  1.0000
  H   H964      1.0  0.28986  0.93397  0.02850  1.0000
  H   H965      1.0  0.05929  0.97342  0.97594  1.0000
  H   H966      1.0  0.12459  0.91348  0.03051  1.0000
  H   H967      1.0  0.28616  0.90379  0.13363  1.0000
  H   H968      1.0  0.41754  0.79090  0.17878  1.0000
  C   C546      1.0  0.42743  0.87569  0.01846  1.0000
  C   C547      1.0  0.16979  0.94909  0.19255  1.0000
  H   H969      1.0  0.40054  0.81082  0.16350  1.0000
  H   H970      1.0  0.33655  0.83827  0.14427  1.0000
  H   H971      1.0  0.22296  0.84841  0.14854  1.0000
  H   H972      1.0  0.33732  0.95796  0.16202  1.0000
  H   H973      1.0  0.20905  0.53897  0.18943  1.0000
  C   C548      1.0  0.31410  0.89159  0.99421  1.0000
  C   C549      1.0  0.45380  0.91005  0.01884  1.0000
  H   H974      1.0  0.49387  0.96411  0.04518  1.0000
  H   H975      1.0  0.14581  0.94996  0.01537  1.0000
  H   H976      1.0  0.11228  0.91681  0.00238  1.0000
  C   C550      1.0  0.02203  0.87790  0.09312  1.0000
  C   C551      1.0  0.35272  0.83475  0.20397  1.0000
  C   C552      1.0  0.31361  0.83488  0.15039  1.0000
  H   H977      1.0  0.33725  0.91097  0.03653  1.0000
  C   C553      1.0  0.25064  0.88289  0.17522  1.0000
  H   H978      1.0  0.32525  0.88065  0.13925  1.0000
  H   H979      1.0  0.45024  0.92114  0.03391  1.0000
  H   H980      1.0  0.30877  0.80866  0.04393  1.0000
  H   H981      1.0  0.28282  0.93043  0.15178  1.0000
  C   C554      1.0  0.31379  0.93708  0.03081  1.0000
  C   C555      1.0  0.04221  0.94891  0.01804  1.0000
  H   H982      1.0  0.32334  0.97050  0.12429  1.0000
  H   H983      1.0  0.47521  0.91345  0.17117  1.0000
  H   H984      1.0  0.24976  0.87946  0.04742  1.0000
  C   C556      1.0  0.26213  0.87287  0.01290  1.0000
  H   H985      1.0  0.47032  0.91779  0.20964  1.0000
  H   H986      1.0  0.31534  0.80714  0.01402  1.0000
  C   C557      1.0  0.15329  0.52025  0.17336  1.0000
  H   H987      1.0  0.44042  0.83884  0.20205  1.0000
  H   H988      1.0  0.10182  0.99782  0.97480  1.0000
  H   H989      1.0  0.27230  0.87223  0.21516  1.0000
  C   C558      1.0  0.45986  0.99924  0.03473  1.0000
  H   H990      1.0  0.29551  0.82192  0.13716  1.0000
  H   H991      1.0  0.10803  0.94813  0.04604  1.0000
  H   H992      1.0  0.47149  0.83277  0.16809  1.0000
  S   S125      1.0  0.13619  0.94031  0.20834  1.0000
  H   H993      1.0  0.19164  0.52189  0.21575  1.0000
  N   N28       1.0  0.29605  0.88092  0.01629  1.0000
  H   H994      1.0  0.15793  0.94520  0.97153  1.0000
  S   S126      1.0  0.41065  0.95133  0.97956  1.0000
  H   H995      1.0  0.34073  0.86790  0.04179  1.0000
  C   C559      1.0  0.49707  0.84638  0.21523  1.0000
  H   H996      1.0  0.24098  0.86382  0.18798  1.0000
  C   C560      1.0  0.23923  0.99857  0.02640  1.0000
  C   C561      1.0  0.07962  0.99677  0.98041  1.0000
  N   N29       1.0  0.48193  0.88416  0.19525  1.0000
  H   H997      1.0  0.42843  0.86328  0.03387  1.0000
  H   H998      1.0  0.42940  0.86363  0.00325  1.0000
  S   S127      1.0  0.26031  0.98009  0.03452  1.0000
  H   H999      1.0  0.14895  0.99663  0.07431  1.0000
  H   H1000     1.0  0.34393  0.86485  0.01179  1.0000
  C   C562      1.0  0.06239  0.91284  0.16065  1.0000
  H   H1001     1.0  0.40413  0.87450  0.01803  1.0000
  H   H1002     1.0  0.26081  0.89337  0.00651  1.0000
  C   C563      1.0  0.32486  0.82132  0.02964  1.0000
  H   H1003     1.0  0.04101  0.93347  0.00390  1.0000
  C   C564      1.0  0.32896  0.95866  0.05116  1.0000
  H   H1004     1.0  0.04902  0.97994  0.08558  1.0000
  H   H1005     1.0  0.33193  0.94229  0.11132  1.0000
  H   H1006     1.0  0.23309  0.88799  0.14176  1.0000
  H   H1007     1.0  0.30586  0.97669  0.99471  1.0000
  H   H1008     1.0  0.02646  0.95797  0.01252  1.0000
  H   H1009     1.0  0.01855  0.94008  0.05105  1.0000
  H   H1010     1.0  0.27329  0.84422  0.17455  1.0000
  C   C565      1.0  0.09639  0.87674  0.16545  1.0000
  H   H1011     1.0  0.48667  0.89860  0.03421  1.0000
  H   H1012     1.0  0.23795  0.83922  0.04073  1.0000
  H   H1013     1.0  0.06492  0.91349  0.14193  1.0000
  H   H1014     1.0  0.30699  0.82050  0.16602  1.0000
  C   C566      1.0  0.23361  0.51995  0.20787  1.0000
  N   N30       1.0  0.04455  0.87914  0.16863  1.0000
  H   H1015     1.0  0.49771  0.89700  0.16056  1.0000
  H   H1016     1.0  0.42166  0.79520  0.14853  1.0000
  H   H1017     1.0  0.02592  0.83648  0.08874  1.0000
  H   H1018     1.0  0.31594  0.94717  0.06686  1.0000
  H   H1019     1.0  0.30284  0.92735  0.19514  1.0000
  H   H1020     1.0  0.14986  0.95475  0.16162  1.0000
  C   C567      1.0  0.19367  0.86369  0.16411  1.0000
  C   C568      1.0  0.24046  0.86136  0.03394  1.0000
  N   N31       1.0  0.07587  0.97565  0.02118  1.0000
  C   C569      1.0  0.09923  0.96567  0.01417  1.0000
  C   C570      1.0  0.30714  0.99104  0.97988  1.0000
  C   C571      1.0  0.20718  0.85466  0.02793  1.0000
  C   C572      1.0  0.03894  0.91056  0.09525  1.0000
  H   H1021     1.0  0.12660  0.53802  0.15555  1.0000
  C   C573      1.0  0.09985  0.93969  0.02860  1.0000
  C   C574      1.0  0.12205  0.92950  0.01854  1.0000
  C   C575      1.0  0.33743  0.95852  0.12581  1.0000
  N   N32       1.0  0.28419  0.89211  0.16901  1.0000
  H   H1022     1.0  0.09446  0.95662  0.99656  1.0000
  H   H1023     1.0  0.33912  0.81107  0.19745  1.0000
  H   H1024     1.0  0.11086  0.90041  0.15802  1.0000
  H   H1025     1.0  0.28402  0.84337  0.04054  1.0000
  H   H1026     1.0  0.08682  0.92531  0.16768  1.0000
  H   H1027     1.0  0.43348  0.86385  0.18442  1.0000
  C   C576      1.0  0.06439  0.96490  0.15465  1.0000
  C   C577      1.0  0.32842  0.85379  0.02658  1.0000
  H   H1028     1.0  0.20784  0.87635  0.02186  1.0000
  C   C578      1.0  0.20949  0.98838  0.03581  1.0000
  C   C579      1.0  0.29752  0.88457  0.21035  1.0000
  H   H1029     1.0  0.49033  0.93236  0.97637  1.0000
  H   H1030     1.0  0.47664  0.82494  0.20812  1.0000
  C   C580      1.0  0.20229  0.51815  0.20038  1.0000
  C   C581      1.0  0.12234  0.51588  0.16367  1.0000
  H   H1031     1.0  0.48303  0.97782  0.96742  1.0000
  H   H1032     1.0  0.32469  0.99159  0.96775  1.0000
  H   H1033     1.0  0.27971  0.89087  0.96980  1.0000
  C   C582      1.0  0.01096  0.86416  0.15963  1.0000
  H   H1034     1.0  0.17109  0.99733  0.03966  1.0000
  C   C583      1.0  0.25815  0.55332  0.21509  1.0000
  H   H1035     1.0  0.13108  0.00305  0.09866  1.0000
  C   C584      1.0  0.27445  0.97712  0.96894  1.0000
  H   H1036     1.0  0.17004  0.98638  0.96948  1.0000
  H   H1037     1.0  0.50760  0.94096  0.05800  1.0000
  C   C585      1.0  0.08112  0.00278  0.00620  1.0000
  H   H1038     1.0  0.19717  0.71574  0.21657  1.0000
  Fe  Fe65      1.0  0.14678  0.94453  0.24536  1.0000
  S   S128      1.0  0.15839  0.91306  0.26569  1.0000
  H   H1039     1.0  0.43983  0.98438  0.29477  1.0000
  Fe  Fe66      1.0  0.14851  0.98273  0.28581  1.0000
  S   S129      1.0  0.15959  0.95435  0.30974  1.0000
  C   C586      1.0  0.15628  0.59863  0.46625  1.0000
  Fe  Fe67      1.0  0.19380  0.95826  0.28300  1.0000
  S   S130      1.0  0.18486  0.98942  0.26034  1.0000
  Fe  Fe68      1.0  0.12288  0.91213  0.29028  1.0000
  S   S131      1.0  0.08195  0.87082  0.30813  1.0000
  H   H1040     1.0  0.13288  0.56470  0.31800  1.0000
  S   S132      1.0  0.10922  0.94078  0.26864  1.0000
  H   H1041     1.0  0.14024  0.95599  0.35884  1.0000
  C   C587      1.0  0.05230  0.55877  0.30512  1.0000
  H   H1042     1.0  0.49114  0.85067  0.23225  1.0000
  H   H1043     1.0  0.10324  0.96537  0.45127  1.0000
  H   H1044     1.0  0.42913  0.81999  0.34845  1.0000
  Fe  Fe69      1.0  0.11067  0.69109  0.37875  1.0000
  S   S133      1.0  0.12014  0.73631  0.36199  1.0000
  C   C588      1.0  0.22201  0.74485  0.41520  1.0000
  H   H1045     1.0  0.12503  0.62603  0.24385  1.0000
  S   S134      1.0  0.14771  0.67809  0.38561  1.0000
  H   H1046     1.0  0.30164  0.97991  0.40710  1.0000
  Fe  Fe70      1.0  0.30431  0.73767  0.29983  1.0000
  S   S135      1.0  0.31891  0.70399  0.28690  1.0000
  S   S136      1.0  0.27854  0.73367  0.33211  1.0000
  Fe  Fe71      1.0  0.31935  0.77369  0.25572  1.0000
  S   S137      1.0  0.33456  0.74281  0.23872  1.0000
  Fe  Fe72      1.0  0.29220  0.70194  0.25534  1.0000
  S   S138      1.0  0.25435  0.65971  0.23554  1.0000
  Fe  Fe73      1.0  0.36007  0.74774  0.27163  1.0000
  S   S139      1.0  0.40993  0.75555  0.27284  1.0000
  S   S140      1.0  0.27524  0.73313  0.26944  1.0000
  S   S141      1.0  0.34733  0.78119  0.28749  1.0000
  Fe  Fe74      1.0  0.31967  0.90441  0.43707  1.0000
  S   S142      1.0  0.31587  0.92914  0.40630  1.0000
  C   C589      1.0  0.01945  0.67770  0.38879  1.0000
  Fe  Fe75      1.0  0.34097  0.86703  0.40956  1.0000
  S   S143      1.0  0.33780  0.88834  0.37700  1.0000
  S   S144      1.0  0.36065  0.83489  0.40564  1.0000
  Fe  Fe76      1.0  0.36225  0.93414  0.39585  1.0000
  S   S145      1.0  0.40406  0.97402  0.37737  1.0000
  Fe  Fe77      1.0  0.29195  0.88096  0.39079  1.0000
  S   S146      1.0  0.24889  0.86709  0.36893  1.0000
  S   S147      1.0  0.36797  0.91297  0.42781  1.0000
  S   S148      1.0  0.29298  0.85591  0.42207  1.0000
  C   C590      1.0  0.30193  0.76225  0.35210  1.0000
  C   C591      1.0  0.28735  0.77179  0.36796  1.0000
  C   C592      1.0  0.30545  0.79460  0.38411  1.0000
  C   C593      1.0  0.33814  0.80691  0.38510  1.0000
  C   C594      1.0  0.35278  0.79699  0.36952  1.0000
  C   C595      1.0  0.33476  0.77515  0.35267  1.0000
  H   H1047     1.0  0.26207  0.76169  0.36769  1.0000
  H   H1048     1.0  0.29403  0.80213  0.39615  1.0000
  H   H1049     1.0  0.37802  0.80631  0.37050  1.0000
  H   H1050     1.0  0.34604  0.76745  0.34063  1.0000
  C   C596      1.0  0.15619  0.77207  0.36578  1.0000
  C   C597      1.0  0.18169  0.77436  0.37835  1.0000
  C   C598      1.0  0.21038  0.80345  0.38007  1.0000
  C   C599      1.0  0.21350  0.83016  0.36905  1.0000
  C   C600      1.0  0.18795  0.82756  0.35655  1.0000
  C   C601      1.0  0.15952  0.79891  0.35508  1.0000
  H   H1051     1.0  0.17921  0.75367  0.38658  1.0000
  H   H1052     1.0  0.23011  0.80512  0.38957  1.0000
  H   H1053     1.0  0.19021  0.84782  0.34777  1.0000
  H   H1054     1.0  0.14005  0.79755  0.34545  1.0000
  H   H1055     1.0  0.10112  0.53382  0.28547  1.0000
  H   H1056     1.0  0.24074  0.82139  0.23579  1.0000
  H   H1057     1.0  0.26438  0.74262  0.41900  1.0000
  H   H1058     1.0  0.22551  0.70606  0.22786  1.0000
  C   C602      1.0  0.07790  0.53834  0.43634  1.0000
  C   C603      1.0  0.01627  0.92049  0.29582  1.0000
  H   H1059     1.0  0.28365  0.67688  0.42432  1.0000
  H   H1060     1.0  0.14252  0.74084  0.42825  1.0000
  H   H1061     1.0  0.39700  0.81623  0.33077  1.0000
  H   H1062     1.0  0.01899  0.82199  0.31846  1.0000
  H   H1063     1.0  0.17196  0.66245  0.23334  1.0000
  H   H1064     1.0  0.22883  0.62900  0.46042  1.0000
  H   H1065     1.0  0.03188  0.61897  0.30044  1.0000
  C   C604      1.0  0.23109  0.61963  0.24365  1.0000
  C   C605      1.0  0.23864  0.60695  0.26221  1.0000
  C   C606      1.0  0.22344  0.63805  0.32298  1.0000
  C   C607      1.0  0.42283  0.82531  0.33162  1.0000
  H   H1066     1.0  0.24556  0.93385  0.39641  1.0000
  H   H1067     1.0  0.25951  0.62178  0.27217  1.0000
  S   S149      1.0  0.09071  0.61192  0.40713  1.0000
  C   C608      1.0  0.05609  0.83506  0.29406  1.0000
  C   C609      1.0  0.06516  0.82550  0.27461  1.0000
  C   C610      1.0  0.47394  0.78632  0.27559  1.0000
  C   C611      1.0  0.44754  0.79025  0.27480  1.0000
  C   C612      1.0  0.45222  0.82089  0.27565  1.0000
  H   H1068     1.0  0.08218  0.51825  0.43750  1.0000
  H   H1069     1.0  0.08831  0.84054  0.26744  1.0000
  H   H1070     1.0  0.47069  0.76289  0.27502  1.0000
  H   H1071     1.0  0.43197  0.82421  0.27509  1.0000
  H   H1072     1.0  0.05215  0.69892  0.35081  1.0000
  C   C613      1.0  0.27010  0.96202  0.43539  1.0000
  C   C614      1.0  0.48737  0.92854  0.33947  1.0000
  H   H1073     1.0  0.42985  0.94351  0.40515  1.0000
  C   C615      1.0  0.02570  0.91701  0.27190  1.0000
  H   H1074     1.0  0.17233  0.58489  0.40071  1.0000
  H   H1075     1.0  0.20861  0.59577  0.38558  1.0000
  H   H1076     1.0  0.35990  0.87749  0.25091  1.0000
  H   H1077     1.0  0.24627  0.78776  0.23563  1.0000
  C   C616      1.0  0.14803  0.68264  0.30361  1.0000
  H   H1078     1.0  0.03371  0.70105  0.39693  1.0000
  C   C617      1.0  0.38661  0.89629  0.22033  1.0000
  Fe  Fe78      1.0  0.12355  0.66100  0.41910  1.0000
  H   H1079     1.0  0.08128  0.59070  0.45543  1.0000
  H   H1080     1.0  0.47193  0.95852  0.40550  1.0000
  C   C618      1.0  0.45085  0.87938  0.23258  1.0000
  H   H1081     1.0  0.22233  0.74447  0.39648  1.0000
  H   H1082     1.0  0.48701  0.87074  0.27805  1.0000
  S   S150      1.0  0.07546  0.64445  0.36338  1.0000
  S   S151      1.0  0.08900  0.67744  0.41308  1.0000
  C   C619      1.0  0.23954  0.72908  0.42489  1.0000
  C   C620      1.0  0.18917  0.60099  0.38783  1.0000
  H   H1083     1.0  0.22559  0.56515  0.28192  1.0000
  C   C621      1.0  0.27848  0.69304  0.39204  1.0000
  H   H1084     1.0  0.45358  0.85975  0.23878  1.0000
  H   H1085     1.0  0.05338  0.90628  0.34942  1.0000
  N   N33       1.0  0.26044  0.82065  0.30344  1.0000
  C   C622      1.0  0.24251  0.83770  0.30770  1.0000
  C   C623      1.0  0.24801  0.79175  0.31826  1.0000
  C   C624      1.0  0.29447  0.84262  0.31023  1.0000
  C   C625      1.0  0.25992  0.81235  0.27888  1.0000
  C   C626      1.0  0.22718  0.79445  0.26710  1.0000
  H   H1086     1.0  0.40582  0.94638  0.30027  1.0000
  C   C627      1.0  0.31680  0.82875  0.30902  1.0000
  C   C628      1.0  0.21183  0.77229  0.32211  1.0000
  C   C629      1.0  0.20305  0.74303  0.33622  1.0000
  C   C630      1.0  0.23061  0.79665  0.24140  1.0000
  C   C631      1.0  0.34998  0.85240  0.31734  1.0000
  H   H1087     1.0  0.24447  0.84408  0.32582  1.0000
  H   H1088     1.0  0.21679  0.82236  0.30477  1.0000
  H   H1089     1.0  0.25562  0.77541  0.31163  1.0000
  H   H1090     1.0  0.25849  0.79846  0.33555  1.0000
  H   H1091     1.0  0.29561  0.85131  0.32782  1.0000
  H   H1092     1.0  0.30545  0.86379  0.29925  1.0000
  H   H1093     1.0  0.27540  0.83388  0.26889  1.0000
  H   H1094     1.0  0.27059  0.79719  0.27676  1.0000
  H   H1095     1.0  0.12235  0.63292  0.29745  1.0000
  H   H1096     1.0  0.21549  0.76920  0.27165  1.0000
  H   H1097     1.0  0.27723  0.88663  0.29858  1.0000
  H   H1098     1.0  0.31899  0.82272  0.29136  1.0000
  H   H1099     1.0  0.30812  0.80738  0.31954  1.0000
  H   H1100     1.0  0.20382  0.78633  0.33162  1.0000
  H   H1101     1.0  0.19839  0.76480  0.30613  1.0000
  H   H1102     1.0  0.17714  0.72984  0.33910  1.0000
  H   H1103     1.0  0.21031  0.72763  0.32762  1.0000
  H   H1104     1.0  0.21461  0.74973  0.35299  1.0000
  C   C632      1.0  0.43293  0.97678  0.45720  1.0000
  H   H1105     1.0  0.34939  0.85815  0.33539  1.0000
  H   H1106     1.0  0.36554  0.84210  0.31576  1.0000
  H   H1107     1.0  0.36006  0.87418  0.30704  1.0000
  H   H1108     1.0  0.23370  0.76972  0.42086  1.0000
  H   H1109     1.0  0.07572  0.76723  0.33894  1.0000
  C   C633      1.0  0.03238  0.70394  0.35041  1.0000
  H   H1110     1.0  0.30048  0.98554  0.33058  1.0000
  H   H1111     1.0  0.05029  0.77260  0.31963  1.0000
  H   H1112     1.0  0.42869  0.81271  0.31875  1.0000
  H   H1113     1.0  0.10588  0.80999  0.31180  1.0000
  H   H1114     1.0  0.10405  0.59893  0.26607  1.0000
  H   H1115     1.0  0.04111  0.51871  0.46098  1.0000
  H   H1116     1.0  0.25623  0.70074  0.45730  1.0000
  H   H1117     1.0  0.05213  0.78842  0.25011  1.0000
  C   C634      1.0  0.21000  0.63979  0.30003  1.0000
  H   H1118     1.0  0.24808  0.96066  0.44170  1.0000
  H   H1119     1.0  0.06258  0.58953  0.33388  1.0000
  H   H1120     1.0  0.30790  0.91957  0.23653  1.0000
  H   H1121     1.0  0.24197  0.63157  0.32057  1.0000
  S   S152      1.0  0.31465  0.81345  0.24125  1.0000
  H   H1122     1.0  0.22262  0.69449  0.39851  1.0000
  C   C635      1.0  0.36436  0.87218  0.23408  1.0000
  C   C636      1.0  0.11029  0.56299  0.31460  1.0000
  H   H1123     1.0  0.23431  0.66117  0.33166  1.0000
  H   H1124     1.0  0.31724  0.71161  0.36818  1.0000
  C   C637      1.0  0.04462  0.79591  0.26483  1.0000
  C   C638      1.0  0.15220  0.76536  0.43424  1.0000
  C   C639      1.0  0.34707  0.84149  0.22581  1.0000
  H   H1125     1.0  0.20449  0.61996  0.33378  1.0000
  C   C640      1.0  0.43186  0.95922  0.29780  1.0000
  H   H1126     1.0  0.14176  0.99415  0.46224  1.0000
  C   C641      1.0  0.15549  0.61936  0.26891  1.0000
  C   C642      1.0  0.04938  0.97310  0.33991  1.0000
  H   H1127     1.0  0.23109  0.88636  0.31643  1.0000
  H   H1128     1.0  0.32521  0.73506  0.39332  1.0000
  C   C643      1.0  0.09588  0.78510  0.30655  1.0000
  C   C644      1.0  0.24722  0.65386  0.46344  1.0000
  H   H1129     1.0  0.19036  0.76411  0.45114  1.0000
  C   C645      1.0  0.19186  0.55528  0.25514  1.0000
  H   H1130     1.0  0.15535  0.67900  0.32060  1.0000
  C   C646      1.0  0.09994  0.57922  0.32823  1.0000
  C   C647      1.0  0.06277  0.54247  0.29151  1.0000
  C   C648      1.0  0.23122  0.88145  0.29818  1.0000
  C   C649      1.0  0.48332  0.84721  0.27733  1.0000
  H   H1131     1.0  0.28946  0.97578  0.44765  1.0000
  H   H1132     1.0  0.19571  0.67207  0.31149  1.0000
  H   H1133     1.0  0.17429  0.62043  0.25783  1.0000
  C   C650      1.0  0.06727  0.76399  0.32121  1.0000
  H   H1134     1.0  0.12070  0.56216  0.24950  1.0000
  C   C651      1.0  0.17281  0.77133  0.45516  1.0000
  H   H1135     1.0  0.16362  0.55334  0.22664  1.0000
  C   C652      1.0  0.20235  0.63522  0.39484  1.0000
  H   H1136     1.0  0.27027  0.65706  0.45792  1.0000
  H   H1137     1.0  0.03504  0.90055  0.27177  1.0000
  H   H1138     1.0  0.47388  0.90865  0.26211  1.0000
  H   H1139     1.0  0.27999  0.55385  0.22103  1.0000
  N   N34       1.0  0.23899  0.67598  0.42548  1.0000
  H   H1140     1.0  0.02199  0.86511  0.23770  1.0000
  H   H1141     1.0  0.26793  0.70577  0.38362  1.0000
  H   H1142     1.0  0.49172  0.92114  0.32272  1.0000
  H   H1143     1.0  0.06491  0.95406  0.30475  1.0000
  C   C653      1.0  0.11902  0.68625  0.30689  1.0000
  H   H1144     1.0  0.18579  0.79702  0.45815  1.0000
  C   C654      1.0  0.44852  0.95603  0.31870  1.0000
  H   H1145     1.0  0.21644  0.73222  0.24318  1.0000
  N   N35       1.0  0.26083  0.96929  0.37026  1.0000
  H   H1146     1.0  0.23906  0.73095  0.44353  1.0000
  C   C655      1.0  0.28283  0.95819  0.36212  1.0000
  C   C656      1.0  0.23078  0.95525  0.35651  1.0000
  H   H1147     1.0  0.05230  0.67575  0.30096  1.0000
  H   H1148     1.0  0.16673  0.78167  0.42066  1.0000
  H   H1149     1.0  0.10085  0.56000  0.43309  1.0000
  C   C657      1.0  0.21146  0.91883  0.35596  1.0000
  C   C658      1.0  0.28952  0.96085  0.33639  1.0000
  C   C659      1.0  0.31211  0.94891  0.33059  1.0000
  H   H1150     1.0  0.13243  0.76973  0.43778  1.0000
  H   H1151     1.0  0.18198  0.63924  0.39624  1.0000
  C   C660      1.0  0.18282  0.90713  0.34031  1.0000
  H   H1152     1.0  0.19707  0.73259  0.42105  1.0000
  S   S153      1.0  0.24536  0.97399  0.28936  1.0000
  H   H1153     1.0  0.30617  0.97145  0.37074  1.0000
  H   H1154     1.0  0.27381  0.93330  0.36697  1.0000
  H   H1155     1.0  0.23576  0.96427  0.33887  1.0000
  H   H1156     1.0  0.21456  0.96301  0.36319  1.0000
  H   H1157     1.0  0.23109  0.95988  0.39986  1.0000
  H   H1158     1.0  0.31637  0.95081  0.31210  1.0000
  H   H1159     1.0  0.03446  0.66703  0.38613  1.0000
  C   C661      1.0  0.05755  0.56945  0.45744  1.0000
  H   H1160     1.0  0.17631  0.59653  0.37154  1.0000
  H   H1161     1.0  0.44604  0.92530  0.42293  1.0000
  H   H1162     1.0  0.20264  0.90924  0.37307  1.0000
  H   H1163     1.0  0.22596  0.90888  0.34990  1.0000
  H   H1164     1.0  0.26750  0.94650  0.32659  1.0000
  H   H1165     1.0  0.47433  0.97023  0.31564  1.0000
  H   H1166     1.0  0.04137  0.65915  0.32889  1.0000
  N   N36       1.0  0.03948  0.93890  0.33671  1.0000
  H   H1167     1.0  0.20667  0.86466  0.29260  1.0000
  H   H1168     1.0  0.06164  0.53416  0.42191  1.0000
  H   H1169     1.0  0.09527  0.56972  0.23168  1.0000
  C   C662      1.0  0.11919  0.58038  0.23943  1.0000
  H   H1170     1.0  0.05219  0.91462  0.31167  1.0000
  H   H1171     1.0  0.08888  0.78305  0.28851  1.0000
  H   H1172     1.0  0.04222  0.72721  0.35875  1.0000
  H   H1173     1.0  0.19058  0.91504  0.32271  1.0000
  H   H1174     1.0  0.16899  0.88107  0.34041  1.0000
  H   H1175     1.0  0.16704  0.91588  0.34607  1.0000
  C   C663      1.0  0.19157  0.67709  0.26738  1.0000
  H   H1176     1.0  0.26666  0.93793  0.43457  1.0000
  C   C664      1.0  0.18431  0.56810  0.23670  1.0000
  C   C665      1.0  0.09611  0.95214  0.34769  1.0000
  H   H1177     1.0  0.12770  0.65631  0.27325  1.0000
  H   H1178     1.0  0.20280  0.69928  0.27729  1.0000
  H   H1179     1.0  0.21133  0.67313  0.26283  1.0000
  C   C666      1.0  0.02669  0.98368  0.33039  1.0000
  H   H1180     1.0  0.07666  0.63363  0.45401  1.0000
  H   H1181     1.0  0.16705  0.70480  0.29625  1.0000
  C   C667      1.0  0.45098  0.89847  0.25296  1.0000
  H   H1182     1.0  0.05635  0.93409  0.36975  1.0000
  H   H1183     1.0  0.10864  0.91617  0.35443  1.0000
  C   C668      1.0  0.31383  0.71063  0.38676  1.0000
  H   H1184     1.0  0.04402  0.94017  0.26521  1.0000
  C   C669      1.0  0.11671  0.98810  0.46034  1.0000
  H   H1185     1.0  0.30171  0.92386  0.33558  1.0000
  H   H1186     1.0  0.16631  0.63180  0.31477  1.0000
  H   H1187     1.0  0.46297  0.90781  0.38979  1.0000
  H   H1188     1.0  0.39955  0.92010  0.22668  1.0000
  H   H1189     1.0  0.11446  0.77856  0.30842  1.0000
  H   H1190     1.0  0.07281  0.98846  0.33193  1.0000
  C   C670      1.0  0.20411  0.59985  0.23075  1.0000
  C   C671      1.0  0.04476  0.93268  0.31241  1.0000
  C   C672      1.0  0.07082  0.57711  0.32347  1.0000
  H   H1191     1.0  0.34175  0.91696  0.22740  1.0000
  H   H1192     1.0  0.07128  0.72314  0.31563  1.0000
  C   C673      1.0  0.05218  0.72906  0.31380  1.0000
  H   H1193     1.0  0.16016  0.68785  0.24721  1.0000
  H   H1194     1.0  0.12493  0.70618  0.31849  1.0000
  H   H1195     1.0  0.28752  0.71441  0.42525  1.0000
  H   H1196     1.0  0.04460  0.56798  0.44155  1.0000
  C   C674      1.0  0.12475  0.60757  0.25466  1.0000
  C   C675      1.0  0.44096  0.86062  0.32695  1.0000
  H   H1197     1.0  0.33516  0.96308  0.33940  1.0000
  H   H1198     1.0  0.09936  0.66456  0.31442  1.0000
  H   H1199     1.0  0.26852  0.66927  0.38459  1.0000
  Fe  Fe79      1.0  0.11093  0.63031  0.37285  1.0000
  C   C676      1.0  0.50456  0.81223  0.27707  1.0000
  H   H1200     1.0  0.32558  0.69845  0.39434  1.0000
  Fe  Fe80      1.0  0.05755  0.62935  0.39867  1.0000
  H   H1201     1.0  0.15766  0.58067  0.45666  1.0000
  C   C677      1.0  0.11445  0.93968  0.36089  1.0000
  H   H1202     1.0  0.21544  0.67163  0.45735  1.0000
  H   H1203     1.0  0.44255  0.96642  0.33315  1.0000
  S   S154      1.0  0.14674  0.67417  0.45340  1.0000
  H   H1204     1.0  0.43172  0.88296  0.26469  1.0000
  C   C678      1.0  0.17973  0.68295  0.24468  1.0000
  C   C679      1.0  0.25300  0.86811  0.29378  1.0000
  H   H1205     1.0  0.43250  0.86422  0.31044  1.0000
  N   N37       1.0  0.16761  0.65010  0.28144  1.0000
  H   H1206     1.0  0.25241  0.86355  0.27540  1.0000
  H   H1207     1.0  0.04686  0.72809  0.29537  1.0000
  C   C680      1.0  0.22370  0.69428  0.41721  1.0000
  C   C681      1.0  0.21993  0.64204  0.41790  1.0000
  H   H1208     1.0  0.42715  0.86914  0.22459  1.0000
  C   C682      1.0  0.31605  0.90321  0.23111  1.0000
  H   H1209     1.0  0.21139  0.80363  0.27153  1.0000
  H   H1210     1.0  0.10425  0.97635  0.35372  1.0000
  H   H1211     1.0  0.44697  0.91780  0.24746  1.0000
  H   H1212     1.0  0.24890  0.56130  0.22915  1.0000
  C   C683      1.0  0.21928  0.57485  0.26776  1.0000
  C   C684      1.0  0.27288  0.69058  0.41782  1.0000
  H   H1213     1.0  0.23504  0.63102  0.41789  1.0000
  H   H1214     1.0  0.20076  0.62812  0.43016  1.0000
  H   H1215     1.0  0.05334  0.97970  0.35810  1.0000
  H   H1216     1.0  0.23976  0.90380  0.28874  1.0000
  H   H1217     1.0  0.01593  0.94103  0.37751  1.0000
  H   H1218     1.0  0.05784  0.86292  0.23676  1.0000
  H   H1219     1.0  0.21763  0.65033  0.38105  1.0000
  H   H1220     1.0  0.23004  0.65734  0.28976  1.0000
  H   H1221     1.0  0.14998  0.59985  0.28089  1.0000
  H   H1222     1.0  0.13709  0.58873  0.22577  1.0000
  H   H1223     1.0  0.20034  0.61643  0.29199  1.0000
  C   C685      1.0  0.23902  0.67679  0.45103  1.0000
  C   C686      1.0  0.18403  0.64889  0.30278  1.0000
  H   H1224     1.0  0.14633  0.61870  0.43710  1.0000
  C   C687      1.0  0.09201  0.54502  0.29625  1.0000
  S   S155      1.0  0.12507  0.60293  0.35019  1.0000
  H   H1225     1.0  0.10225  0.95325  0.32958  1.0000
  H   H1226     1.0  0.10882  0.93800  0.37916  1.0000
  C   C688      1.0  0.06004  0.93141  0.35157  1.0000
  N   N38       1.0  0.45236  0.91427  0.34353  1.0000
  C   C689      1.0  0.43580  0.87897  0.34622  1.0000
  C   C690      1.0  0.44629  0.92917  0.36381  1.0000
  C   C691      1.0  0.43815  0.92100  0.32306  1.0000
  C   C692      1.0  0.27890  0.97782  0.41222  1.0000
  C   C693      1.0  0.14983  0.62008  0.45519  1.0000
  C   C694      1.0  0.14019  0.65428  0.28823  1.0000
  C   C695      1.0  0.44464  0.91439  0.38733  1.0000
  C   C696      1.0  0.44838  0.93689  0.40637  1.0000
  H   H1227     1.0  0.03884  0.65368  0.45445  1.0000
  H   H1228     1.0  0.40984  0.86931  0.34821  1.0000
  H   H1229     1.0  0.44308  0.87210  0.36195  1.0000
  H   H1230     1.0  0.46424  0.95469  0.36462  1.0000
  H   H1231     1.0  0.42304  0.92815  0.36203  1.0000
  H   H1232     1.0  0.41188  0.90794  0.32434  1.0000
  H   H1233     1.0  0.44402  0.91261  0.30739  1.0000
  H   H1234     1.0  0.43767  0.94985  0.28264  1.0000
  H   H1235     1.0  0.19859  0.68236  0.42287  1.0000
  C   C697      1.0  0.25249  0.95907  0.39455  1.0000
  C   C698      1.0  0.02611  0.81503  0.30329  1.0000
  H   H1236     1.0  0.49501  0.89695  0.36201  1.0000
  H   H1237     1.0  0.11114  0.69108  0.29052  1.0000
  H   H1238     1.0  0.42124  0.89267  0.38927  1.0000
  H   H1239     1.0  0.46637  0.86795  0.32545  1.0000
  C   C699      1.0  0.03255  0.85110  0.23161  1.0000
  H   H1240     1.0  0.20705  0.78234  0.23333  1.0000
  C   C700      1.0  0.20637  0.71101  0.23237  1.0000
  H   H1241     1.0  0.49947  0.91409  0.22494  1.0000
  H   H1242     1.0  0.02988  0.55723  0.30147  1.0000
  C   C701      1.0  0.03213  0.66086  0.31219  1.0000
  H   H1243     1.0  0.31224  0.88679  0.24522  1.0000
  H   H1244     1.0  0.41600  0.97761  0.44504  1.0000
  S   S156      1.0  0.16915  0.51445  0.26154  1.0000
  S   S157      1.0  0.03955  0.51945  0.26849  1.0000
  C   C702      1.0  0.00966  0.67445  0.31431  1.0000
  H   H1245     1.0  0.02409  0.98025  0.31192  1.0000
  H   H1246     1.0  0.19621  0.94584  0.22063  1.0000
  H   H1247     1.0  0.43393  0.95507  0.45400  1.0000
  H   H1248     1.0  0.49895  0.95454  0.33833  1.0000
  C   C703      1.0  0.06338  0.54125  0.45837  1.0000
  H   H1249     1.0  0.01769  0.56624  0.37618  1.0000
  N   N39       1.0  0.02286  0.70559  0.32640  1.0000
  H   H1250     1.0  0.02100  0.59529  0.45685  1.0000
  H   H1251     1.0  0.01980  0.82766  0.23978  1.0000
  H   H1252     1.0  0.22943  0.50455  0.22273  1.0000
  C   C704      1.0  0.50627  0.92220  0.35764  1.0000
  C   C705      1.0  0.01442  0.77610  0.27388  1.0000
  H   H1253     1.0  0.07702  0.68145  0.46601  1.0000
  H   H1254     1.0  0.28279  0.00192  0.41420  1.0000
  C   C706      1.0  0.01507  0.62784  0.30203  1.0000
  H   H1255     1.0  0.17641  0.75450  0.68657  1.0000
  C   C707      1.0  0.10200  0.98636  0.48340  1.0000
  H   H1256     1.0  0.12483  0.92276  0.53316  1.0000
  C   C708      1.0  0.20715  0.97653  0.64200  1.0000
  H   H1257     1.0  0.12526  0.96103  0.49583  1.0000
  H   H1258     1.0  0.14478  0.69864  0.52328  1.0000
  H   H1259     1.0  0.15377  0.66428  0.50037  1.0000
  Fe  Fe81      1.0  0.21957  0.82836  0.57505  1.0000
  S   S158      1.0  0.16978  0.81066  0.56341  1.0000
  S   S159      1.0  0.25392  0.82435  0.55195  1.0000
  Fe  Fe82      1.0  0.20579  0.84367  0.62208  1.0000
  S   S160      1.0  0.15488  0.82659  0.61410  1.0000
  S   S161      1.0  0.23103  0.87059  0.65338  1.0000
  Fe  Fe83      1.0  0.15664  0.78626  0.59694  1.0000
  S   S162      1.0  0.11669  0.73585  0.60008  1.0000
  Fe  Fe84      1.0  0.17335  0.85268  0.58143  1.0000
  S   S163      1.0  0.16312  0.88835  0.56466  1.0000
  S   S164      1.0  0.20627  0.80163  0.60779  1.0000
  S   S165      1.0  0.22442  0.87200  0.59039  1.0000
  H   H1260     1.0  0.16407  0.62842  0.62467  1.0000
  C   C709      1.0  0.17790  0.81861  0.70663  1.0000
  C   C710      1.0  0.26625  0.98806  0.67140  1.0000
  Fe  Fe85      1.0  0.12934  0.57775  0.57885  1.0000
  S   S166      1.0  0.17970  0.60441  0.56752  1.0000
  S   S167      1.0  0.10281  0.60006  0.59414  1.0000
  Fe  Fe86      1.0  0.16339  0.56819  0.53988  1.0000
  S   S168      1.0  0.17354  0.57622  0.50258  1.0000
  Fe  Fe87      1.0  0.18518  0.56890  0.58818  1.0000
  S   S169      1.0  0.22517  0.58346  0.61321  1.0000
  H   H1261     1.0  0.22624  0.64312  0.60540  1.0000
  S   S170      1.0  0.13544  0.54415  0.60105  1.0000
  C   C711      1.0  0.19289  0.84667  0.50638  1.0000
  C   C712      1.0  0.16165  0.60076  0.48961  1.0000
  C   C713      1.0  0.15959  0.62381  0.50200  1.0000
  C   C714      1.0  0.15414  0.64584  0.49083  1.0000
  C   C715      1.0  0.17436  0.61977  0.70359  1.0000
  S   S171      1.0  0.11235  0.54344  0.54986  1.0000
  H   H1262     1.0  0.20299  0.85032  0.52364  1.0000
  H   H1263     1.0  0.16365  0.62552  0.52005  1.0000
  H   H1264     1.0  0.24545  0.95345  0.56914  1.0000
  H   H1265     1.0  0.08842  0.54264  0.64054  1.0000
  C   C716      1.0  0.21921  0.56564  0.68048  1.0000
  H   H1266     1.0  0.27267  0.98513  0.58718  1.0000
  C   C717      1.0  0.17111  0.52524  0.66305  1.0000
  C   C718      1.0  0.18314  0.53757  0.64170  1.0000
  C   C719      1.0  0.21237  0.56510  0.63966  1.0000
  C   C720      1.0  0.23077  0.57875  0.65906  1.0000
  C   C721      1.0  0.22880  0.95053  0.60340  1.0000
  H   H1267     1.0  0.16965  0.52579  0.62682  1.0000
  H   H1268     1.0  0.27722  0.85560  0.66938  1.0000
  C   C722      1.0  0.11564  0.69939  0.59718  1.0000
  C   C723      1.0  0.08776  0.67253  0.60382  1.0000
  C   C724      1.0  0.08469  0.64276  0.60245  1.0000
  C   C725      1.0  0.10918  0.63891  0.59400  1.0000
  C   C726      1.0  0.13723  0.66562  0.58678  1.0000
  C   C727      1.0  0.14059  0.69598  0.58859  1.0000
  H   H1269     1.0  0.06835  0.67477  0.61038  1.0000
  H   H1270     1.0  0.06298  0.62245  0.60805  1.0000
  H   H1271     1.0  0.15632  0.66293  0.58019  1.0000
  H   H1272     1.0  0.16222  0.71656  0.58327  1.0000
  C   C728      1.0  0.15035  0.91062  0.58018  1.0000
  C   C729      1.0  0.12667  0.89661  0.59648  1.0000
  C   C730      1.0  0.11405  0.91387  0.60645  1.0000
  C   C731      1.0  0.12562  0.94552  0.60073  1.0000
  C   C732      1.0  0.15065  0.96007  0.58547  1.0000
  C   C733      1.0  0.16229  0.94242  0.57473  1.0000
  H   H1273     1.0  0.11700  0.87204  0.60057  1.0000
  H   H1274     1.0  0.09474  0.90245  0.61829  1.0000
  C   C734      1.0  0.20032  0.76373  0.69406  1.0000
  H   H1275     1.0  0.18063  0.95341  0.56213  1.0000
  C   C735      1.0  0.26835  0.85066  0.52899  1.0000
  C   C736      1.0  0.28042  0.84325  0.50999  1.0000
  C   C737      1.0  0.29193  0.86389  0.49147  1.0000
  C   C738      1.0  0.29195  0.89232  0.49207  1.0000
  C   C739      1.0  0.28002  0.89976  0.51111  1.0000
  C   C740      1.0  0.26811  0.87893  0.52948  1.0000
  H   H1276     1.0  0.28094  0.82154  0.50961  1.0000
  H   H1277     1.0  0.48002  0.00343  0.48802  1.0000
  H   H1278     1.0  0.28000  0.92172  0.51167  1.0000
  H   H1279     1.0  0.25900  0.88492  0.54408  1.0000
  C   C741      1.0  0.18897  0.53929  0.68248  1.0000
  N   N40       1.0  0.04093  0.57320  0.47753  1.0000
  H   H1280     1.0  0.09881  0.61485  0.53449  1.0000
  H   H1281     1.0  0.14087  0.72750  0.47110  1.0000
  H   H1282     1.0  0.20610  0.66451  0.59841  1.0000
  H   H1283     1.0  0.14771  0.50497  0.66451  1.0000
  H   H1284     1.0  0.18500  0.61069  0.63540  1.0000
  H   H1285     1.0  0.21019  0.80510  0.49182  1.0000
  C   C742      1.0  0.18915  0.79337  0.50305  1.0000
  H   H1286     1.0  0.14628  0.56580  0.64706  1.0000
  C   C743      1.0  0.18721  0.82987  0.68444  1.0000
  C   C744      1.0  0.21744  0.85554  0.68052  1.0000
  C   C745      1.0  0.23798  0.87009  0.69869  1.0000
  H   H1287     1.0  0.23158  0.66098  0.64523  1.0000
  H   H1288     1.0  0.24197  0.73243  0.53123  1.0000
  H   H1289     1.0  0.17117  0.81857  0.67044  1.0000
  H   H1290     1.0  0.26121  0.89025  0.69584  1.0000
  H   H1291     1.0  0.21055  0.70391  0.51361  1.0000
  H   H1292     1.0  0.14381  0.97225  0.53468  1.0000
  H   H1293     1.0  0.42393  0.97591  0.47453  1.0000
  H   H1294     1.0  0.14925  0.65191  0.68253  1.0000
  H   H1295     1.0  0.25366  0.59982  0.65756  1.0000
  N   N41       1.0  0.28650  0.81719  0.67121  1.0000
  C   C746      1.0  0.28235  0.84094  0.65778  1.0000
  C   C747      1.0  0.25869  0.79992  0.68691  1.0000
  C   C748      1.0  0.04090  0.98568  0.55394  1.0000
  C   C749      1.0  0.29064  0.79441  0.65648  1.0000
  C   C750      1.0  0.27387  0.78625  0.63301  1.0000
  C   C751      1.0  0.31138  0.86414  0.64345  1.0000
  H   H1296     1.0  0.20305  0.77977  0.70811  1.0000
  C   C752      1.0  0.22558  0.78081  0.67598  1.0000
  C   C753      1.0  0.08347  0.87833  0.53872  1.0000
  C   C754      1.0  0.27386  0.75798  0.62237  1.0000
  C   C755      1.0  0.30206  0.87881  0.62430  1.0000
  H   H1297     1.0  0.19931  0.79713  0.52038  1.0000
  H   H1298     1.0  0.26145  0.78269  0.69739  1.0000
  H   H1299     1.0  0.26131  0.82934  0.64659  1.0000
  H   H1300     1.0  0.26805  0.94634  0.59000  1.0000
  H   H1301     1.0  0.21246  0.85698  0.49391  1.0000
  C   C756      1.0  0.12827  0.98258  0.53586  1.0000
  H   H1302     1.0  0.31403  0.85379  0.69566  1.0000
  H   H1303     1.0  0.31615  0.80354  0.65283  1.0000
  H   H1304     1.0  0.28291  0.77203  0.66579  1.0000
  H   H1305     1.0  0.28627  0.80626  0.62117  1.0000
  H   H1306     1.0  0.24910  0.78093  0.63382  1.0000
  C   C757      1.0  0.07429  0.97370  0.52751  1.0000
  H   H1307     1.0  0.32366  0.85253  0.63600  1.0000
  H   H1308     1.0  0.05330  0.96058  0.51629  1.0000
  H   H1309     1.0  0.21167  0.92523  0.60080  1.0000
  H   H1310     1.0  0.05137  0.61287  0.51637  1.0000
  H   H1311     1.0  0.22450  0.76233  0.66479  1.0000
  H   H1312     1.0  0.21659  0.00333  0.67367  1.0000
  H   H1313     1.0  0.21724  0.96437  0.59933  1.0000
  C   C758      1.0  0.10260  0.96080  0.49865  1.0000
  H   H1314     1.0  0.17948  0.96766  0.67366  1.0000
  H   H1315     1.0  0.26224  0.75309  0.60552  1.0000
  H   H1316     1.0  0.22644  0.99840  0.63424  1.0000
  C   C759      1.0  0.31564  0.83528  0.68583  1.0000
  H   H1317     1.0  0.32331  0.89483  0.61430  1.0000
  H   H1318     1.0  0.19632  0.59303  0.71512  1.0000
  Fe  Fe88      1.0  0.12471  0.51285  0.57089  1.0000
  H   H1319     1.0  0.06694  0.60560  0.55382  1.0000
  C   C760      1.0  0.21061  0.74797  0.51810  1.0000
  H   H1320     1.0  0.22670  0.65661  0.49544  1.0000
  H   H1321     1.0  0.03171  0.98273  0.57144  1.0000
  C   C761      1.0  0.19028  0.91974  0.64427  1.0000
  H   H1322     1.0  0.17282  0.91413  0.67943  1.0000
  H   H1323     1.0  0.32872  0.88355  0.65440  1.0000
  H   H1324     1.0  0.04610  0.94521  0.55643  1.0000
  H   H1325     1.0  0.30130  0.85810  0.47691  1.0000
  H   H1326     1.0  0.09965  0.90666  0.50892  1.0000
  H   H1327     1.0  0.11909  0.59906  0.67579  1.0000
  H   H1328     1.0  0.27986  0.97588  0.70332  1.0000
  H   H1329     1.0  0.13223  0.70023  0.64306  1.0000
  H   H1330     1.0  0.06283  0.55861  0.50301  1.0000
  H   H1331     1.0  0.14008  0.56233  0.67695  1.0000
  H   H1332     1.0  0.14987  0.92123  0.65855  1.0000
  N   N42       1.0  0.16983  0.75869  0.49794  1.0000
  H   H1333     1.0  0.08374  0.93813  0.49143  1.0000
  H   H1334     1.0  0.08670  0.59784  0.49423  1.0000
  H   H1335     1.0  0.23325  0.57653  0.69541  1.0000
  C   C762      1.0  0.00967  0.54371  0.48179  1.0000
  C   C763      1.0  0.09991  0.91059  0.52737  1.0000
  H   H1336     1.0  0.29179  0.89267  0.63121  1.0000
  C   C764      1.0  0.14043  0.87395  0.66030  1.0000
  C   C765      1.0  0.24916  0.65920  0.48896  1.0000
  H   H1337     1.0  0.19536  0.73916  0.53324  1.0000
  H   H1338     1.0  0.27775  0.50800  0.70096  1.0000
  H   H1339     1.0  0.17839  0.72043  0.49093  1.0000
  C   C766      1.0  0.23402  0.95712  0.66863  1.0000
  C   C767      1.0  0.18662  0.62452  0.67893  1.0000
  H   H1340     1.0  0.11978  0.59968  0.64594  1.0000
  H   H1341     1.0  0.17815  0.91593  0.62771  1.0000
  H   H1342     1.0  0.20216  0.74378  0.70114  1.0000
  H   H1343     1.0  0.24676  0.68523  0.60765  1.0000
  S   S172      1.0  0.17491  0.53573  0.55919  1.0000
  H   H1344     1.0  0.08473  0.99877  0.52267  1.0000
  C   C768      1.0  0.09773  0.53989  0.65703  1.0000
  N   N43       1.0  0.09740  0.96224  0.52369  1.0000
  C   C769      1.0  0.06174  0.57990  0.49808  1.0000
  C   C770      1.0  0.22354  0.66352  0.60996  1.0000
  H   H1345     1.0  0.17009  0.71524  0.65650  1.0000
  H   H1346     1.0  0.25104  0.94084  0.63152  1.0000
  H   H1347     1.0  0.12116  0.86704  0.67278  1.0000
  S   S173      1.0  0.30717  0.91935  0.46957  1.0000
  C   C771      1.0  0.21294  0.66097  0.63447  1.0000
  H   H1348     1.0  0.25902  0.99760  0.70623  1.0000
  H   H1349     1.0  0.15476  0.79846  0.70967  1.0000
  H   H1350     1.0  0.18764  0.96714  0.62928  1.0000
  H   H1351     1.0  0.07717  0.98065  0.48059  1.0000
  S   S174      1.0  0.10645  0.96503  0.61169  1.0000
  C   C772      1.0  0.25552  0.95951  0.58648  1.0000
  H   H1352     1.0  0.25769  0.81688  0.69888  1.0000
  C   C773      1.0  0.14569  0.69485  0.65567  1.0000
  H   H1353     1.0  0.25329  0.64148  0.49757  1.0000
  H   H1354     1.0  0.13255  0.75760  0.47729  1.0000
  H   H1355     1.0  0.05799  0.91493  0.52774  1.0000
  C   C774      1.0  0.18069  0.63055  0.63841  1.0000
  C   C775      1.0  0.06129  0.97034  0.55186  1.0000
  H   H1356     1.0  0.20965  0.75773  0.48303  1.0000
  H   H1357     1.0  0.32208  0.79512  0.69464  1.0000
  H   H1358     1.0  0.15269  0.86057  0.66399  1.0000
  C   C776      1.0  0.08310  0.92941  0.53334  1.0000
  H   H1359     1.0  0.28460  0.86037  0.61281  1.0000
  H   H1360     1.0  0.23841  0.93724  0.67180  1.0000
  C   C777      1.0  0.14577  0.74301  0.51649  1.0000
  C   C778      1.0  0.12850  0.70655  0.51702  1.0000
  C   C779      1.0  0.17094  0.81170  0.50178  1.0000
  C   C780      1.0  0.10010  0.69308  0.53288  1.0000
  H   H1361     1.0  0.21862  0.95602  0.68264  1.0000
  H   H1362     1.0  0.08334  0.88084  0.55735  1.0000
  H   H1363     1.0  0.15673  0.75155  0.53344  1.0000
  H   H1364     1.0  0.12729  0.74985  0.51531  1.0000
  H   H1365     1.0  0.11985  0.69618  0.50009  1.0000
  H   H1366     1.0  0.15170  0.80265  0.51445  1.0000
  H   H1367     1.0  0.15875  0.67053  0.63216  1.0000
  H   H1368     1.0  0.10731  0.70390  0.54988  1.0000
  H   H1369     1.0  0.08147  0.69750  0.52610  1.0000
  H   H1370     1.0  0.09004  0.66733  0.53466  1.0000
  H   H1371     1.0  0.09747  0.51719  0.65686  1.0000
  H   H1372     1.0  0.19106  0.60509  0.67452  1.0000
  H   H1373     1.0  0.12154  0.64625  0.64601  1.0000
  H   H1374     1.0  0.16033  0.98462  0.58141  1.0000
  C   C781      1.0  0.24135  0.95673  0.62803  1.0000
  H   H1375     1.0  0.17940  0.85925  0.50513  1.0000
  H   H1376     1.0  0.21041  0.64598  0.67918  1.0000
  H   H1377     1.0  0.01337  0.52468  0.48858  1.0000
  H   H1378     1.0  0.29845  0.76281  0.62013  1.0000
  H   H1379     1.0  0.33712  0.84797  0.67516  1.0000
  C   C782      1.0  0.32260  0.81557  0.70295  1.0000
  H   H1380     1.0  0.02058  0.97475  0.54203  1.0000
  H   H1381     1.0  0.08064  0.98142  0.56443  1.0000
  H   H1382     1.0  0.01924  0.60097  0.48601  1.0000
  H   H1383     1.0  0.12413  0.98342  0.55419  1.0000
  N   N44       1.0  0.16591  0.62754  0.66131  1.0000
  H   H1384     1.0  0.08208  0.53928  0.67080  1.0000
  C   C783      1.0  0.14635  0.66535  0.64858  1.0000
  C   C784      1.0  0.15240  0.75276  0.47577  1.0000
  H   H1385     1.0  0.15021  0.59917  0.70511  1.0000
  H   H1386     1.0  0.22877  0.77283  0.52111  1.0000
  C   C785      1.0  0.19606  0.98745  0.66293  1.0000
  S   S175      1.0  0.17185  0.52377  0.70882  1.0000
  H   H1387     1.0  0.07365  0.57486  0.54411  1.0000
  C   C786      1.0  0.22779  0.72935  0.51575  1.0000
  C   C787      1.0  0.19166  0.74543  0.49639  1.0000
  H   H1388     1.0  0.18664  0.67668  0.67049  1.0000
  H   H1389     1.0  0.05876  0.86399  0.53252  1.0000
  H   H1390     1.0  0.08149  0.63879  0.48405  1.0000
  H   H1391     1.0  0.09646  0.86576  0.53482  1.0000
  H   H1392     1.0  0.26190  0.98107  0.62813  1.0000
  H   H1393     1.0  0.08004  0.54442  0.47228  1.0000
  H   H1394     1.0  0.15917  0.99105  0.64459  1.0000
  H   H1395     1.0  0.02752  0.57250  0.52491  1.0000
  C   C788      1.0  0.27663  0.99494  0.69611  1.0000
  H   H1396     1.0  0.26057  0.73681  0.63310  1.0000
  H   H1397     1.0  0.08272  0.93020  0.55216  1.0000
  H   H1398     1.0  0.21177  0.68240  0.63817  1.0000
  H   H1399     1.0  0.19901  0.90279  0.64482  1.0000
  H   H1400     1.0  0.28499  0.98612  0.66223  1.0000
  C   C789      1.0  0.16304  0.65595  0.66674  1.0000
  H   H1401     1.0  0.17385  0.64085  0.70960  1.0000
  H   H1402     1.0  0.24403  0.73789  0.50105  1.0000
  H   H1403     1.0  0.16021  0.80974  0.48493  1.0000
  H   H1404     1.0  0.13401  0.69144  0.67231  1.0000
  C   C790      1.0  0.13155  0.56677  0.66074  1.0000
  C   C791      1.0  0.13313  0.59902  0.66105  1.0000
  C   C792      1.0  0.16361  0.90928  0.66192  1.0000
  N   N45       1.0  0.21785  0.95291  0.64607  1.0000
  H   H1405     1.0  0.04419  0.65924  0.48475  1.0000
  C   C793      1.0  0.03470  0.59975  0.47278  1.0000
  C   C794      1.0  0.07422  0.59686  0.53906  1.0000
  H   H1406     1.0  0.26892  0.68301  0.49327  1.0000
  H   H1407     1.0  0.21929  0.79627  0.66635  1.0000
  C   C795      1.0  0.05151  0.59071  0.51944  1.0000
  H   H1408     1.0  0.12974  0.86762  0.64316  1.0000
  C   C796      1.0  0.35497  0.83532  0.71411  1.0000
  H   H1409     1.0  0.49056  0.98360  0.46823  1.0000
  H   H1410     1.0  0.37410  0.84415  0.70132  1.0000
  C   C797      1.0  0.14974  0.64429  0.46738  1.0000
  C   C798      1.0  0.06443  0.63273  0.46995  1.0000
  C   C799      1.0  0.05543  0.65827  0.46874  1.0000
  H   H1411     1.0  0.30496  0.80690  0.71674  1.0000
  C   C800      1.0  0.34451  0.98880  0.74253  1.0000
  C   C801      1.0  0.19169  0.55754  0.84536  1.0000
  H   H1412     1.0  0.20988  0.93689  0.77300  1.0000
  C   C802      1.0  0.29411  0.79269  0.84625  1.0000
  H   H1413     1.0  0.29513  0.00280  0.93843  1.0000
  H   H1414     1.0  0.38996  0.86130  0.78834  1.0000
  H   H1415     1.0  0.31762  0.93229  0.94458  1.0000
  H   H1416     1.0  0.29445  0.75628  0.82681  1.0000
  C   C803      1.0  0.21740  0.55663  0.85954  1.0000
  H   H1417     1.0  0.36130  0.83132  0.76969  1.0000
  H   H1418     1.0  0.35558  0.79633  0.87041  1.0000
  H   H1419     1.0  0.34984  0.93930  0.96304  1.0000
  Fe  Fe89      1.0  0.27952  0.84969  0.81096  1.0000
  S   S176      1.0  0.32095  0.85796  0.78975  1.0000
  S   S177      1.0  0.28632  0.86216  0.84825  1.0000
  S   S178      1.0  0.24595  0.80206  0.79568  1.0000
  S   S179      1.0  0.26355  0.87522  0.78798  1.0000
  Fe  Fe90      1.0  0.19520  0.51710  0.78848  1.0000
  S   S180      1.0  0.24562  0.55218  0.79693  1.0000
  H   H1420     1.0  0.24712  0.75940  0.83312  1.0000
  Fe  Fe91      1.0  0.20305  0.53758  0.73960  1.0000
  S   S181      1.0  0.25438  0.57400  0.74391  1.0000
  H   H1421     1.0  0.29681  0.95426  0.81255  1.0000
  Fe  Fe92      1.0  0.25608  0.53583  0.76443  1.0000
  H   H1422     1.0  0.25471  0.73622  0.79602  1.0000
  Fe  Fe93      1.0  0.23884  0.58698  0.77610  1.0000
  S   S182      1.0  0.24877  0.63339  0.79262  1.0000
  C   C804      1.0  0.06495  0.93611  0.93021  1.0000
  S   S183      1.0  0.18728  0.55245  0.77025  1.0000
  H   H1423     1.0  0.21368  0.56078  0.87735  1.0000
  H   H1424     1.0  0.12264  0.85126  0.78232  1.0000
  H   H1425     1.0  0.14991  0.94116  0.87240  1.0000
  S   S184      1.0  0.33247  0.92874  0.74914  1.0000
  C   C805      1.0  0.25952  0.67121  0.78149  1.0000
  C   C806      1.0  0.27830  0.68342  0.76221  1.0000
  C   C807      1.0  0.28936  0.71487  0.75561  1.0000
  N   N46       1.0  0.16984  0.89167  0.78092  1.0000
  H   H1426     1.0  0.28530  0.66903  0.75288  1.0000
  H   H1427     1.0  0.20373  0.92732  0.71735  1.0000
  H   H1428     1.0  0.32821  0.90230  0.94827  1.0000
  H   H1429     1.0  0.29919  0.80999  0.83256  1.0000
  C   C808      1.0  0.30877  0.77180  0.84096  1.0000
  H   H1430     1.0  0.23986  0.54618  0.90176  1.0000
  C   C809      1.0  0.02454  0.99894  0.90718  1.0000
  C   C810      1.0  0.18969  0.88112  0.79378  1.0000
  H   H1431     1.0  0.35943  0.00105  0.89468  1.0000
  C   C811      1.0  0.18582  0.98805  0.86331  1.0000
  H   H1432     1.0  0.40776  0.83165  0.88842  1.0000
  H   H1433     1.0  0.23771  0.92212  0.71758  1.0000
  H   H1434     1.0  0.19471  0.82965  0.80931  1.0000
  C   C812      1.0  0.27467  0.99813  0.94928  1.0000
  H   H1435     1.0  0.21711  0.86303  0.82779  1.0000
  C   C813      1.0  0.21668  0.52492  0.85667  1.0000
  H   H1436     1.0  0.50355  0.97011  0.94543  1.0000
  C   C814      1.0  0.32615  0.92119  0.95695  1.0000
  C   C815      1.0  0.37011  0.94450  0.84516  1.0000
  C   C816      1.0  0.34269  0.91642  0.83909  1.0000
  C   C817      1.0  0.32077  0.89794  0.85556  1.0000
  C   C818      1.0  0.00916  0.95400  0.88060  1.0000
  H   H1437     1.0  0.34950  0.56491  0.88136  1.0000
  Fe  Fe94      1.0  0.23542  0.82939  0.76992  1.0000
  H   H1438     1.0  0.33861  0.90918  0.82162  1.0000
  C   C819      1.0  0.22115  0.94769  0.90046  1.0000
  C   C820      1.0  0.20878  0.90543  0.74771  1.0000
  N   N47       1.0  0.24460  0.98514  0.93542  1.0000
  H   H1439     1.0  0.27119  0.97822  0.77506  1.0000
  C   C821      1.0  0.21803  0.97815  0.95163  1.0000
  H   H1440     1.0  0.20288  0.52891  0.93408  1.0000
  C   C822      1.0  0.23912  0.95565  0.92344  1.0000
  C   C823      1.0  0.15865  0.90725  0.79754  1.0000
  H   H1441     1.0  0.22844  0.90483  0.75665  1.0000
  H   H1442     1.0  0.33402  0.59122  0.87889  1.0000
  H   H1443     1.0  0.18627  0.98611  0.92930  1.0000
  H   H1444     1.0  0.22232  0.52361  0.83875  1.0000
  H   H1445     1.0  0.14815  0.93517  0.77301  1.0000
  H   H1446     1.0  0.35979  0.99603  0.85136  1.0000
  H   H1447     1.0  0.35603  0.85552  0.72329  1.0000
  H   H1448     1.0  0.03384  0.96322  0.87486  1.0000
  C   C824      1.0  0.40285  0.99965  0.79038  1.0000
  H   H1449     1.0  0.07987  0.95741  0.94051  1.0000
  H   H1450     1.0  0.31013  0.72012  0.82391  1.0000
  H   H1451     1.0  0.09990  0.97312  0.82719  1.0000
  S   S185      1.0  0.40912  0.99218  0.87357  1.0000
  H   H1452     1.0  0.26209  0.95691  0.91977  1.0000
  H   H1453     1.0  0.22635  0.93488  0.93472  1.0000
  H   H1454     1.0  0.27579  0.56875  0.87337  1.0000
  H   H1455     1.0  0.23672  0.68150  0.80851  1.0000
  H   H1456     1.0  0.34953  0.97862  0.81415  1.0000
  C   C825      1.0  0.34829  0.80769  0.81362  1.0000
  H   H1457     1.0  0.24779  0.95666  0.81924  1.0000
  H   H1458     1.0  0.19851  0.94746  0.90160  1.0000
  C   C826      1.0  0.38269  0.83832  0.78020  1.0000
  H   H1459     1.0  0.12253  0.88761  0.74969  1.0000
  C   C827      1.0  0.14232  0.86327  0.77001  1.0000
  H   H1460     1.0  0.43889  0.86234  0.87195  1.0000
  H   H1461     1.0  0.14412  0.89056  0.81102  1.0000
  C   C828      1.0  0.13770  0.92005  0.78803  1.0000
  H   H1462     1.0  0.30423  0.75605  0.85575  1.0000
  C   C829      1.0  0.15916  0.96600  0.87514  1.0000
  H   H1463     1.0  0.32748  0.74599  0.80028  1.0000
  C   C830      1.0  0.22291  0.92835  0.72804  1.0000
  H   H1464     1.0  0.12273  0.92652  0.82138  1.0000
  H   H1465     1.0  0.16789  0.53821  0.85027  1.0000
  H   H1466     1.0  0.29735  0.51941  0.87322  1.0000
  H   H1467     1.0  0.17178  0.87273  0.82859  1.0000
  H   H1468     1.0  0.11398  0.90011  0.78362  1.0000
  H   H1469     1.0  0.14545  0.87558  0.73381  1.0000
  H   H1470     1.0  0.23544  0.96522  0.88740  1.0000
  H   H1471     1.0  0.19545  0.55535  0.82713  1.0000
  H   H1472     1.0  0.27684  0.54905  0.84893  1.0000
  H   H1473     1.0  0.20199  0.91112  0.87499  1.0000
  H   H1474     1.0  0.04721  0.91721  0.94121  1.0000
  H   H1475     1.0  0.08940  0.84317  0.72458  1.0000
  H   H1476     1.0  0.02489  0.97080  0.83502  1.0000
  C   C831      1.0  0.25116  0.69061  0.79356  1.0000
  C   C832      1.0  0.21420  0.91569  0.89160  1.0000
  H   H1477     1.0  0.37832  0.77506  0.82719  1.0000
  H   H1478     1.0  0.30475  0.72432  0.74113  1.0000
  C   C833      1.0  0.28123  0.73433  0.76782  1.0000
  H   H1479     1.0  0.14962  0.83982  0.80982  1.0000
  C   C834      1.0  0.02283  0.95018  0.92062  1.0000
  S   S186      1.0  0.20371  0.97555  0.84369  1.0000
  C   C835      1.0  0.25974  0.95142  0.83318  1.0000
  H   H1480     1.0  0.17540  0.94532  0.93274  1.0000
  S   S187      1.0  0.29842  0.77470  0.76009  1.0000
  C   C836      1.0  0.41284  0.84803  0.87405  1.0000
  H   H1481     1.0  0.19257  0.58031  0.84792  1.0000
  H   H1482     1.0  0.23653  0.91528  0.88921  1.0000
  H   H1483     1.0  0.21194  0.90181  0.80003  1.0000
  H   H1484     1.0  0.29587  0.54055  0.89748  1.0000
  H   H1485     1.0  0.30340  0.80555  0.86240  1.0000
  H   H1486     1.0  0.35116  0.83100  0.81793  1.0000
  H   H1487     1.0  0.10363  0.81955  0.73775  1.0000
  C   C837      1.0  0.35375  0.93658  0.88418  1.0000
  H   H1488     1.0  0.14906  0.84538  0.76556  1.0000
  H   H1489     1.0  0.40378  0.86417  0.87801  1.0000
  H   H1490     1.0  0.08042  0.92786  0.92301  1.0000
  C   C838      1.0  0.33292  0.73711  0.81586  1.0000
  H   H1491     1.0  0.19283  0.88168  0.74091  1.0000
  Fe  Fe95      1.0  0.42664  0.99322  0.95700  1.0000
  H   H1492     1.0  0.15543  0.96157  0.80931  1.0000
  C   C839      1.0  0.14392  0.97614  0.89004  1.0000
  C   C840      1.0  0.35330  0.76436  0.83247  1.0000
  H   H1493     1.0  0.07978  0.83147  0.75366  1.0000
  H   H1494     1.0  0.38709  0.95840  0.83236  1.0000
  S   S188      1.0  0.22333  0.99794  0.78057  1.0000
  C   C841      1.0  0.19294  0.84451  0.82269  1.0000
  H   H1495     1.0  0.08439  0.51607  0.76880  1.0000
  C   C842      1.0  0.16156  0.96429  0.95974  1.0000
  C   C843      1.0  0.31142  0.00185  0.82476  1.0000
  Fe  Fe96      1.0  0.28672  0.81162  0.77313  1.0000
  H   H1496     1.0  0.30588  0.95942  0.84217  1.0000
  C   C844      1.0  0.25822  0.77274  0.84885  1.0000
  H   H1497     1.0  0.10973  0.51233  0.87315  1.0000
  S   S189      1.0  0.18961  0.81679  0.75220  1.0000
  S   S190      1.0  0.27442  0.83648  0.74668  1.0000
  H   H1498     1.0  0.12314  0.95913  0.89900  1.0000
  S   S191      1.0  0.38907  0.99675  0.93776  1.0000
  C   C845      1.0  0.19919  0.83245  0.72468  1.0000
  C   C846      1.0  0.04878  0.94391  0.91116  1.0000
  H   H1499     1.0  0.35775  0.94435  0.90155  1.0000
  H   H1500     1.0  0.35893  0.82063  0.72648  1.0000
  H   H1501     1.0  0.13848  0.95813  0.95187  1.0000
  H   H1502     1.0  0.19861  0.89672  0.90345  1.0000
  C   C847      1.0  0.32349  0.95940  0.75180  1.0000
  C   C848      1.0  0.32644  0.90810  0.87816  1.0000
  H   H1503     1.0  0.19729  0.86824  0.78232  1.0000
  N   N48       1.0  0.34351  0.78885  0.83493  1.0000
  C   C849      1.0  0.35855  0.00359  0.80947  1.0000
  H   H1504     1.0  0.25641  0.96097  0.84924  1.0000
  C   C850      1.0  0.29489  0.96566  0.82816  1.0000
  C   C851      1.0  0.36135  0.81022  0.85447  1.0000
  C   C852      1.0  0.37571  0.95493  0.86761  1.0000
  H   H1505     1.0  0.21395  0.95868  0.96324  1.0000
  H   H1506     1.0  0.24048  0.57641  0.85387  1.0000
  C   C853      1.0  0.12842  0.86879  0.74793  1.0000
  H   H1507     1.0  0.17821  0.92456  0.75367  1.0000
  C   C854      1.0  0.09846  0.83885  0.74062  1.0000
  H   H1508     1.0  0.18717  0.61212  0.73723  1.0000
  H   H1509     1.0  0.18121  0.82941  0.83757  1.0000
  H   H1510     1.0  0.17944  0.92693  0.80626  1.0000
  H   H1511     1.0  0.28032  0.93329  0.77044  1.0000
  Fe  Fe97      1.0  0.30304  0.88135  0.76595  1.0000
  H   H1512     1.0  0.26725  0.95311  0.96290  1.0000
  H   H1513     1.0  0.11612  0.94707  0.79860  1.0000
  C   C855      1.0  0.26146  0.72175  0.78658  1.0000
  C   C856      1.0  0.13271  0.93991  0.80552  1.0000
  C   C857      1.0  0.17363  0.85918  0.81428  1.0000
  H   H1514     1.0  0.24862  0.92554  0.83492  1.0000
  H   H1515     1.0  0.30963  0.89395  0.89102  1.0000
  C   C858      1.0  0.29675  0.95568  0.76328  1.0000
  H   H1516     1.0  0.06738  0.96414  0.90173  1.0000
  H   H1517     1.0  0.35229  0.75336  0.84915  1.0000
  C   C859      1.0  0.27215  0.54572  0.86741  1.0000
  C   C860      1.0  0.19120  0.91591  0.76402  1.0000
  H   H1518     1.0  0.24500  0.87045  0.73446  1.0000
  H   H1519     1.0  0.39421  0.51442  0.81861  1.0000
  H   H1520     1.0  0.03265  0.96528  0.93589  1.0000
  C   C861      1.0  0.39778  0.82982  0.85230  1.0000
  C   C862      1.0  0.23126  0.52149  0.89646  1.0000
  C   C863      1.0  0.18519  0.96832  0.94131  1.0000
  C   C864      1.0  0.29158  0.98130  0.76589  1.0000
  H   H1521     1.0  0.25208  0.75599  0.86310  1.0000
  H   H1522     1.0  0.24832  0.78828  0.85236  1.0000
  H   H1523     1.0  0.35391  0.82796  0.85705  1.0000
  H   H1524     1.0  0.35491  0.70925  0.82430  1.0000
  H   H1525     1.0  0.36407  0.52531  0.81708  1.0000
  C   C865      1.0  0.34938  0.71895  0.80913  1.0000
  C   C866      1.0  0.11173  0.99464  0.83774  1.0000
  H   H1526     1.0  0.32676  0.79625  0.80278  1.0000
  H   H1527     1.0  0.36512  0.99202  0.73348  1.0000
  H   H1528     1.0  0.23805  0.95267  0.73441  1.0000
  H   H1529     1.0  0.22484  0.99902  0.96261  1.0000
  H   H1530     1.0  0.37150  0.73439  0.79976  1.0000
  C   C867      1.0  0.33120  0.56854  0.87298  1.0000
  H   H1531     1.0  0.33346  0.69906  0.79793  1.0000
  N   N49       1.0  0.23862  0.52008  0.87189  1.0000
  S   S192      1.0  0.29516  0.52398  0.76132  1.0000
  H   H1532     1.0  0.39838  0.82081  0.80742  1.0000
  H   H1533     1.0  0.40829  0.81487  0.84887  1.0000
  H   H1534     1.0  0.37035  0.79133  0.78888  1.0000
  H   H1535     1.0  0.33508  0.56969  0.85444  1.0000
  H   H1536     1.0  0.40205  0.84116  0.76893  1.0000
  C   C868      1.0  0.37615  0.81326  0.79800  1.0000
  H   H1537     1.0  0.40433  0.84748  0.83865  1.0000
  H   H1538     1.0  0.03784  0.92346  0.89950  1.0000
  H   H1539     1.0  0.39059  0.97424  0.79458  1.0000
  H   H1540     1.0  0.09810  0.99020  0.85362  1.0000
  H   H1541     1.0  0.22761  0.00239  0.90802  1.0000
  C   C869      1.0  0.29834  0.54137  0.87884  1.0000
  C   C870      1.0  0.22894  0.85858  0.72061  1.0000
  C   C871      1.0  0.50534  0.97819  0.96315  1.0000
  H   H1542     1.0  0.11658  0.51165  0.75851  1.0000
  H   H1543     1.0  0.13595  0.99949  0.84186  1.0000
  H   H1544     1.0  0.18154  0.51048  0.89467  1.0000
  H   H1545     1.0  0.24440  0.51339  0.90735  1.0000
  H   H1546     1.0  0.31663  0.99687  0.87060  1.0000
  H   H1547     1.0  0.19192  0.50533  0.85856  1.0000
  C   C872      1.0  0.19599  0.61472  0.71965  1.0000
  H   H1548     1.0  0.22051  0.63505  0.71912  1.0000
  H   H1549     1.0  0.34902  0.00314  0.79232  1.0000
  C   C873      1.0  0.36893  0.50575  0.81463  1.0000
  H   H1550     1.0  0.33951  0.50548  0.75113  1.0000
  H   H1551     1.0  0.39567  0.00232  0.77308  1.0000
  C   C874      1.0  0.19188  0.50401  0.92862  1.0000
  Fe  Fe98      1.0  0.80214  0.27154  0.06473  1.0000
  S   S193      1.0  0.79584  0.22301  0.06347  1.0000
  S   S194      1.0  0.80895  0.30232  0.03510  1.0000
  Fe  Fe99      1.0  0.78643  0.26787  0.11377  1.0000
  S   S195      1.0  0.77850  0.21916  0.11701  1.0000
  S   S196      1.0  0.78059  0.29398  0.14238  1.0000
  Fe  Fe100     1.0  0.82279  0.23688  0.09649  1.0000
  S   S197      1.0  0.85745  0.22458  0.11265  1.0000
  Fe  Fe101     1.0  0.75240  0.21004  0.08419  1.0000
  S   S198      1.0  0.70569  0.16562  0.07806  1.0000
  S   S199      1.0  0.83259  0.28668  0.09581  1.0000
  S   S200      1.0  0.75693  0.25743  0.08278  1.0000
  C   C875      1.0  0.71918  0.33431  0.15422  1.0000
  C   C876      1.0  0.87039  0.27339  0.97745  1.0000
  H   H1552     1.0  0.98998  0.34164  0.01065  1.0000
  H   H1553     1.0  0.62038  0.01981  0.05847  1.0000
  S   S201      1.0  0.94552  0.36914  0.99469  1.0000
  Fe  Fe102     1.0  0.56628  0.20225  0.09047  1.0000
  S   S202      1.0  0.60144  0.24939  0.10452  1.0000
  S   S203      1.0  0.57362  0.16080  0.08637  1.0000
  Fe  Fe103     1.0  0.55985  0.24552  0.12344  1.0000
  S   S204      1.0  0.56360  0.25664  0.16072  1.0000
  Fe  Fe104     1.0  0.58477  0.26820  0.07635  1.0000
  S   S205      1.0  0.61574  0.31177  0.05635  1.0000
  H   H1554     1.0  0.53419  0.06827  0.02710  1.0000
  S   S206      1.0  0.55314  0.22137  0.06059  1.0000
  H   H1555     1.0  0.81482  0.39968  0.04595  1.0000
  H   H1556     1.0  0.99281  0.14810  0.00674  1.0000
  H   H1557     1.0  0.68650  0.34643  0.18187  1.0000
  C   C877      1.0  0.55930  0.36135  0.10114  1.0000
  H   H1558     1.0  0.69509  0.07581  0.11384  1.0000
  H   H1559     1.0  0.72025  0.10274  0.02082  1.0000
  H   H1560     1.0  0.65881  0.35421  0.15015  1.0000
  H   H1561     1.0  0.64663  0.21755  0.13711  1.0000
  C   C878      1.0  0.59644  0.16181  0.02356  1.0000
  C   C879      1.0  0.77576  0.35662  0.16743  1.0000
  H   H1562     1.0  0.95209  0.13046  0.06786  1.0000
  C   C880      1.0  0.58146  0.29626  0.16897  1.0000
  C   C881      1.0  0.58679  0.31980  0.15342  1.0000
  C   C882      1.0  0.60157  0.35135  0.16040  1.0000
  C   C883      1.0  0.59027  0.30429  0.19161  1.0000
  H   H1563     1.0  0.57954  0.31370  0.13605  1.0000
  C   C884      1.0  0.66722  0.31680  0.13743  1.0000
  C   C885      1.0  0.61479  0.30675  0.02692  1.0000
  C   C886      1.0  0.61544  0.28112  0.01725  1.0000
  C   C887      1.0  0.61842  0.27976  0.99369  1.0000
  C   C888      1.0  0.53723  0.33419  0.08571  1.0000
  H   H1564     1.0  0.72696  0.33013  0.13758  1.0000
  C   C889      1.0  0.61524  0.32990  0.01293  1.0000
  H   H1565     1.0  0.61502  0.26310  0.02798  1.0000
  H   H1566     1.0  0.62033  0.26069  0.98631  1.0000
  C   C890      1.0  0.86964  0.29223  0.16304  1.0000
  H   H1567     1.0  0.67653  0.31338  0.12127  1.0000
  H   H1568     1.0  0.95313  0.21649  0.11294  1.0000
  S   S207      1.0  0.89359  0.05385  0.97320  1.0000
  H   H1569     1.0  0.67198  0.09540  0.18550  1.0000
  C   C891      1.0  0.72939  0.07616  0.04551  1.0000
  H   H1570     1.0  0.86286  0.29580  0.14588  1.0000
  C   C892      1.0  0.98183  0.01876  0.05354  1.0000
  H   H1571     1.0  0.62686  0.33066  0.11406  1.0000
  C   C893      1.0  0.94422  0.14131  0.08083  1.0000
  C   C894      1.0  0.67554  0.27840  0.15772  1.0000
  H   H1572     1.0  0.77580  0.11863  0.04584  1.0000
  C   C895      1.0  0.93417  0.34727  0.16648  1.0000
  H   H1573     1.0  0.72473  0.35911  0.15379  1.0000
  H   H1574     1.0  0.83295  0.24719  0.00118  1.0000
  H   H1575     1.0  0.96667  0.30520  0.04373  1.0000
  H   H1576     1.0  0.91298  0.29845  0.11999  1.0000
  H   H1577     1.0  0.76679  0.38575  0.01134  1.0000
  H   H1578     1.0  0.69406  0.36862  0.13362  1.0000
  H   H1579     1.0  0.95886  0.37008  0.12008  1.0000
  C   C896      1.0  0.71212  0.09394  0.03823  1.0000
  C   C897      1.0  0.76281  0.26735  0.16445  1.0000
  S   S208      1.0  0.52529  0.19669  0.11126  1.0000
  H   H1580     1.0  0.73627  0.14385  0.20537  1.0000
  H   H1581     1.0  0.72823  0.07296  0.06413  1.0000
  C   C898      1.0  0.55251  0.08502  0.01534  1.0000
  C   C899      1.0  0.74167  0.23568  0.15983  1.0000
  C   C900      1.0  0.70468  0.33034  0.04354  1.0000
  H   H1582     1.0  0.67936  0.22505  0.15546  1.0000
  H   H1583     1.0  0.65942  0.15000  0.02417  1.0000
  H   H1584     1.0  0.73435  0.22805  0.14266  1.0000
  C   C901      1.0  0.89116  0.22738  0.09959  1.0000
  C   C902      1.0  0.89848  0.23602  0.07695  1.0000
  H   H1585     1.0  0.61707  0.20870  0.03818  1.0000
  C   C903      1.0  0.81100  0.38050  0.03421  1.0000
  H   H1586     1.0  0.82244  0.19974  0.98546  1.0000
  H   H1587     1.0  0.52782  0.13849  0.04945  1.0000
  H   H1588     1.0  0.88329  0.24140  0.06687  1.0000
  C   C904      1.0  0.98636  0.28516  0.14615  1.0000
  H   H1589     1.0  0.71930  0.22505  0.98477  1.0000
  H   H1590     1.0  0.90508  0.28540  0.18012  1.0000
  C   C905      1.0  0.66983  0.16596  0.08125  1.0000
  C   C906      1.0  0.64150  0.13717  0.08222  1.0000
  C   C907      1.0  0.61246  0.13620  0.08408  1.0000
  C   C908      1.0  0.61124  0.16399  0.08516  1.0000
  C   C909      1.0  0.63948  0.19296  0.08428  1.0000
  C   C910      1.0  0.66875  0.19389  0.08227  1.0000
  H   H1591     1.0  0.64194  0.11543  0.08186  1.0000
  H   H1592     1.0  0.59078  0.11374  0.08480  1.0000
  H   H1593     1.0  0.63871  0.21451  0.08499  1.0000
  H   H1594     1.0  0.69041  0.21613  0.08146  1.0000
  C   C911      1.0  0.84843  0.32391  0.02669  1.0000
  C   C912      1.0  0.87118  0.31741  0.03549  1.0000
  C   C913      1.0  0.90199  0.33286  0.02669  1.0000
  C   C914      1.0  0.90975  0.35461  0.00913  1.0000
  C   C915      1.0  0.88747  0.36231  0.00140  1.0000
  C   C916      1.0  0.85672  0.34666  0.00990  1.0000
  H   H1595     1.0  0.86475  0.29969  0.04841  1.0000
  H   H1596     1.0  0.91923  0.32686  0.03267  1.0000
  H   H1597     1.0  0.89382  0.38002  0.98850  1.0000
  H   H1598     1.0  0.83921  0.35174  0.00307  1.0000
  H   H1599     1.0  0.61420  0.34947  0.02029  1.0000
  C   C917      1.0  0.62056  0.30391  0.97982  1.0000
  N   N50       1.0  0.77841  0.22242  0.97591  1.0000
  H   H1600     1.0  0.64783  0.31515  0.17652  1.0000
  N   N51       1.0  0.72094  0.34828  0.02231  1.0000
  H   H1601     1.0  0.70286  0.13819  0.01762  1.0000
  H   H1602     1.0  0.76917  0.34477  0.04991  1.0000
  H   H1603     1.0  0.59317  0.15085  0.04034  1.0000
  H   H1604     1.0  0.77345  0.33756  0.02046  1.0000
  H   H1605     1.0  0.72655  0.20147  0.00459  1.0000
  N   N52       1.0  0.68417  0.31252  0.15736  1.0000
  H   H1606     1.0  0.77636  0.08232  0.04654  1.0000
  H   H1607     1.0  0.76698  0.09458  0.02056  1.0000
  C   C918      1.0  0.73391  0.13187  0.18902  1.0000
  H   H1608     1.0  0.71148  0.27820  0.13559  1.0000
  H   H1609     1.0  0.77988  0.20161  0.00795  1.0000
  Fe  Fe105     1.0  0.51515  0.22037  0.08255  1.0000
  H   H1610     1.0  0.72564  0.40259  0.04370  1.0000
  C   C919      1.0  0.65169  0.35036  0.11417  1.0000
  H   H1611     1.0  0.60601  0.36959  0.14830  1.0000
  H   H1612     1.0  0.70085  0.05384  0.17373  1.0000
  H   H1613     1.0  0.64944  0.26321  0.15991  1.0000
  C   C920      1.0  0.67281  0.23089  0.13893  1.0000
  C   C921      1.0  0.77594  0.35549  0.03289  1.0000
  H   H1614     1.0  0.67757  0.10617  0.99931  1.0000
  C   C922      1.0  0.70377  0.06922  0.12903  1.0000
  H   H1615     1.0  0.84977  0.20659  0.18726  1.0000
  H   H1616     1.0  0.90463  0.32836  0.12671  1.0000
  C   C923      1.0  0.53130  0.27339  0.03013  1.0000
  H   H1617     1.0  0.71598  0.11268  0.14548  1.0000
  H   H1618     1.0  0.87457  0.08953  0.01160  1.0000
  C   C924      1.0  0.61753  0.32817  0.98946  1.0000
  H   H1619     1.0  0.68643  0.27328  0.17236  1.0000
  H   H1620     1.0  0.68314  0.22330  0.12540  1.0000
  C   C925      1.0  0.66929  0.34926  0.13527  1.0000
  C   C926      1.0  0.67795  0.11961  0.01444  1.0000
  H   H1621     1.0  0.66355  0.34883  0.09865  1.0000
  H   H1622     1.0  0.55224  0.32758  0.07587  1.0000
  H   H1623     1.0  0.67936  0.32403  0.04338  1.0000
  C   C927      1.0  0.67270  0.32062  0.17868  1.0000
  C   C928      1.0  0.73074  0.24371  0.01824  1.0000
  C   C929      1.0  0.71512  0.32567  0.00323  1.0000
  H   H1624     1.0  0.64158  0.29867  0.13796  1.0000
  C   C930      1.0  0.70318  0.29844  0.04771  1.0000
  C   C931      1.0  0.69192  0.28661  0.07165  1.0000
  H   H1625     1.0  0.68915  0.30967  0.00098  1.0000
  H   H1626     1.0  0.72492  0.31022  0.00720  1.0000
  H   H1627     1.0  0.70532  0.23273  0.02268  1.0000
  C   C932      1.0  0.91089  0.22017  0.11242  1.0000
  H   H1628     1.0  0.68600  0.28047  0.03580  1.0000
  H   H1629     1.0  0.67559  0.26960  0.12094  1.0000
  H   H1630     1.0  0.66814  0.28370  0.07459  1.0000
  H   H1631     1.0  0.69037  0.26355  0.07403  1.0000
  H   H1632     1.0  0.70891  0.30323  0.08429  1.0000
  H   H1633     1.0  0.65145  0.37281  0.11376  1.0000
  H   H1634     1.0  0.66868  0.39595  0.01689  1.0000
  H   H1635     1.0  0.57146  0.16886  0.99713  1.0000
  H   H1636     1.0  0.52006  0.25444  0.19640  1.0000
  H   H1637     1.0  0.68872  0.04348  0.13173  1.0000
  C   C933      1.0  0.76982  0.24207  0.99067  1.0000
  H   H1638     1.0  0.73905  0.08337  0.16633  1.0000
  H   H1639     1.0  0.84676  0.25719  0.18958  1.0000
  H   H1640     1.0  0.54664  0.32145  0.03865  1.0000
  C   C934      1.0  0.73488  0.22582  0.99876  1.0000
  C   C935      1.0  0.76032  0.25533  0.20424  1.0000
  C   C936      1.0  0.63151  0.03911  0.01060  1.0000
  C   C937      1.0  0.79113  0.15481  0.99933  1.0000
  H   H1641     1.0  0.88766  0.28631  0.99114  1.0000
  N   N53       1.0  0.53607  0.12816  0.01549  1.0000
  C   C938      1.0  0.51829  0.34380  0.06966  1.0000
  C   C939      1.0  0.83683  0.26177  0.98591  1.0000
  H   H1642     1.0  0.83533  0.28267  0.99102  1.0000
  H   H1643     1.0  0.61291  0.03086  0.02364  1.0000
  H   H1644     1.0  0.64082  0.16835  0.20079  1.0000
  H   H1645     1.0  0.78481  0.24960  0.00614  1.0000
  H   H1646     1.0  0.56200  0.17747  0.02422  1.0000
  H   H1647     1.0  0.78754  0.30187  0.19035  1.0000
  H   H1648     1.0  0.80931  0.12149  0.10943  1.0000
  C   C940      1.0  0.66460  0.04977  0.02109  1.0000
  H   H1649     1.0  0.96070  0.31148  0.17491  1.0000
  C   C941      1.0  0.62674  0.03420  0.09308  1.0000
  C   C942      1.0  0.62327  0.19587  0.02567  1.0000
  H   H1650     1.0  0.53153  0.17129  0.98151  1.0000
  H   H1651     1.0  0.75048  0.03648  0.98312  1.0000
  H   H1652     1.0  0.52624  0.13514  0.96997  1.0000
  H   H1653     1.0  0.72849  0.07495  0.12588  1.0000
  H   H1654     1.0  0.98385  0.26347  0.13849  1.0000
  H   H1655     1.0  0.56736  0.05088  0.00922  1.0000
  H   H1656     1.0  0.90299  0.18448  0.98465  1.0000
  H   H1657     1.0  0.72621  0.29972  0.04529  1.0000
  C   C943      1.0  0.74850  0.01431  0.03792  1.0000
  H   H1658     1.0  0.86058  0.19170  0.16320  1.0000
  H   H1659     1.0  0.73974  0.26862  0.01352  1.0000
  H   H1660     1.0  0.57393  0.10018  0.02542  1.0000
  H   H1661     1.0  0.82799  0.03441  0.97247  1.0000
  H   H1662     1.0  0.98233  0.36752  0.18052  1.0000
  H   H1663     1.0  0.71991  0.13896  0.17813  1.0000
  N   N54       1.0  0.87232  0.13150  0.04506  1.0000
  C   C944      1.0  0.85498  0.09606  0.04337  1.0000
  C   C945      1.0  0.85421  0.14218  0.05979  1.0000
  C   C946      1.0  0.87383  0.14406  0.02146  1.0000
  C   C947      1.0  0.90580  0.14471  0.05355  1.0000
  C   C948      1.0  0.90984  0.13249  0.07672  1.0000
  C   C949      1.0  0.73033  0.21370  0.17741  1.0000
  C   C950      1.0  0.88695  0.18003  0.01949  1.0000
  C   C951      1.0  0.83622  0.12133  0.08042  1.0000
  C   C952      1.0  0.82380  0.13769  0.09571  1.0000
  H   H1664     1.0  0.74876  0.05931  0.19605  1.0000
  C   C953      1.0  0.56058  0.06579  0.99934  1.0000
  C   C954      1.0  0.75577  0.37043  0.02633  1.0000
  H   H1665     1.0  0.83097  0.08741  0.03601  1.0000
  H   H1666     1.0  0.85048  0.08481  0.06022  1.0000
  H   H1667     1.0  0.87027  0.16652  0.06606  1.0000
  H   H1668     1.0  0.83566  0.14356  0.04968  1.0000
  H   H1669     1.0  0.84985  0.13195  0.01348  1.0000
  H   H1670     1.0  0.88900  0.13892  0.01038  1.0000
  H   H1671     1.0  0.92037  0.14109  0.04083  1.0000
  H   H1672     1.0  0.91755  0.17063  0.05543  1.0000
  H   H1673     1.0  0.87228  0.31164  0.17404  1.0000
  H   H1674     1.0  0.90324  0.14351  0.09039  1.0000
  H   H1675     1.0  0.78430  0.14806  0.19289  1.0000
  H   H1676     1.0  0.89473  0.26899  0.15248  1.0000
  H   H1677     1.0  0.91166  0.19349  0.02575  1.0000
  H   H1678     1.0  0.87240  0.18739  0.02920  1.0000
  H   H1679     1.0  0.81552  0.09898  0.07461  1.0000
  H   H1680     1.0  0.85118  0.11524  0.09082  1.0000
  H   H1681     1.0  0.53623  0.36175  0.05810  1.0000
  H   H1682     1.0  0.57592  0.38216  0.09102  1.0000
  C   C955      1.0  0.54265  0.36713  0.19609  1.0000
  H   H1683     1.0  0.54550  0.36787  0.11253  1.0000
  C   C956      1.0  0.70643  0.36801  0.01564  1.0000
  H   H1684     1.0  0.82258  0.41432  0.97977  1.0000
  C   C957      1.0  0.74081  0.02487  0.99899  1.0000
  H   H1685     1.0  0.71538  0.34556  0.05866  1.0000
  C   C958      1.0  0.92540  0.23732  0.06728  1.0000
  H   H1686     1.0  0.63451  0.11874  0.00469  1.0000
  C   C959      1.0  0.76098  0.02964  0.01737  1.0000
  H   H1687     1.0  0.63843  0.08577  0.03465  1.0000
  C   C960      1.0  0.95157  0.34592  0.11442  1.0000
  H   H1688     1.0  0.58615  0.28614  0.20371  1.0000
  H   H1689     1.0  0.67020  0.15239  0.99481  1.0000
  H   H1690     1.0  0.68519  0.37229  0.04741  1.0000
  H   H1691     1.0  0.78613  0.04510  0.01553  1.0000
  H   H1692     1.0  0.51743  0.08648  0.99424  1.0000
  H   H1693     1.0  0.54896  0.27929  0.01654  1.0000
  N   N55       1.0  0.67637  0.07521  0.03897  1.0000
  C   C961      1.0  0.88716  0.18965  0.99489  1.0000
  H   H1694     1.0  0.71823  0.35457  0.97375  1.0000
  H   H1695     1.0  0.63358  0.09702  0.21285  1.0000
  H   H1696     1.0  0.80242  0.18913  0.16262  1.0000
  H   H1697     1.0  0.64506  0.19631  0.03164  1.0000
  S   S209      1.0  0.77366  0.01901  0.06077  1.0000
  H   H1698     1.0  0.61933  0.05553  0.06393  1.0000
  H   H1699     1.0  0.89536  0.10662  0.07812  1.0000
  C   C962      1.0  0.76782  0.14679  0.17945  1.0000
  H   H1700     1.0  0.70948  0.42654  0.01321  1.0000
  H   H1701     1.0  0.67586  0.04450  0.06555  1.0000
  H   H1702     1.0  0.72065  0.38490  0.00210  1.0000
  C   C963      1.0  0.99069  0.31566  0.05129  1.0000
  H   H1703     1.0  0.89515  0.08867  0.03665  1.0000
  H   H1704     1.0  0.54103  0.26973  0.04600  1.0000
  H   H1705     1.0  0.95996  0.16719  0.08046  1.0000
  H   H1706     1.0  0.78252  0.19591  0.18577  1.0000
  C   C964      1.0  0.87158  0.08184  0.02944  1.0000
  C   C965      1.0  0.74105  0.33332  0.17267  1.0000
  C   C966      1.0  0.68532  0.26618  0.13690  1.0000
  H   H1707     1.0  0.66438  0.02849  0.02783  1.0000
  C   C967      1.0  0.77523  0.19509  0.98974  1.0000
  C   C968      1.0  0.96860  0.37490  0.16965  1.0000
  H   H1708     1.0  0.60423  0.14978  0.01154  1.0000
  C   C969      1.0  0.61103  0.35947  0.18294  1.0000
  H   H1709     1.0  0.86559  0.03653  0.02052  1.0000
  C   C970      1.0  0.56575  0.16004  0.01475  1.0000
  H   H1710     1.0  0.94969  0.28486  0.12620  1.0000
  S   S210      1.0  0.98227  0.07452  0.98206  1.0000
  H   H1711     1.0  0.90504  0.21292  0.12981  1.0000
  H   H1712     1.0  0.89592  0.21527  0.99395  1.0000
  C   C971      1.0  0.51940  0.30891  0.20363  1.0000
  H   H1713     1.0  0.72129  0.11521  0.04920  1.0000
  C   C972      1.0  0.92317  0.32172  0.12856  1.0000
  H   H1714     1.0  0.80882  0.14472  0.08602  1.0000
  C   C973      1.0  0.69196  0.40964  0.02542  1.0000
  C   C974      1.0  0.90045  0.29031  0.16253  1.0000
  C   C975      1.0  0.93821  0.22231  0.10294  1.0000
  H   H1715     1.0  0.74378  0.24286  0.03336  1.0000
  H   H1716     1.0  0.96287  0.36163  0.07961  1.0000
  H   H1717     1.0  0.68942  0.42315  0.03943  1.0000
  H   H1718     1.0  0.79117  0.35400  0.18003  1.0000
  H   H1719     1.0  0.75933  0.38700  0.04022  1.0000
  C   C976      1.0  0.60496  0.33581  0.19859  1.0000
  H   H1720     1.0  0.75488  0.35583  0.98082  1.0000
  C   C977      1.0  0.76432  0.09428  0.03917  1.0000
  H   H1721     1.0  0.68237  0.35283  0.00838  1.0000
  H   H1722     1.0  0.71479  0.18907  0.17371  1.0000
  S   S211      1.0  0.63029  0.39922  0.19115  1.0000
  H   H1723     1.0  0.63703  0.05591  0.10347  1.0000
  H   H1724     1.0  0.84382  0.15885  0.10352  1.0000
  C   C978      1.0  0.70297  0.38774  0.03478  1.0000
  H   H1725     1.0  0.84750  0.03675  0.04698  1.0000
  H   H1726     1.0  0.93229  0.14357  0.20700  1.0000
  H   H1727     1.0  0.55813  0.37241  0.21118  1.0000
  H   H1728     1.0  0.82481  0.36979  0.04061  1.0000
  H   H1729     1.0  0.75038  0.17518  0.98909  1.0000
  C   C979      1.0  0.52745  0.11884  0.03985  1.0000
  C   C980      1.0  0.70216  0.08725  0.14951  1.0000
  C   C981      1.0  0.94250  0.34359  0.08944  1.0000
  H   H1730     1.0  0.93077  0.24358  0.04968  1.0000
  H   H1731     1.0  0.79729  0.16336  0.01699  1.0000
  H   H1732     1.0  0.86298  0.17692  0.98753  1.0000
  H   H1733     1.0  0.91984  0.35691  0.15902  1.0000
  H   H1734     1.0  0.97201  0.34208  0.11555  1.0000
  H   H1735     1.0  0.63143  0.05863  0.00126  1.0000
  H   H1736     1.0  0.82006  0.39053  0.01724  1.0000
  H   H1737     1.0  0.99365  0.28627  0.16406  1.0000
  H   H1738     1.0  0.71844  0.05282  0.03735  1.0000
  S   S212      1.0  0.54637  0.26871  0.09656  1.0000
  H   H1739     1.0  0.98362  0.03857  0.06273  1.0000
  H   H1740     1.0  0.82948  0.03778  0.02048  1.0000
  C   C982      1.0  0.77126  0.27737  0.18673  1.0000
  H   H1741     1.0  0.55578  0.36703  0.18088  1.0000
  C   C983      1.0  0.77946  0.18025  0.17132  1.0000
  C   C984      1.0  0.85225  0.04601  0.02945  1.0000
  N   N56       1.0  0.92940  0.31885  0.15322  1.0000
  H   H1742     1.0  0.66768  0.06052  0.19770  1.0000
  C   C985      1.0  0.94559  0.23090  0.08033  1.0000
  H   H1743     1.0  0.82024  0.26358  0.17210  1.0000
  H   H1744     1.0  0.73617  0.34052  0.18918  1.0000
  H   H1745     1.0  0.70707  0.00996  0.21412  1.0000
  H   H1746     1.0  0.78041  0.38113  0.16818  1.0000
  H   H1747     1.0  0.90813  0.22875  0.18357  1.0000
  H   H1748     1.0  0.94646  0.13271  0.09771  1.0000
  H   H1749     1.0  0.67699  0.08041  0.15175  1.0000
  H   H1750     1.0  0.95499  0.24911  0.20157  1.0000
  H   H1751     1.0  0.98117  0.38324  0.15339  1.0000
  H   H1752     1.0  0.68125  0.05727  0.00658  1.0000
  H   H1753     1.0  0.76940  0.13366  0.16486  1.0000
  H   H1754     1.0  0.99190  0.29738  0.06154  1.0000
  H   H1755     1.0  0.57341  0.35414  0.11168  1.0000
  H   H1756     1.0  0.97962  0.33470  0.15094  1.0000
  C   C986      1.0  0.84199  0.26181  0.17205  1.0000
  H   H1757     1.0  0.83783  0.24201  0.16091  1.0000
  H   H1758     1.0  0.62821  0.20802  0.00909  1.0000
  C   C987      1.0  0.53917  0.34756  0.97207  1.0000
  H   H1759     1.0  0.56067  0.02508  0.07798  1.0000
  H   H1760     1.0  0.99471  0.33521  0.06270  1.0000
  C   C988      1.0  0.95512  0.28503  0.14440  1.0000
  H   H1761     1.0  0.76258  0.18081  0.15902  1.0000
  H   H1762     1.0  0.67087  0.11378  0.05027  1.0000
  S   S213      1.0  0.97796  0.23055  0.06751  1.0000
  C   C989      1.0  0.67209  0.30303  0.20076  1.0000
  H   H1763     1.0  0.67898  0.08035  0.07517  1.0000
  H   H1764     1.0  0.95780  0.39565  0.19832  1.0000
  C   C990      1.0  0.66725  0.06126  0.06235  1.0000
  C   C991      1.0  0.72880  0.34058  0.97991  1.0000
  C   C992      1.0  0.56401  0.36609  0.99019  1.0000
  C   C993      1.0  0.66459  0.09799  0.03544  1.0000
  H   H1765     1.0  0.73803  0.30952  0.17404  1.0000
  C   C994      1.0  0.71540  0.07950  0.17088  1.0000
  H   H1766     1.0  0.52203  0.01337  0.06729  1.0000
  H   H1767     1.0  0.54534  0.11495  0.04852  1.0000
  H   H1768     1.0  0.78217  0.35230  0.15039  1.0000
  C   C995      1.0  0.84080  0.05867  0.96701  1.0000
  C   C996      1.0  0.63159  0.04233  0.06791  1.0000
  H   H1769     1.0  0.61755  0.34604  0.97884  1.0000
  H   H1770     1.0  0.93663  0.26295  0.15220  1.0000
  H   H1771     1.0  0.53994  0.05044  0.98847  1.0000
  C   C997      1.0  0.54017  0.10421  0.00220  1.0000
  H   H1772     1.0  0.92225  0.34763  0.08707  1.0000
  H   H1773     1.0  0.80582  0.14452  0.99426  1.0000
  H   H1774     1.0  0.55389  0.00680  0.03830  1.0000
  H   H1775     1.0  0.90231  0.18961  0.18610  1.0000
  H   H1776     1.0  0.55632  0.11585  0.98772  1.0000
  H   H1777     1.0  0.92509  0.34034  0.18403  1.0000
  C   C998      1.0  0.65927  0.13616  0.00930  1.0000
  C   C999      1.0  0.95723  0.31390  0.15655  1.0000
  C   C1000     1.0  0.74080  0.22342  0.19948  1.0000
  H   H1778     1.0  0.56364  0.35058  0.00385  1.0000
  C   C1001     1.0  0.68253  0.08662  0.19819  1.0000
  H   H1779     1.0  0.93595  0.32004  0.08262  1.0000
  N   N57       1.0  0.71639  0.09674  0.19222  1.0000
  C   C1002     1.0  0.96897  0.40271  0.18141  1.0000
  H   H1780     1.0  0.58089  0.08161  0.98852  1.0000
  C   C1003     1.0  0.52456  0.30020  0.03320  1.0000
  H   H1781     1.0  0.52174  0.31397  0.09653  1.0000
  H   H1782     1.0  0.98753  0.04040  0.02085  1.0000
  H   H1783     1.0  0.55954  0.38422  0.99757  1.0000
  C   C1004     1.0  0.79711  0.18177  0.98355  1.0000
  H   H1784     1.0  0.76595  0.13615  0.99846  1.0000
  H   H1785     1.0  0.77510  0.26425  0.98189  1.0000
  H   H1786     1.0  0.00376  0.42273  0.97206  1.0000
  H   H1787     1.0  0.95630  0.41182  0.17109  1.0000
  H   H1788     1.0  0.65167  0.27861  0.20018  1.0000
  H   H1789     1.0  0.53715  0.31074  0.19109  1.0000
  C   C1005     1.0  0.98401  0.01983  0.02983  1.0000
  Fe  Fe106     1.0  0.98066  0.03118  0.96871  1.0000
  H   H1790     1.0  0.54482  0.30730  0.97662  1.0000
  H   H1791     1.0  0.77675  0.10045  0.19584  1.0000
  H   H1792     1.0  0.50939  0.35677  0.07983  1.0000
  H   H1793     1.0  0.84450  0.16748  0.18800  1.0000
  C   C1006     1.0  0.62223  0.01261  0.99356  1.0000
  C   C1007     1.0  0.73055  0.08756  0.21153  1.0000
  C   C1008     1.0  0.85997  0.19192  0.18195  1.0000
  H   H1794     1.0  0.58803  0.37811  0.98268  1.0000
  S   S214      1.0  0.72747  0.08382  0.96817  1.0000
  H   H1795     1.0  0.58261  0.44231  0.97715  1.0000
  H   H1796     1.0  0.51812  0.30490  0.01638  1.0000
  C   C1009     1.0  0.51216  0.33554  0.19865  1.0000
  H   H1797     1.0  0.63786  0.02009  0.09795  1.0000
  C   C1010     1.0  0.75794  0.08136  0.20591  1.0000
  H   H1798     1.0  0.69370  0.30148  0.20318  1.0000
  H   H1799     1.0  0.99378  0.42195  0.18376  1.0000
  C   C1011     1.0  0.89341  0.20535  0.19142  1.0000
  C   C1012     1.0  0.50955  0.13146  0.00506  1.0000
  H   H1800     1.0  0.63902  0.02102  0.97917  1.0000
  C   C1013     1.0  0.70828  0.00410  0.00091  1.0000
  H   H1801     1.0  0.95016  0.33098  0.21495  1.0000
  H   H1802     1.0  0.99319  0.31342  0.21026  1.0000
  C   C1014     1.0  0.51543  0.14543  0.98087  1.0000
  H   H1803     1.0  0.00616  0.37291  0.97808  1.0000
  H   H1804     1.0  0.50946  0.25135  0.02537  1.0000
  H   H1805     1.0  0.00521  0.30559  0.13687  1.0000
  H   H1806     1.0  0.94360  0.19840  0.20697  1.0000
  H   H1807     1.0  0.59823  0.00488  0.98675  1.0000
  H   H1808     1.0  0.60114  0.02017  0.09694  1.0000
  H   H1809     1.0  0.51529  0.33810  0.97940  1.0000
  H   H1810     1.0  0.53694  0.38619  0.19412  1.0000
  C   C1015     1.0  0.81161  0.24353  0.96737  1.0000
  H   H1811     1.0  0.87330  0.25337  0.97210  1.0000
  H   H1812     1.0  0.61181  0.34185  0.21606  1.0000
  H   H1813     1.0  0.50950  0.34314  0.02494  1.0000
  C   C1016     1.0  0.53816  0.00461  0.07218  1.0000
  H   H1814     1.0  0.85132  0.00436  0.08438  1.0000
  H   H1815     1.0  0.61670  0.18085  0.21534  1.0000
  H   H1816     1.0  0.93615  0.26629  0.21655  1.0000
  S   S215      1.0  0.67936  0.38961  0.96693  1.0000
  H   H1817     1.0  0.73217  0.30082  0.96705  1.0000
  H   H1818     1.0  0.84819  0.42338  0.29857  1.0000
  S   S216      1.0  0.67908  0.39619  0.24275  1.0000
  H   H1819     1.0  0.79766  0.08395  0.29694  1.0000
  Fe  Fe107     1.0  0.63062  0.42722  0.27343  1.0000
  S   S217      1.0  0.66436  0.41629  0.29134  1.0000
  S   S218      1.0  0.59982  0.44104  0.29273  1.0000
  Fe  Fe108     1.0  0.69742  0.44145  0.26237  1.0000
  C   C1017     1.0  0.92212  0.22499  0.25400  1.0000
  Fe  Fe109     1.0  0.64252  0.37276  0.26998  1.0000
  S   S219      1.0  0.62882  0.32439  0.28322  1.0000
  S   S220      1.0  0.66446  0.45486  0.24559  1.0000
  S   S221      1.0  0.60661  0.38195  0.25405  1.0000
  Fe  Fe110     1.0  0.62233  0.19362  0.41643  1.0000
  C   C1018     1.0  0.59431  0.23794  0.37455  1.0000
  H   H1820     1.0  0.91660  0.39604  0.25150  1.0000
  C   C1019     1.0  0.53252  0.27247  0.29289  1.0000
  H   H1821     1.0  0.77493  0.14533  0.37122  1.0000
  H   H1822     1.0  0.90198  0.35654  0.44347  1.0000
  S   S222      1.0  0.64222  0.24505  0.42481  1.0000
  H   H1823     1.0  0.51711  0.38652  0.38073  1.0000
  S   S223      1.0  0.58699  0.10388  0.40824  1.0000
  S   S224      1.0  0.65315  0.17244  0.41148  1.0000
  H   H1824     1.0  0.69706  0.13283  0.26663  1.0000
  Fe  Fe111     1.0  0.79938  0.24135  0.28872  1.0000
  S   S225      1.0  0.84110  0.23383  0.28720  1.0000
  S   S226      1.0  0.78289  0.26459  0.31328  1.0000
  Fe  Fe112     1.0  0.77398  0.21202  0.24342  1.0000
  S   S227      1.0  0.81339  0.20236  0.23691  1.0000
  Fe  Fe113     1.0  0.80588  0.18625  0.27287  1.0000
  S   S228      1.0  0.80692  0.14205  0.28082  1.0000
  Fe  Fe114     1.0  0.84577  0.25052  0.25130  1.0000
  S   S229      1.0  0.89085  0.28308  0.23219  1.0000
  S   S230      1.0  0.76406  0.19225  0.27827  1.0000
  S   S231      1.0  0.80672  0.26170  0.25402  1.0000
  Fe  Fe115     1.0  0.84791  0.40629  0.43849  1.0000
  S   S232      1.0  0.83936  0.43081  0.40957  1.0000
  H   H1825     1.0  0.71073  0.50194  0.28739  1.0000
  Fe  Fe116     1.0  0.85426  0.36015  0.40858  1.0000
  S   S233      1.0  0.84721  0.38157  0.37741  1.0000
  S   S234      1.0  0.85807  0.31687  0.40424  1.0000
  Fe  Fe117     1.0  0.87958  0.42813  0.39343  1.0000
  S   S235      1.0  0.91957  0.46419  0.37186  1.0000
  Fe  Fe118     1.0  0.80796  0.38157  0.39659  1.0000
  S   S236      1.0  0.76035  0.36001  0.37941  1.0000
  S   S237      1.0  0.89005  0.40663  0.42322  1.0000
  S   S238      1.0  0.81319  0.35746  0.42691  1.0000
  C   C1020     1.0  0.80263  0.27619  0.33924  1.0000
  C   C1021     1.0  0.79399  0.29235  0.35432  1.0000
  C   C1022     1.0  0.80986  0.30303  0.37489  1.0000
  C   C1023     1.0  0.83501  0.29830  0.38031  1.0000
  C   C1024     1.0  0.84294  0.28100  0.36568  1.0000
  C   C1025     1.0  0.82669  0.26989  0.34506  1.0000
  H   H1826     1.0  0.77551  0.29740  0.34989  1.0000
  H   H1827     1.0  0.80301  0.31562  0.38634  1.0000
  H   H1828     1.0  0.86245  0.27738  0.36982  1.0000
  H   H1829     1.0  0.83335  0.25729  0.33348  1.0000
  C   C1026     1.0  0.67857  0.27481  0.41386  1.0000
  C   C1027     1.0  0.69045  0.27108  0.39337  1.0000
  C   C1028     1.0  0.71668  0.29699  0.38331  1.0000
  C   C1029     1.0  0.73173  0.32639  0.39401  1.0000
  C   C1030     1.0  0.72096  0.32954  0.41513  1.0000
  C   C1031     1.0  0.69420  0.30400  0.42483  1.0000
  H   H1830     1.0  0.67830  0.24875  0.38474  1.0000
  H   H1831     1.0  0.72484  0.29462  0.36692  1.0000
  H   H1832     1.0  0.73243  0.35208  0.42358  1.0000
  H   H1833     1.0  0.68521  0.30706  0.44072  1.0000
  C   C1032     1.0  0.52896  0.24404  0.30112  1.0000
  C   C1033     1.0  0.77305  0.07745  0.22737  1.0000
  H   H1834     1.0  0.53165  0.31521  0.22024  1.0000
  H   H1835     1.0  0.00086  0.36905  0.23312  1.0000
  Fe  Fe119     1.0  0.64387  0.40791  0.22801  1.0000
  H   H1836     1.0  0.66772  0.30559  0.23708  1.0000
  H   H1837     1.0  0.59042  0.35568  0.32391  1.0000
  H   H1838     1.0  0.66962  0.10100  0.28433  1.0000
  H   H1839     1.0  0.87081  0.46901  0.28099  1.0000
  H   H1840     1.0  0.55329  0.21927  0.30984  1.0000
  Fe  Fe120     1.0  0.56052  0.12930  0.41408  1.0000
  C   C1034     1.0  0.93324  0.14518  0.22573  1.0000
  H   H1841     1.0  0.58613  0.26928  0.35433  1.0000
  C   C1035     1.0  0.77190  0.10512  0.28334  1.0000
  C   C1036     1.0  0.68106  0.17712  0.28091  1.0000
  H   H1842     1.0  0.59001  0.16845  0.32760  1.0000
  H   H1843     1.0  0.54944  0.37273  0.30229  1.0000
  H   H1844     1.0  0.73966  0.11892  0.26990  1.0000
  H   H1845     1.0  0.68877  0.34326  0.22333  1.0000
  C   C1037     1.0  0.71797  0.04478  0.28825  1.0000
  C   C1038     1.0  0.58973  0.29421  0.28957  1.0000
  Fe  Fe121     1.0  0.61702  0.14363  0.38505  1.0000
  C   C1039     1.0  0.92974  0.30981  0.26958  1.0000
  C   C1040     1.0  0.92642  0.30980  0.24611  1.0000
  C   C1041     1.0  0.95234  0.33107  0.23308  1.0000
  C   C1042     1.0  0.56298  0.29763  0.28721  1.0000
  H   H1846     1.0  0.60605  0.26256  0.29932  1.0000
  H   H1847     1.0  0.91001  0.29342  0.27981  1.0000
  S   S239      1.0  0.51414  0.45438  0.40514  1.0000
  H   H1848     1.0  0.56579  0.31950  0.28091  1.0000
  H   H1849     1.0  0.61397  0.04339  0.30913  1.0000
  H   H1850     1.0  0.73887  0.10556  0.22519  1.0000
  C   C1043     1.0  0.60046  0.47408  0.32995  1.0000
  C   C1044     1.0  0.61766  0.46436  0.31671  1.0000
  C   C1045     1.0  0.64871  0.47329  0.32283  1.0000
  H   H1851     1.0  0.71414  0.38654  0.40585  1.0000
  H   H1852     1.0  0.61985  0.15656  0.26180  1.0000
  H   H1853     1.0  0.62102  0.29896  0.38713  1.0000
  H   H1854     1.0  0.66228  0.46624  0.31263  1.0000
  H   H1855     1.0  0.58692  0.42887  0.36774  1.0000
  H   H1856     1.0  0.65855  0.34069  0.40649  1.0000
  S   S240      1.0  0.59212  0.15828  0.44262  1.0000
  C   C1046     1.0  0.84277  0.45530  0.33311  1.0000
  H   H1857     1.0  0.72710  0.42425  0.31754  1.0000
  C   C1047     1.0  0.56472  0.42387  0.37634  1.0000
  C   C1048     1.0  0.60950  0.09774  0.34187  1.0000
  S   S241      1.0  0.63066  0.10874  0.46232  1.0000
  H   H1858     1.0  0.82197  0.47795  0.35312  1.0000
  C   C1049     1.0  0.58577  0.26571  0.29766  1.0000
  H   H1859     1.0  0.69181  0.06537  0.27423  1.0000
  H   H1860     1.0  0.61188  0.14242  0.22090  1.0000
  H   H1861     1.0  0.80739  0.33940  0.31812  1.0000
  H   H1862     1.0  0.54600  0.37430  0.37823  1.0000
  C   C1050     1.0  0.97877  0.27293  0.23245  1.0000
  C   C1051     1.0  0.64530  0.50151  0.35533  1.0000
  H   H1863     1.0  0.79447  0.35028  0.29296  1.0000
  S   S242      1.0  0.63364  0.13621  0.35172  1.0000
  H   H1864     1.0  0.91084  0.49815  0.40868  1.0000
  N   N58       1.0  0.66153  0.19297  0.27882  1.0000
  C   C1052     1.0  0.68280  0.22841  0.27765  1.0000
  C   C1053     1.0  0.63938  0.18103  0.25877  1.0000
  C   C1054     1.0  0.65437  0.18149  0.23571  1.0000
  C   C1055     1.0  0.62196  0.20184  0.30254  1.0000
  C   C1056     1.0  0.71597  0.24150  0.26680  1.0000
  C   C1057     1.0  0.73329  0.27734  0.26513  1.0000
  H   H1865     1.0  0.70104  0.13605  0.29711  1.0000
  C   C1058     1.0  0.60552  0.19425  0.32549  1.0000
  H   H1866     1.0  0.67057  0.23935  0.26881  1.0000
  H   H1867     1.0  0.68793  0.23879  0.29488  1.0000
  H   H1868     1.0  0.62736  0.19498  0.25656  1.0000
  H   H1869     1.0  0.53686  0.37887  0.43649  1.0000
  H   H1870     1.0  0.60337  0.19379  0.28929  1.0000
  H   H1871     1.0  0.63691  0.22774  0.30135  1.0000
  H   H1872     1.0  0.73093  0.23529  0.27730  1.0000
  H   H1873     1.0  0.71451  0.23211  0.24967  1.0000
  H   H1874     1.0  0.75683  0.28589  0.25731  1.0000
  H   H1875     1.0  0.71972  0.28514  0.25453  1.0000
  H   H1876     1.0  0.73712  0.28795  0.28221  1.0000
  H   H1877     1.0  0.87157  0.18800  0.29972  1.0000
  H   H1878     1.0  0.86707  0.46097  0.32822  1.0000
  H   H1879     1.0  0.59072  0.20541  0.32678  1.0000
  H   H1880     1.0  0.62327  0.20334  0.33938  1.0000
  H   H1881     1.0  0.97370  0.28351  0.24726  1.0000
  H   H1882     1.0  0.57203  0.03764  0.40944  1.0000
  H   H1883     1.0  0.75327  0.16522  0.44195  1.0000
  H   H1884     1.0  0.87819  0.49860  0.30174  1.0000
  H   H1885     1.0  0.88354  0.17612  0.26178  1.0000
  C   C1059     1.0  0.89451  0.20436  0.29159  1.0000
  H   H1886     1.0  0.57643  0.46728  0.32530  1.0000
  C   C1060     1.0  0.98114  0.35268  0.24337  1.0000
  C   C1061     1.0  0.87119  0.49958  0.36153  1.0000
  H   H1887     1.0  0.59038  0.36905  0.35248  1.0000
  H   H1888     1.0  0.78238  0.41626  0.33759  1.0000
  H   H1889     1.0  0.55766  0.44105  0.37076  1.0000
  H   H1890     1.0  0.69943  0.41038  0.39344  1.0000
  S   S243      1.0  0.59783  0.48780  0.42583  1.0000
  C   C1062     1.0  0.78709  0.43020  0.32176  1.0000
  S   S244      1.0  0.58797  0.16702  0.38836  1.0000
  H   H1891     1.0  0.99341  0.49354  0.31356  1.0000
  C   C1063     1.0  0.66219  0.14088  0.28347  1.0000
  S   S245      1.0  0.73185  0.19545  0.22060  1.0000
  H   H1892     1.0  0.58398  0.24125  0.39026  1.0000
  C   C1064     1.0  0.89107  0.20076  0.26594  1.0000
  H   H1893     1.0  0.76327  0.42359  0.28873  1.0000
  C   C1065     1.0  0.74798  0.05036  0.29452  1.0000
  H   H1894     1.0  0.66632  0.16741  0.23621  1.0000
  H   H1895     1.0  0.68711  0.39422  0.42137  1.0000
  C   C1066     1.0  0.74513  0.19202  0.41610  1.0000
  H   H1896     1.0  0.75061  0.03145  0.30148  1.0000
  H   H1897     1.0  0.66329  0.08123  0.37147  1.0000
  H   H1898     1.0  0.68640  0.49835  0.34689  1.0000
  C   C1067     1.0  0.82327  0.41497  0.30351  1.0000
  H   H1899     1.0  0.61408  0.39671  0.33094  1.0000
  C   C1068     1.0  0.93880  0.19925  0.22522  1.0000
  H   H1900     1.0  0.54546  0.28221  0.23181  1.0000
  C   C1069     1.0  0.86257  0.48475  0.28756  1.0000
  C   C1070     1.0  0.60350  0.05404  0.31918  1.0000
  C   C1071     1.0  0.55579  0.24106  0.30358  1.0000
  N   N59       1.0  0.92515  0.22039  0.22907  1.0000
  H   H1901     1.0  0.60078  0.49992  0.35933  1.0000
  H   H1902     1.0  0.92820  0.34845  0.45986  1.0000
  C   C1072     1.0  0.71491  0.06954  0.27917  1.0000
  H   H1903     1.0  0.64810  0.09561  0.32626  1.0000
  C   C1073     1.0  0.81375  0.38631  0.31921  1.0000
  H   H1904     1.0  0.55987  0.42102  0.43836  1.0000
  H   H1905     1.0  0.98978  0.25946  0.23878  1.0000
  C   C1074     1.0  0.62132  0.33453  0.35313  1.0000
  C   C1075     1.0  0.81300  0.35906  0.30630  1.0000
  H   H1906     1.0  0.50876  0.06886  0.46428  1.0000
  H   H1907     1.0  0.56658  0.09219  0.35630  1.0000
  H   H1908     1.0  0.62406  0.15955  0.30076  1.0000
  H   H1909     1.0  0.73963  0.12178  0.35446  1.0000
  H   H1910     1.0  0.67142  0.20590  0.23062  1.0000
  N   N60       1.0  0.64667  0.32632  0.35798  1.0000
  H   H1911     1.0  0.68516  0.17278  0.46468  1.0000
  H   H1912     1.0  0.79010  0.37738  0.32684  1.0000
  H   H1913     1.0  0.83131  0.39295  0.33302  1.0000
  C   C1076     1.0  0.63227  0.29643  0.37159  1.0000
  H   H1914     1.0  0.69687  0.18243  0.26614  1.0000
  H   H1915     1.0  0.72591  0.25004  0.35494  1.0000
  H   H1916     1.0  0.51429  0.27477  0.34193  1.0000
  H   H1917     1.0  0.68513  0.21856  0.35634  1.0000
  H   H1918     1.0  0.53027  0.40508  0.33831  1.0000
  H   H1919     1.0  0.75491  0.05874  0.23831  1.0000
  H   H1920     1.0  0.95275  0.48732  0.28691  1.0000
  C   C1077     1.0  0.78227  0.14601  0.33559  1.0000
  C   C1078     1.0  0.60512  0.37246  0.33737  1.0000
  C   C1079     1.0  0.70771  0.22792  0.34697  1.0000
  H   H1921     1.0  0.53243  0.03944  0.33923  1.0000
  C   C1080     1.0  0.63295  0.36789  0.34349  1.0000
  H   H1922     1.0  0.64445  0.12975  0.26983  1.0000
  H   H1923     1.0  0.79090  0.07073  0.22289  1.0000
  H   H1924     1.0  0.66432  0.07168  0.40076  1.0000
  C   C1081     1.0  0.98453  0.35273  0.26683  1.0000
  C   C1082     1.0  0.74192  0.09982  0.27682  1.0000
  C   C1083     1.0  0.76012  0.41054  0.30469  1.0000
  S   S246      1.0  0.68563  0.00649  0.29275  1.0000
  C   C1084     1.0  0.55761  0.05187  0.33631  1.0000
  Fe  Fe122     1.0  0.55955  0.49839  0.41649  1.0000
  C   C1085     1.0  0.51844  0.34780  0.27465  1.0000
  H   H1925     1.0  0.93919  0.37793  0.24382  1.0000
  H   H1926     1.0  0.51217  0.06264  0.38715  1.0000
  H   H1927     1.0  0.56932  0.42687  0.39479  1.0000
  C   C1086     1.0  0.72806  0.40250  0.31437  1.0000
  H   H1928     1.0  0.86798  0.48238  0.37488  1.0000
  Fe  Fe123     1.0  0.62027  0.13484  0.43535  1.0000
  C   C1087     1.0  0.64158  0.18514  0.29990  1.0000
  N   N61       1.0  0.82021  0.44154  0.31342  1.0000
  H   H1929     1.0  0.87569  0.18479  0.22409  1.0000
  H   H1930     1.0  0.53185  0.33182  0.34265  1.0000
  H   H1931     1.0  0.89603  0.35385  0.32798  1.0000
  H   H1932     1.0  0.64986  0.13426  0.29990  1.0000
  H   H1933     1.0  0.94255  0.22640  0.26346  1.0000
  C   C1088     1.0  0.75667  0.18132  0.39535  1.0000
  H   H1934     1.0  0.70912  0.38783  0.30207  1.0000
  H   H1935     1.0  0.95566  0.41946  0.23943  1.0000
  C   C1089     1.0  0.68395  0.12699  0.28283  1.0000
  N   N62       1.0  0.73713  0.17492  0.37414  1.0000
  H   H1936     1.0  0.80568  0.16794  0.33598  1.0000
  C   C1090     1.0  0.75505  0.17194  0.35451  1.0000
  C   C1091     1.0  0.73371  0.20332  0.36974  1.0000
  C   C1092     1.0  0.70443  0.14626  0.37588  1.0000
  C   C1093     1.0  0.70027  0.11915  0.39157  1.0000
  H   H1937     1.0  0.81991  0.48269  0.30021  1.0000
  C   C1094     1.0  0.71845  0.20368  0.34684  1.0000
  C   C1095     1.0  0.76203  0.14460  0.35561  1.0000
  S   S247      1.0  0.74957  0.47526  0.27148  1.0000
  C   C1096     1.0  0.66714  0.09051  0.38899  1.0000
  H   H1938     1.0  0.61399  0.23380  0.37907  1.0000
  H   H1939     1.0  0.85167  0.49551  0.25403  1.0000
  H   H1940     1.0  0.75137  0.21694  0.41398  1.0000
  H   H1941     1.0  0.74170  0.16814  0.33846  1.0000
  H   H1942     1.0  0.77794  0.19434  0.35225  1.0000
  H   H1943     1.0  0.75724  0.22530  0.37060  1.0000
  H   H1944     1.0  0.71902  0.20561  0.38310  1.0000
  H   H1945     1.0  0.68713  0.15287  0.38209  1.0000
  H   H1946     1.0  0.69549  0.13615  0.35880  1.0000
  H   H1947     1.0  0.57583  0.21693  0.36554  1.0000
  H   H1948     1.0  0.97896  0.40768  0.27315  1.0000
  C   C1097     1.0  0.76090  0.19007  0.43787  1.0000
  H   H1949     1.0  0.71911  0.17763  0.41813  1.0000
  H   H1950     1.0  0.69784  0.18048  0.34269  1.0000
  H   H1951     1.0  0.73593  0.20990  0.33312  1.0000
  S   S248      1.0  0.61692  0.01819  0.26661  1.0000
  H   H1952     1.0  0.54346  0.23990  0.25375  1.0000
  H   H1953     1.0  0.92320  0.24791  0.25686  1.0000
  H   H1954     1.0  0.77010  0.14505  0.31948  1.0000
  H   H1955     1.0  0.87154  0.20476  0.26072  1.0000
  H   H1956     1.0  0.71769  0.11165  0.38802  1.0000
  H   H1957     1.0  0.64881  0.09680  0.39302  1.0000
  H   H1958     1.0  0.90152  0.22873  0.29668  1.0000
  C   C1098     1.0  0.60657  0.26662  0.35929  1.0000
  C   C1099     1.0  0.62282  0.08364  0.32889  1.0000
  C   C1100     1.0  0.77469  0.08018  0.29197  1.0000
  H   H1959     1.0  0.60399  0.31768  0.34067  1.0000
  H   H1960     1.0  0.68475  0.48008  0.44792  1.0000
  C   C1101     1.0  0.65916  0.32223  0.33578  1.0000
  H   H1961     1.0  0.92013  0.16500  0.25270  1.0000
  C   C1102     1.0  0.67374  0.35186  0.37120  1.0000
  H   H1962     1.0  0.94053  0.49146  0.45240  1.0000
  H   H1963     1.0  0.78157  0.20022  0.39215  1.0000
  C   C1103     1.0  0.68334  0.31065  0.33697  1.0000
  C   C1104     1.0  0.69321  0.38965  0.40429  1.0000
  H   H1964     1.0  0.75849  0.16057  0.40036  1.0000
  C   C1105     1.0  0.69249  0.30566  0.31334  1.0000
  H   H1965     1.0  0.67075  0.34463  0.32626  1.0000
  H   H1966     1.0  0.63940  0.30580  0.32479  1.0000
  H   H1967     1.0  0.78510  0.09989  0.23691  1.0000
  H   H1968     1.0  0.69166  0.34499  0.37508  1.0000
  H   H1969     1.0  0.65091  0.29173  0.37790  1.0000
  H   H1970     1.0  0.78615  0.12562  0.33607  1.0000
  H   H1971     1.0  0.64774  0.38628  0.35599  1.0000
  H   H1972     1.0  0.68499  0.08775  0.23551  1.0000
  H   H1973     1.0  0.70541  0.32828  0.34547  1.0000
  H   H1974     1.0  0.67354  0.28798  0.34608  1.0000
  H   H1975     1.0  0.64705  0.37184  0.32802  1.0000
  H   H1976     1.0  0.81335  0.45429  0.27969  1.0000
  H   H1977     1.0  0.70312  0.12650  0.40952  1.0000
  H   H1978     1.0  0.56071  0.05898  0.44584  1.0000
  H   H1979     1.0  0.64503  0.36462  0.39292  1.0000
  H   H1980     1.0  0.67135  0.28781  0.30398  1.0000
  H   H1981     1.0  0.70359  0.32804  0.30368  1.0000
  H   H1982     1.0  0.70978  0.29736  0.31475  1.0000
  H   H1983     1.0  0.86627  0.36400  0.33390  1.0000
  H   H1984     1.0  0.96129  0.33089  0.29803  1.0000
  H   H1985     1.0  0.83631  0.36642  0.29849  1.0000
  H   H1986     1.0  0.78438  0.45057  0.32663  1.0000
  H   H1987     1.0  0.60718  0.33179  0.36854  1.0000
  H   H1988     1.0  0.72381  0.38924  0.33037  1.0000
  H   H1989     1.0  0.65962  0.48919  0.46453  1.0000
  H   H1990     1.0  0.78705  0.20374  0.43624  1.0000
  C   C1106     1.0  0.66846  0.31895  0.22173  1.0000
  H   H1991     1.0  0.69718  0.18671  0.29580  1.0000
  H   H1992     1.0  0.52294  0.04819  0.43491  1.0000
  H   H1993     1.0  0.80944  0.40646  0.28753  1.0000
  C   C1107     1.0  0.66245  0.49172  0.34214  1.0000
  H   H1994     1.0  0.89442  0.15347  0.22815  1.0000
  N   N63       1.0  0.96811  0.44276  0.30905  1.0000
  C   C1108     1.0  0.95865  0.43622  0.28450  1.0000
  C   C1109     1.0  0.96939  0.47287  0.31657  1.0000
  C   C1110     1.0  0.53835  0.39043  0.37134  1.0000
  C   C1111     1.0  0.94662  0.41566  0.32414  1.0000
  C   C1112     1.0  0.91070  0.40314  0.32188  1.0000
  C   C1113     1.0  0.95544  0.40566  0.27453  1.0000
  H   H1995     1.0  0.95817  0.15539  0.23146  1.0000
  C   C1114     1.0  0.94641  0.48179  0.30501  1.0000
  C   C1115     1.0  0.89196  0.37242  0.33504  1.0000
  C   C1116     1.0  0.94086  0.39954  0.25087  1.0000
  C   C1117     1.0  0.57077  0.03847  0.32238  1.0000
  H   H1996     1.0  0.97606  0.45622  0.27392  1.0000
  H   H1997     1.0  0.93562  0.43483  0.28143  1.0000
  C   C1118     1.0  0.52612  0.35117  0.29990  1.0000
  C   C1119     1.0  0.82752  0.46570  0.29514  1.0000
  H   H1998     1.0  0.83602  0.43761  0.34686  1.0000
  C   C1120     1.0  0.66507  0.36020  0.39432  1.0000
  H   H1999     1.0  0.95089  0.39564  0.32168  1.0000
  H   H2000     1.0  0.95248  0.42227  0.34223  1.0000
  H   H2001     1.0  0.90244  0.39806  0.30415  1.0000
  H   H2002     1.0  0.90487  0.42048  0.32897  1.0000
  H   H2003     1.0  0.55379  0.38742  0.33799  1.0000
  H   H2004     1.0  0.94010  0.38482  0.28501  1.0000
  C   C1121     1.0  0.53193  0.38504  0.34555  1.0000
  C   C1122     1.0  0.57696  0.08153  0.34608  1.0000
  C   C1123     1.0  0.89352  0.20815  0.21750  1.0000
  H   H2005     1.0  0.92154  0.46247  0.30618  1.0000
  H   H2006     1.0  0.89898  0.37592  0.35315  1.0000
  H   H2007     1.0  0.61612  0.26145  0.34399  1.0000
  H   H2008     1.0  0.91250  0.19864  0.29778  1.0000
  H   H2009     1.0  0.91931  0.12103  0.23270  1.0000
  H   H2010     1.0  0.70424  0.23343  0.32948  1.0000
  H   H2011     1.0  0.52118  0.19719  0.37676  1.0000
  H   H2012     1.0  0.75914  0.38805  0.30068  1.0000
  C   C1124     1.0  0.53596  0.40035  0.44083  1.0000
  C   C1125     1.0  0.95882  0.33102  0.27987  1.0000
  H   H2013     1.0  0.68654  0.37360  0.36091  1.0000
  H   H2014     1.0  0.65668  0.19025  0.31521  1.0000
  H   H2015     1.0  0.96559  0.47244  0.33509  1.0000
  H   H2016     1.0  0.75393  0.20005  0.45200  1.0000
  H   H2017     1.0  0.78700  0.37840  0.46123  1.0000
  H   H2018     1.0  0.53245  0.02649  0.39993  1.0000
  H   H2019     1.0  0.76742  0.26305  0.22134  1.0000
  C   C1126     1.0  0.90310  0.33941  0.45511  1.0000
  H   H2020     1.0  0.56717  0.10020  0.46595  1.0000
  H   H2021     1.0  0.53700  0.34597  0.26520  1.0000
  H   H2022     1.0  0.96237  0.20917  0.23343  1.0000
  H   H2023     1.0  0.88382  0.22376  0.22154  1.0000
  H   H2024     1.0  0.84857  0.50306  0.33164  1.0000
  C   C1127     1.0  0.94459  0.50154  0.38395  1.0000
  C   C1128     1.0  0.84443  0.48469  0.34420  1.0000
  C   C1129     1.0  0.91933  0.16512  0.23397  1.0000
  H   H2025     1.0  0.52833  0.33070  0.30498  1.0000
  C   C1130     1.0  0.54678  0.01886  0.40981  1.0000
  C   C1131     1.0  0.00108  0.44758  0.31124  1.0000
  C   C1132     1.0  0.53561  0.03967  0.44592  1.0000
  H   H2026     1.0  0.69015  0.12336  0.22292  1.0000
  H   H2027     1.0  0.63826  0.09175  0.24247  1.0000
  H   H2028     1.0  0.65773  0.00739  0.22681  1.0000
  C   C1133     1.0  0.94788  0.25205  0.21884  1.0000
  H   H2029     1.0  0.00163  0.42608  0.30620  1.0000
  C   C1134     1.0  0.52557  0.39856  0.46534  1.0000
  C   C1135     1.0  0.53505  0.01119  0.43414  1.0000
  C   C1136     1.0  0.64206  0.08580  0.22516  1.0000
  H   H2030     1.0  0.64618  0.31966  0.22094  1.0000
  H   H2031     1.0  0.51766  0.36867  0.26830  1.0000
  H   H2032     1.0  0.00346  0.43562  0.34676  1.0000
  H   H2033     1.0  0.51192  0.27502  0.29095  1.0000
  H   H2034     1.0  0.89423  0.31666  0.44618  1.0000
  H   H2035     1.0  0.54084  0.22973  0.22437  1.0000
  C   C1137     1.0  0.67269  0.47610  0.46447  1.0000
  C   C1138     1.0  0.52204  0.26041  0.23269  1.0000
  C   C1139     1.0  0.52831  0.23371  0.23846  1.0000
  H   H2036     1.0  0.55062  0.00434  0.44314  1.0000
  H   H2037     1.0  0.97810  0.00719  0.44343  1.0000
  C   C1140     1.0  0.61425  0.49261  0.34923  1.0000
  H   H2038     1.0  0.84155  0.30903  0.45531  1.0000
  C   C1141     1.0  0.00330  0.29986  0.21807  1.0000
  H   H2039     1.0  0.51900  0.40205  0.42919  1.0000
  H   H2040     1.0  0.75263  0.30708  0.45061  1.0000
  H   H2041     1.0  0.73399  0.26650  0.44223  1.0000
  H   H2042     1.0  0.79132  0.28838  0.44751  1.0000
  C   C1142     1.0  0.67717  0.09739  0.22156  1.0000
  H   H2043     1.0  0.71213  0.06538  0.21955  1.0000
  H   H2044     1.0  0.62781  0.05986  0.22319  1.0000
  H   H2045     1.0  0.81238  0.25561  0.46250  1.0000
  C   C1143     1.0  0.74647  0.28315  0.45630  1.0000
  C   C1144     1.0  0.62927  0.16740  0.21713  1.0000
  C   C1145     1.0  0.77631  0.28218  0.46277  1.0000
  H   H2046     1.0  0.84813  0.34570  0.46468  1.0000
  H   H2047     1.0  0.65559  0.45059  0.46629  1.0000
  H   H2048     1.0  0.84079  0.35449  0.50440  1.0000
  C   C1146     1.0  0.97466  0.16998  0.68793  1.0000
  C   C1147     1.0  0.52309  0.42783  0.47180  1.0000
  H   H2049     1.0  0.53474  0.04510  0.51675  1.0000
  H   H2050     1.0  0.83693  0.12333  0.60061  1.0000
  H   H2051     1.0  0.75757  0.40642  0.69917  1.0000
  C   C1148     1.0  0.72296  0.42580  0.53254  1.0000
  Fe  Fe124     1.0  0.73712  0.34257  0.56830  1.0000
  S   S249      1.0  0.69398  0.33916  0.58412  1.0000
  S   S250      1.0  0.73333  0.32878  0.53170  1.0000
  Fe  Fe125     1.0  0.77434  0.36313  0.61249  1.0000
  S   S251      1.0  0.73401  0.36137  0.63146  1.0000
  S   S252      1.0  0.81979  0.37785  0.63107  1.0000
  Fe  Fe126     1.0  0.70520  0.31568  0.61264  1.0000
  S   S253      1.0  0.66960  0.27063  0.63007  1.0000
  Fe  Fe127     1.0  0.72742  0.38521  0.60108  1.0000
  S   S254      1.0  0.73305  0.43382  0.59650  1.0000
  S   S255      1.0  0.74619  0.31645  0.59550  1.0000
  S   S256      1.0  0.77003  0.38960  0.58335  1.0000
  H   H2052     1.0  0.95226  0.15030  0.69485  1.0000
  S   S257      1.0  0.76567  0.11989  0.57417  1.0000
  S   S258      1.0  0.70184  0.03138  0.57649  1.0000
  Fe  Fe128     1.0  0.70161  0.13112  0.60412  1.0000
  S   S259      1.0  0.74868  0.17136  0.59439  1.0000
  S   S260      1.0  0.66519  0.13925  0.62154  1.0000
  Fe  Fe129     1.0  0.74076  0.14507  0.56180  1.0000
  S   S261      1.0  0.74904  0.17095  0.52849  1.0000
  Fe  Fe130     1.0  0.76786  0.14150  0.60800  1.0000
  S   S262      1.0  0.81096  0.16208  0.63082  1.0000
  S   S263      1.0  0.69240  0.10604  0.57093  1.0000
  S   S264      1.0  0.72101  0.10251  0.61981  1.0000
  H   H2053     1.0  0.75536  0.28245  0.67497  1.0000
  C   C1149     1.0  0.71700  0.15363  0.50932  1.0000
  C   C1150     1.0  0.82011  0.01096  0.71638  1.0000
  C   C1151     1.0  0.99927  0.14172  0.70372  1.0000
  C   C1152     1.0  0.69410  0.12189  0.51114  1.0000
  S   S265      1.0  0.85185  0.42222  0.47433  1.0000
  C   C1153     1.0  0.78324  0.09499  0.67946  1.0000
  H   H2054     1.0  0.70882  0.40031  0.53647  1.0000
  H   H2055     1.0  0.84182  0.36663  0.54675  1.0000
  C   C1154     1.0  0.79229  0.42923  0.66065  1.0000
  H   H2056     1.0  0.74233  0.43689  0.54521  1.0000
  C   C1155     1.0  0.80827  0.10844  0.69499  1.0000
  C   C1156     1.0  0.83421  0.13824  0.69066  1.0000
  C   C1157     1.0  0.83494  0.15445  0.67085  1.0000
  C   C1158     1.0  0.80980  0.14097  0.65530  1.0000
  C   C1159     1.0  0.78410  0.11109  0.65966  1.0000
  H   H2057     1.0  0.56583  0.00412  0.51857  1.0000
  H   H2058     1.0  0.85494  0.17757  0.66762  1.0000
  H   H2059     1.0  0.69267  0.21002  0.71577  1.0000
  C   C1160     1.0  0.67007  0.23494  0.62715  1.0000
  C   C1161     1.0  0.69421  0.23291  0.61589  1.0000
  C   C1162     1.0  0.69307  0.20375  0.61389  1.0000
  C   C1163     1.0  0.66794  0.17650  0.62326  1.0000
  C   C1164     1.0  0.64407  0.17869  0.63461  1.0000
  C   C1165     1.0  0.64513  0.20763  0.63655  1.0000
  H   H2060     1.0  0.71388  0.25373  0.60893  1.0000
  H   H2061     1.0  0.71174  0.20240  0.60530  1.0000
  H   H2062     1.0  0.62457  0.15785  0.64197  1.0000
  H   H2063     1.0  0.62641  0.20882  0.64534  1.0000
  C   C1166     1.0  0.71695  0.45671  0.60630  1.0000
  C   C1167     1.0  0.69076  0.44512  0.62062  1.0000
  C   C1168     1.0  0.67892  0.46485  0.62726  1.0000
  H   H2064     1.0  0.89516  0.10361  0.52866  1.0000
  H   H2065     1.0  0.73657  0.04294  0.50187  1.0000
  C   C1169     1.0  0.68204  0.10545  0.67423  1.0000
  H   H2066     1.0  0.67943  0.42100  0.62630  1.0000
  H   H2067     1.0  0.65833  0.45568  0.63801  1.0000
  H   H2068     1.0  0.71300  0.46606  0.66965  1.0000
  H   H2069     1.0  0.79031  0.21178  0.49017  1.0000
  C   C1170     1.0  0.76507  0.35709  0.51582  1.0000
  H   H2070     1.0  0.82067  0.21159  0.47318  1.0000
  H   H2071     1.0  0.88019  0.04975  0.67407  1.0000
  H   H2072     1.0  0.88551  0.31803  0.48748  1.0000
  C   C1171     1.0  0.81955  0.39941  0.51361  1.0000
  C   C1172     1.0  0.79332  0.37855  0.52647  1.0000
  H   H2073     1.0  0.65034  0.08399  0.49817  1.0000
  H   H2074     1.0  0.83971  0.28121  0.50992  1.0000
  H   H2075     1.0  0.84166  0.41530  0.52192  1.0000
  H   H2076     1.0  0.79549  0.37819  0.54457  1.0000
  H   H2077     1.0  0.76858  0.25765  0.46782  1.0000
  H   H2078     1.0  0.62705  0.20448  0.51005  1.0000
  H   H2079     1.0  0.85955  0.37967  0.66773  1.0000
  C   C1173     1.0  0.62301  0.11448  0.55461  1.0000
  C   C1174     1.0  0.76032  0.35722  0.71494  1.0000
  N   N64       1.0  0.80108  0.05038  0.55342  1.0000
  H   H2080     1.0  0.99048  0.21856  0.67706  1.0000
  H   H2081     1.0  0.77668  0.06158  0.57889  1.0000
  H   H2082     1.0  0.83693  0.46761  0.61889  1.0000
  C   C1175     1.0  0.77811  0.30363  0.67352  1.0000
  C   C1176     1.0  0.78369  0.32420  0.65548  1.0000
  C   C1177     1.0  0.81304  0.35165  0.65334  1.0000
  C   C1178     1.0  0.83677  0.35852  0.66940  1.0000
  C   C1179     1.0  0.83096  0.33815  0.68772  1.0000
  C   C1180     1.0  0.88355  0.33505  0.47625  1.0000
  H   H2083     1.0  0.76519  0.31872  0.64324  1.0000
  H   H2084     1.0  0.68714  0.16830  0.68888  1.0000
  C   C1181     1.0  0.64659  0.14929  0.55860  1.0000
  H   H2085     1.0  0.64800  0.43881  0.54369  1.0000
  H   H2086     1.0  0.67239  0.22883  0.46942  1.0000
  H   H2087     1.0  0.80813  0.09480  0.56640  1.0000
  H   H2088     1.0  0.97641  0.12531  0.71202  1.0000
  C   C1182     1.0  0.83358  0.34171  0.55100  1.0000
  C   C1183     1.0  0.63871  0.25498  0.56697  1.0000
  H   H2089     1.0  0.97496  0.07823  0.69434  1.0000
  C   C1184     1.0  0.76008  0.49914  0.65762  1.0000
  H   H2090     1.0  0.51483  0.41421  0.54375  1.0000
  H   H2091     1.0  0.73430  0.19180  0.71214  1.0000
  C   C1185     1.0  0.94001  0.19136  0.67376  1.0000
  C   C1186     1.0  0.65223  0.21399  0.55387  1.0000
  H   H2092     1.0  0.73163  0.19644  0.49076  1.0000
  H   H2093     1.0  0.52626  0.45475  0.53975  1.0000
  H   H2094     1.0  0.74975  0.23505  0.65449  1.0000
  C   C1187     1.0  0.78893  0.37832  0.47938  1.0000
  C   C1188     1.0  0.85108  0.10115  0.53877  1.0000
  H   H2095     1.0  0.75186  0.49726  0.58821  1.0000
  C   C1189     1.0  0.66795  0.10860  0.49651  1.0000
  H   H2096     1.0  0.63728  0.15779  0.57225  1.0000
  C   C1190     1.0  0.52110  0.06240  0.47724  1.0000
  H   H2097     1.0  0.84350  0.00809  0.64841  1.0000
  H   H2098     1.0  0.57145  0.42954  0.54856  1.0000
  C   C1191     1.0  0.82203  0.27763  0.49660  1.0000
  H   H2099     1.0  0.85362  0.14885  0.70258  1.0000
  H   H2100     1.0  0.76495  0.10010  0.64771  1.0000
  H   H2101     1.0  0.79681  0.32809  0.47825  1.0000
  H   H2102     1.0  0.65137  0.44895  0.58462  1.0000
  H   H2103     1.0  0.73011  0.27646  0.47089  1.0000
  H   H2104     1.0  0.58603  0.04646  0.52157  1.0000
  H   H2105     1.0  0.98162  0.12226  0.66966  1.0000
  H   H2106     1.0  0.80961  0.45933  0.59591  1.0000
  H   H2107     1.0  0.89446  0.35805  0.48515  1.0000
  H   H2108     1.0  0.66333  0.45707  0.50790  1.0000
  C   C1192     1.0  0.68104  0.48243  0.50687  1.0000
  H   H2109     1.0  0.86086  0.33535  0.51500  1.0000
  H   H2110     1.0  0.54313  0.39668  0.47613  1.0000
  C   C1193     1.0  0.66446  0.12683  0.47980  1.0000
  C   C1194     1.0  0.65243  0.16864  0.53659  1.0000
  N   N65       1.0  0.67091  0.20400  0.53917  1.0000
  C   C1195     1.0  0.67711  0.21822  0.51584  1.0000
  C   C1196     1.0  0.70217  0.21242  0.54998  1.0000
  H   H2111     1.0  0.64670  0.24792  0.53268  1.0000
  C   C1197     1.0  0.65641  0.24702  0.54943  1.0000
  C   C1198     1.0  0.72563  0.24769  0.55407  1.0000
  C   C1199     1.0  0.75683  0.25242  0.56359  1.0000
  H   H2112     1.0  0.53491  0.11283  0.50592  1.0000
  H   H2113     1.0  0.54375  0.00615  0.47973  1.0000
  H   H2114     1.0  0.69394  0.21325  0.50666  1.0000
  H   H2115     1.0  0.68935  0.24426  0.51664  1.0000
  H   H2116     1.0  0.69847  0.20142  0.56685  1.0000
  H   H2117     1.0  0.71443  0.20276  0.53976  1.0000
  H   H2118     1.0  0.76312  0.07196  0.68268  1.0000
  H   H2119     1.0  0.65759  0.21282  0.57206  1.0000
  H   H2120     1.0  0.59959  0.11100  0.54949  1.0000
  H   H2121     1.0  0.68149  0.26582  0.54980  1.0000
  H   H2122     1.0  0.66888  0.15087  0.56459  1.0000
  H   H2123     1.0  0.73106  0.26170  0.53836  1.0000
  H   H2124     1.0  0.71588  0.25697  0.56678  1.0000
  H   H2125     1.0  0.76863  0.24493  0.55110  1.0000
  H   H2126     1.0  0.77268  0.27758  0.56775  1.0000
  H   H2127     1.0  0.75272  0.23860  0.57930  1.0000
  H   H2128     1.0  0.64879  0.25634  0.58401  1.0000
  H   H2129     1.0  0.66448  0.16084  0.52449  1.0000
  Fe  Fe131     1.0  0.71761  0.08212  0.58541  1.0000
  C   C1200     1.0  0.73804  0.20069  0.69448  1.0000
  C   C1201     1.0  0.87903  0.11193  0.52270  1.0000
  C   C1202     1.0  0.77480  0.07156  0.52548  1.0000
  H   H2130     1.0  0.69117  0.43563  0.55058  1.0000
  H   H2131     1.0  0.73337  0.42854  0.51547  1.0000
  H   H2132     1.0  0.54671  0.44877  0.46849  1.0000
  H   H2133     1.0  0.74456  0.08273  0.50527  1.0000
  H   H2134     1.0  0.54930  0.49366  0.51222  1.0000
  H   H2135     1.0  0.57167  0.14070  0.49281  1.0000
  H   H2136     1.0  0.82084  0.05255  0.68795  1.0000
  C   C1203     1.0  0.80991  0.49200  0.62052  1.0000
  N   N66       1.0  0.00250  0.17381  0.70171  1.0000
  C   C1204     1.0  0.79380  0.30478  0.48265  1.0000
  H   H2137     1.0  0.75107  0.03042  0.54709  1.0000
  N   N67       1.0  0.81713  0.00707  0.69105  1.0000
  C   C1205     1.0  0.83129  0.03919  0.68037  1.0000
  H   H2138     1.0  0.56743  0.08906  0.49475  1.0000
  H   H2139     1.0  0.66705  0.49467  0.50651  1.0000
  H   H2140     1.0  0.54350  0.41360  0.51048  1.0000
  H   H2141     1.0  0.99895  0.08337  0.66986  1.0000
  H   H2142     1.0  0.62868  0.16095  0.52920  1.0000
  H   H2143     1.0  0.75278  0.22657  0.69619  1.0000
  C   C1206     1.0  0.83727  0.33107  0.50943  1.0000
  H   H2144     1.0  0.55898  0.44848  0.56877  1.0000
  H   H2145     1.0  0.72412  0.05434  0.52717  1.0000
  C   C1207     1.0  0.82681  0.47810  0.60731  1.0000
  H   H2146     1.0  0.71764  0.16070  0.65705  1.0000
  H   H2147     1.0  0.68292  0.42841  0.52061  1.0000
  H   H2148     1.0  0.73657  0.35397  0.71101  1.0000
  C   C1208     1.0  0.64967  0.46089  0.54956  1.0000
  H   H2149     1.0  0.77426  0.01034  0.57512  1.0000
  C   C1209     1.0  0.73369  0.15792  0.66889  1.0000
  H   H2150     1.0  0.62637  0.19719  0.55218  1.0000
  N   N68       1.0  0.82536  0.30871  0.48955  1.0000
  C   C1210     1.0  0.82226  0.07440  0.59307  1.0000
  C   C1211     1.0  0.77636  0.18195  0.69646  1.0000
  N   N69       1.0  0.51270  0.42858  0.49569  1.0000
  H   H2151     1.0  0.91905  0.17289  0.68287  1.0000
  H   H2152     1.0  0.76840  0.02356  0.68227  1.0000
  H   H2153     1.0  0.74081  0.34079  0.48397  1.0000
  H   H2154     1.0  0.53528  0.12485  0.47692  1.0000
  H   H2155     1.0  0.96142  0.48186  0.47312  1.0000
  C   C1212     1.0  0.53352  0.43703  0.53688  1.0000
  H   H2156     1.0  0.79885  0.42456  0.64377  1.0000
  C   C1213     1.0  0.77708  0.21247  0.66382  1.0000
  C   C1214     1.0  0.69368  0.21348  0.69719  1.0000
  H   H2157     1.0  0.75689  0.48494  0.64246  1.0000
  C   C1215     1.0  0.71353  0.12962  0.68482  1.0000
  H   H2158     1.0  0.63185  0.10492  0.54132  1.0000
  C   C1216     1.0  0.87893  0.09248  0.67180  1.0000
  H   H2159     1.0  0.86079  0.11194  0.55549  1.0000
  C   C1217     1.0  0.83208  0.06477  0.54079  1.0000
  C   C1218     1.0  0.54834  0.11931  0.48984  1.0000
  C   C1219     1.0  0.63713  0.45551  0.57370  1.0000
  C   C1220     1.0  0.86768  0.06038  0.68263  1.0000
  H   H2160     1.0  0.83921  0.10133  0.62418  1.0000
  C   C1221     1.0  0.76273  0.35721  0.49226  1.0000
  H   H2161     1.0  0.85426  0.33946  0.55606  1.0000
  C   C1222     1.0  0.73474  0.02032  0.61012  1.0000
  H   H2162     1.0  0.54929  0.49169  0.48208  1.0000
  H   H2163     1.0  0.96908  0.20812  0.70327  1.0000
  H   H2164     1.0  0.84861  0.05822  0.54887  1.0000
  H   H2165     1.0  0.80966  0.45366  0.66561  1.0000
  C   C1223     1.0  0.74304  0.06217  0.51425  1.0000
  C   C1224     1.0  0.97049  0.19926  0.68636  1.0000
  H   H2166     1.0  0.66760  0.11637  0.66980  1.0000
  C   C1225     1.0  0.82509  0.10003  0.60907  1.0000
  N   N70       1.0  0.70267  0.49328  0.52722  1.0000
  N   N71       1.0  0.75562  0.18834  0.68086  1.0000
  C   C1226     1.0  0.79488  0.01962  0.56363  1.0000
  H   H2167     1.0  0.73304  0.29291  0.71087  1.0000
  H   H2168     1.0  0.62007  0.10121  0.57049  1.0000
  H   H2169     1.0  0.82484  0.03738  0.66217  1.0000
  H   H2170     1.0  0.61232  0.43590  0.57419  1.0000
  C   C1227     1.0  0.72111  0.47628  0.52938  1.0000
  H   H2171     1.0  0.87294  0.08989  0.65352  1.0000
  C   C1228     1.0  0.69325  0.49618  0.61973  1.0000
  H   H2172     1.0  0.81160  0.05216  0.60288  1.0000
  H   H2173     1.0  0.61317  0.23699  0.56706  1.0000
  H   H2174     1.0  0.93770  0.21267  0.67265  1.0000
  H   H2175     1.0  0.77220  0.02724  0.52388  1.0000
  H   H2176     1.0  0.74755  0.15100  0.65778  1.0000
  H   H2177     1.0  0.81728  0.33505  0.56563  1.0000
  H   H2178     1.0  0.71024  0.47469  0.48231  1.0000
  H   H2179     1.0  0.72710  0.11767  0.68906  1.0000
  H   H2180     1.0  0.87982  0.41832  0.71221  1.0000
  C   C1229     1.0  0.53437  0.48861  0.49690  1.0000
  H   H2181     1.0  0.79858  0.26264  0.50473  1.0000
  C   C1230     1.0  0.84852  0.32430  0.47047  1.0000
  H   H2182     1.0  0.69713  0.48883  0.56339  1.0000
  H   H2183     1.0  0.81003  0.29608  0.53571  1.0000
  C   C1231     1.0  0.79264  0.40621  0.67775  1.0000
  H   H2184     1.0  0.82809  0.05479  0.52343  1.0000
  C   C1232     1.0  0.55322  0.09260  0.48168  1.0000
  H   H2185     1.0  0.90497  0.10728  0.67367  1.0000
  H   H2186     1.0  0.69672  0.10733  0.52361  1.0000
  C   C1233     1.0  0.99788  0.09421  0.68601  1.0000
  C   C1234     1.0  0.68762  0.15855  0.47758  1.0000
  C   C1235     1.0  0.65385  0.22835  0.48048  1.0000
  C   C1236     1.0  0.71558  0.00890  0.59088  1.0000
  H   H2187     1.0  0.87497  0.06428  0.70064  1.0000
  C   C1237     1.0  0.56313  0.02429  0.52388  1.0000
  H   H2188     1.0  0.64113  0.27813  0.56297  1.0000
  H   H2189     1.0  0.84630  0.08016  0.58770  1.0000
  H   H2190     1.0  0.55712  0.02166  0.54212  1.0000
  H   H2191     1.0  0.79450  0.23458  0.67242  1.0000
  H   H2192     1.0  0.81688  0.40974  0.67801  1.0000
  H   H2193     1.0  0.79428  0.32099  0.52825  1.0000
  H   H2194     1.0  0.76255  0.00538  0.70952  1.0000
  C   C1238     1.0  0.80155  0.31076  0.68983  1.0000
  H   H2195     1.0  0.80355  0.26778  0.63883  1.0000
  C   C1239     1.0  0.70177  0.44042  0.53345  1.0000
  H   H2196     1.0  0.79638  0.43655  0.70573  1.0000
  H   H2197     1.0  0.79299  0.08021  0.51201  1.0000
  H   H2198     1.0  0.78761  0.17060  0.68695  1.0000
  C   C1240     1.0  0.78524  0.24676  0.62964  1.0000
  C   C1241     1.0  0.82616  0.25784  0.47791  1.0000
  H   H2199     1.0  0.64054  0.18283  0.49366  1.0000
  C   C1242     1.0  0.64747  0.20647  0.50052  1.0000
  H   H2200     1.0  0.77316  0.25465  0.61762  1.0000
  C   C1243     1.0  0.56359  0.44699  0.55059  1.0000
  C   C1244     1.0  0.76104  0.22305  0.64615  1.0000
  C   C1245     1.0  0.81636  0.32029  0.53092  1.0000
  C   C1246     1.0  0.77385  0.04325  0.53769  1.0000
  C   C1247     1.0  0.80112  0.07088  0.57240  1.0000
  C   C1248     1.0  0.81601  0.22475  0.48636  1.0000
  H   H2201     1.0  0.66850  0.08609  0.68638  1.0000
  H   H2202     1.0  0.78006  0.09111  0.53710  1.0000
  C   C1249     1.0  0.70496  0.19321  0.68554  1.0000
  C   C1250     1.0  0.71396  0.17186  0.49227  1.0000
  C   C1251     1.0  0.81761  0.39881  0.49005  1.0000
  N   N72       1.0  0.52278  0.03399  0.46966  1.0000
  H   H2203     1.0  0.70471  0.19699  0.66715  1.0000
  H   H2204     1.0  0.76148  0.01163  0.63522  1.0000
  H   H2205     1.0  0.84938  0.34350  0.69998  1.0000
  H   H2206     1.0  0.87059  0.10287  0.50539  1.0000
  H   H2207     1.0  0.77634  0.38217  0.67144  1.0000
  H   H2208     1.0  0.83637  0.11084  0.53254  1.0000
  H   H2209     1.0  0.79680  0.23597  0.61998  1.0000
  H   H2210     1.0  0.74322  0.20280  0.63629  1.0000
  H   H2211     1.0  0.63814  0.47702  0.58055  1.0000
  H   H2212     1.0  0.70984  0.23868  0.69329  1.0000
  H   H2213     1.0  0.85135  0.26892  0.47287  1.0000
  H   H2214     1.0  0.79974  0.49859  0.67379  1.0000
  H   H2215     1.0  0.86775  0.10465  0.68015  1.0000
  C   C1252     1.0  0.53696  0.02521  0.51026  1.0000
  H   H2216     1.0  0.73975  0.49079  0.69138  1.0000
  H   H2217     1.0  0.80128  0.09473  0.61479  1.0000
  H   H2218     1.0  0.79108  0.20375  0.65466  1.0000
  H   H2219     1.0  0.89258  0.13801  0.52200  1.0000
  C   C1253     1.0  0.78219  0.41115  0.70134  1.0000
  H   H2220     1.0  0.77679  0.29570  0.49689  1.0000
  C   C1254     1.0  0.73779  0.47730  0.67583  1.0000
  H   H2221     1.0  0.74063  0.04301  0.61695  1.0000
  H   H2222     1.0  0.56180  0.45451  0.50624  1.0000
  H   H2223     1.0  0.81518  0.02326  0.57439  1.0000
  C   C1255     1.0  0.53908  0.43361  0.51151  1.0000
  H   H2224     1.0  0.76833  0.42645  0.65935  1.0000
  H   H2225     1.0  0.82936  0.22570  0.50185  1.0000
  C   C1256     1.0  0.80328  0.21089  0.70882  1.0000
  C   C1257     1.0  0.73153  0.48810  0.59920  1.0000
  H   H2226     1.0  0.56959  0.04701  0.48209  1.0000
  H   H2227     1.0  0.63374  0.46542  0.53875  1.0000
  H   H2228     1.0  0.73635  0.48071  0.51435  1.0000
  H   H2229     1.0  0.70810  0.13735  0.70091  1.0000
  C   C1258     1.0  0.68383  0.48945  0.54838  1.0000
  H   H2230     1.0  0.68593  0.09519  0.65882  1.0000
  H   H2231     1.0  0.74334  0.45855  0.67992  1.0000
  H   H2232     1.0  0.66970  0.20694  0.69091  1.0000
  S   S266      1.0  0.79316  0.28517  0.71278  1.0000
  H   H2233     1.0  0.66141  0.25260  0.48624  1.0000
  H   H2234     1.0  0.76736  0.34968  0.69937  1.0000
  H   H2235     1.0  0.84591  0.44273  0.70792  1.0000
  C   C1259     1.0  0.69720  0.48769  0.48352  1.0000
  C   C1260     1.0  0.00099  0.12623  0.68140  1.0000
  H   H2236     1.0  0.73796  0.48581  0.54378  1.0000
  H   H2237     1.0  0.63181  0.21973  0.47046  1.0000
  H   H2238     1.0  0.82266  0.22547  0.69687  1.0000
  H   H2239     1.0  0.84600  0.49641  0.59680  1.0000
  H   H2240     1.0  0.76190  0.16489  0.70981  1.0000
  H   H2241     1.0  0.79024  0.47240  0.62971  1.0000
  C   C1261     1.0  0.54446  0.02830  0.48463  1.0000
  H   H2242     1.0  0.58276  0.47046  0.54501  1.0000
  H   H2243     1.0  0.82088  0.38338  0.70784  1.0000
  H   H2244     1.0  0.94031  0.18316  0.65635  1.0000
  H   H2245     1.0  0.98629  0.00411  0.66539  1.0000
  H   H2246     1.0  0.97623  0.16351  0.67020  1.0000
  H   H2247     1.0  0.80006  0.50148  0.60795  1.0000
  H   H2248     1.0  0.79448  0.22565  0.71637  1.0000
  H   H2249     1.0  0.96593  0.01852  0.46868  1.0000
  C   C1262     1.0  0.95632  0.50040  0.46742  1.0000
  C   C1263     1.0  0.93782  0.04531  0.75236  1.0000
  H   H2250     1.0  0.51286  0.29345  0.89472  1.0000
  C   C1264     1.0  0.89201  0.07668  0.89426  1.0000
  H   H2251     1.0  0.79899  0.22946  0.89891  1.0000
  H   H2252     1.0  0.86472  0.41124  0.95857  1.0000
  S   S267      1.0  0.74730  0.04756  0.93029  1.0000
  H   H2253     1.0  0.71584  0.15465  0.83707  1.0000
  C   C1265     1.0  0.75692  0.33332  0.73333  1.0000
  Fe  Fe132     1.0  0.96868  0.04396  0.92026  1.0000
  C   C1266     1.0  0.73012  0.16008  0.82138  1.0000
  C   C1267     1.0  0.72530  0.46052  0.85884  1.0000
  H   H2254     1.0  0.74954  0.12839  0.86733  1.0000
  Fe  Fe133     1.0  0.82103  0.28976  0.79378  1.0000
  S   S268      1.0  0.86393  0.33601  0.80147  1.0000
  S   S269      1.0  0.79412  0.25165  0.81926  1.0000
  S   S270      1.0  0.84080  0.27917  0.76346  1.0000
  S   S271      1.0  0.79825  0.31138  0.77366  1.0000
  Fe  Fe134     1.0  0.87015  0.11331  0.79050  1.0000
  S   S272      1.0  0.92126  0.13454  0.78095  1.0000
  S   S273      1.0  0.86102  0.11161  0.82791  1.0000
  H   H2255     1.0  0.70927  0.10549  0.84358  1.0000
  S   S274      1.0  0.67786  0.04397  0.92640  1.0000
  C   C1268     1.0  0.84211  0.49289  0.91391  1.0000
  Fe  Fe135     1.0  0.90451  0.09754  0.75413  1.0000
  C   C1269     1.0  0.81161  0.24412  0.88477  1.0000
  Fe  Fe136     1.0  0.91130  0.16332  0.75653  1.0000
  C   C1270     1.0  0.79631  0.16670  0.87327  1.0000
  S   S275      1.0  0.85395  0.07358  0.76565  1.0000
  S   S276      1.0  0.86138  0.14481  0.76790  1.0000
  C   C1271     1.0  0.91418  0.24345  0.75376  1.0000
  N   N73       1.0  0.74270  0.13767  0.81907  1.0000
  H   H2256     1.0  0.90521  0.45412  0.86570  1.0000
  Fe  Fe137     1.0  0.70123  0.09267  0.94052  1.0000
  H   H2257     1.0  0.77894  0.33213  0.73415  1.0000
  Fe  Fe138     1.0  0.69246  0.40743  0.90366  1.0000
  S   S277      1.0  0.93124  0.33103  0.77187  1.0000
  H   H2258     1.0  0.77305  0.16282  0.79105  1.0000
  H   H2259     1.0  0.81592  0.29907  0.92846  1.0000
  H   H2260     1.0  0.86914  0.47090  0.88387  1.0000
  C   C1272     1.0  0.91372  0.02072  0.76475  1.0000
  C   C1273     1.0  0.87444  0.02079  0.89290  1.0000
  Fe  Fe139     1.0  0.70607  0.03592  0.95284  1.0000
  C   C1274     1.0  0.84029  0.10594  0.95574  1.0000
  C   C1275     1.0  0.76117  0.06776  0.85699  1.0000
  C   C1276     1.0  0.78767  0.08603  0.87050  1.0000
  C   C1277     1.0  0.81814  0.09943  0.86131  1.0000
  C   C1278     1.0  0.82234  0.09476  0.83853  1.0000
  C   C1279     1.0  0.79591  0.07633  0.82499  1.0000
  C   C1280     1.0  0.76538  0.06266  0.83426  1.0000
  H   H2261     1.0  0.78472  0.09007  0.88805  1.0000
  H   H2262     1.0  0.83847  0.11365  0.87191  1.0000
  H   H2263     1.0  0.79900  0.07230  0.80747  1.0000
  H   H2264     1.0  0.75266  0.43192  0.76879  1.0000
  H   H2265     1.0  0.77221  0.22120  0.86178  1.0000
  H   H2266     1.0  0.73534  0.13263  0.78267  1.0000
  C   C1281     1.0  0.85946  0.28714  0.86932  1.0000
  C   C1282     1.0  0.84493  0.28149  0.84806  1.0000
  C   C1283     1.0  0.81336  0.25798  0.84534  1.0000
  H   H2267     1.0  0.89805  0.02431  0.89785  1.0000
  Fe  Fe140     1.0  0.84281  0.35763  0.77911  1.0000
  H   H2268     1.0  0.81347  0.19008  0.86628  1.0000
  H   H2269     1.0  0.85840  0.29505  0.83380  1.0000
  H   H2270     1.0  0.67317  0.09688  0.81305  1.0000
  S   S278      1.0  0.96510  0.02909  0.88381  1.0000
  H   H2271     1.0  0.81224  0.49691  0.83420  1.0000
  C   C1284     1.0  0.84619  0.41306  0.92593  1.0000
  H   H2272     1.0  0.69516  0.08700  0.79338  1.0000
  C   C1285     1.0  0.96457  0.04345  0.74647  1.0000
  N   N74       1.0  0.78514  0.33241  0.86277  1.0000
  C   C1286     1.0  0.81645  0.34311  0.85130  1.0000
  C   C1287     1.0  0.76165  0.30002  0.85430  1.0000
  C   C1288     1.0  0.77450  0.35571  0.85745  1.0000
  C   C1289     1.0  0.78790  0.33099  0.88807  1.0000
  C   C1290     1.0  0.80127  0.31030  0.89694  1.0000
  C   C1291     1.0  0.84503  0.37315  0.86116  1.0000
  C   C1292     1.0  0.73993  0.34545  0.86409  1.0000
  C   C1293     1.0  0.75398  0.29761  0.82872  1.0000
  C   C1294     1.0  0.72678  0.26495  0.82258  1.0000
  S   S279      1.0  0.87862  0.41663  0.91033  1.0000
  C   C1295     1.0  0.87514  0.38287  0.84774  1.0000
  C   C1296     1.0  0.73229  0.37135  0.85918  1.0000
  H   H2273     1.0  0.81490  0.34780  0.83306  1.0000
  H   H2274     1.0  0.82250  0.32413  0.85153  1.0000
  H   H2275     1.0  0.77068  0.28358  0.85729  1.0000
  H   H2276     1.0  0.73921  0.28998  0.86403  1.0000
  H   H2277     1.0  0.77749  0.36189  0.83916  1.0000
  H   H2278     1.0  0.78997  0.37838  0.86619  1.0000
  H   H2279     1.0  0.80256  0.35501  0.89519  1.0000
  H   H2280     1.0  0.76438  0.32162  0.89613  1.0000
  H   H2281     1.0  0.82473  0.31739  0.88963  1.0000
  H   H2282     1.0  0.78500  0.28521  0.89286  1.0000
  H   H2283     1.0  0.84070  0.39321  0.86115  1.0000
  H   H2284     1.0  0.84983  0.36883  0.87865  1.0000
  H   H2285     1.0  0.73581  0.34005  0.88235  1.0000
  H   H2286     1.0  0.72275  0.32441  0.85445  1.0000
  H   H2287     1.0  0.74719  0.31493  0.82317  1.0000
  H   H2288     1.0  0.77502  0.30178  0.81897  1.0000
  H   H2289     1.0  0.72340  0.26318  0.80398  1.0000
  H   H2290     1.0  0.73205  0.24649  0.82816  1.0000
  H   H2291     1.0  0.70449  0.26073  0.83062  1.0000
  Fe  Fe141     1.0  0.66477  0.41801  0.94578  1.0000
  H   H2292     1.0  0.59736  0.42689  0.85760  1.0000
  H   H2293     1.0  0.74743  0.18908  0.77818  1.0000
  H   H2294     1.0  0.88023  0.36328  0.84704  1.0000
  H   H2295     1.0  0.87288  0.39015  0.83039  1.0000
  H   H2296     1.0  0.89549  0.40298  0.85621  1.0000
  H   H2297     1.0  0.70722  0.36297  0.86355  1.0000
  H   H2298     1.0  0.74747  0.39246  0.86957  1.0000
  H   H2299     1.0  0.72961  0.09040  0.82854  1.0000
  Fe  Fe142     1.0  0.76691  0.09645  0.94354  1.0000
  H   H2300     1.0  0.81290  0.02799  0.72217  1.0000
  C   C1297     1.0  0.63505  0.10851  0.94673  1.0000
  Fe  Fe143     1.0  0.72188  0.06138  0.90526  1.0000
  H   H2301     1.0  0.91811  0.15713  0.89045  1.0000
  H   H2302     1.0  0.91263  0.07886  0.90391  1.0000
  C   C1298     1.0  0.94281  0.24507  0.75945  1.0000
  H   H2303     1.0  0.87580  0.28966  0.96301  1.0000
  C   C1299     1.0  0.62477  0.40694  0.84580  1.0000
  C   C1300     1.0  0.91031  0.26969  0.75731  1.0000
  H   H2304     1.0  0.59723  0.46809  0.87231  1.0000
  C   C1301     1.0  0.90310  0.10869  0.88244  1.0000
  C   C1302     1.0  0.72971  0.30042  0.72780  1.0000
  H   H2305     1.0  0.75237  0.33971  0.75026  1.0000
  C   C1303     1.0  0.57161  0.09602  0.94334  1.0000
  H   H2306     1.0  0.80678  0.15127  0.87272  1.0000
  S   S280      1.0  0.94382  0.34080  0.93478  1.0000
  H   H2307     1.0  0.63219  0.49615  0.84262  1.0000
  H   H2308     1.0  0.95755  0.19831  0.81680  1.0000
  H   H2309     1.0  0.58195  0.48378  0.92121  1.0000
  H   H2310     1.0  0.99240  0.19046  0.77112  1.0000
  H   H2311     1.0  0.60575  0.39138  0.83385  1.0000
  C   C1304     1.0  0.61670  0.48004  0.88486  1.0000
  H   H2312     1.0  0.92416  0.13605  0.91304  1.0000
  H   H2313     1.0  0.66770  0.46774  0.91453  1.0000
  H   H2314     1.0  0.62268  0.39336  0.86135  1.0000
  S   S281      1.0  0.89863  0.12819  0.72861  1.0000
  H   H2315     1.0  0.64795  0.41434  0.83773  1.0000
  C   C1305     1.0  0.57660  0.43208  0.96045  1.0000
  S   S282      1.0  0.72272  0.05226  0.86797  1.0000
  H   H2316     1.0  0.74247  0.39464  0.78177  1.0000
  C   C1306     1.0  0.90782  0.13417  0.89926  1.0000
  H   H2317     1.0  0.66237  0.05065  0.83663  1.0000
  H   H2318     1.0  0.78171  0.30371  0.93090  1.0000
  H   H2319     1.0  0.96036  0.42172  0.82518  1.0000
  C   C1307     1.0  0.84626  0.43353  0.78656  1.0000
  H   H2320     1.0  0.88471  0.12878  0.90653  1.0000
  C   C1308     1.0  0.87344  0.12164  0.95403  1.0000
  H   H2321     1.0  0.73509  0.21144  0.79509  1.0000
  S   S283      1.0  0.95456  0.41309  0.93558  1.0000
  C   C1309     1.0  0.84274  0.26842  0.88769  1.0000
  H   H2322     1.0  0.94501  0.38256  0.81422  1.0000
  H   H2323     1.0  0.71212  0.40045  0.76927  1.0000
  H   H2324     1.0  0.82071  0.33780  0.92769  1.0000
  C   C1310     1.0  0.79669  0.23927  0.86374  1.0000
  H   H2325     1.0  0.79191  0.16979  0.89120  1.0000
  Fe  Fe144     1.0  0.88295  0.32661  0.76976  1.0000
  H   H2326     1.0  0.88559  0.10675  0.86975  1.0000
  H   H2327     1.0  0.67000  0.46080  0.86403  1.0000
  C   C1311     1.0  0.59648  0.12603  0.94884  1.0000
  H   H2328     1.0  0.54742  0.22038  0.95198  1.0000
  H   H2329     1.0  0.64082  0.44183  0.88475  1.0000
  H   H2330     1.0  0.78942  0.12334  0.80013  1.0000
  S   S284      1.0  0.93509  0.07772  0.74211  1.0000
  H   H2331     1.0  0.74496  0.04817  0.82381  1.0000
  N   N75       1.0  0.90516  0.23921  0.84353  1.0000
  C   C1312     1.0  0.87387  0.22103  0.83135  1.0000
  C   C1313     1.0  0.89916  0.23666  0.86868  1.0000
  C   C1314     1.0  0.91930  0.27340  0.83703  1.0000
  C   C1315     1.0  0.92848  0.22881  0.83731  1.0000
  C   C1316     1.0  0.91496  0.19331  0.83245  1.0000
  C   C1317     1.0  0.87507  0.22617  0.80546  1.0000
  C   C1318     1.0  0.94888  0.29734  0.85057  1.0000
  C   C1319     1.0  0.88447  0.20349  0.87929  1.0000
  C   C1320     1.0  0.87328  0.20325  0.90341  1.0000
  C   C1321     1.0  0.94149  0.18551  0.83108  1.0000
  C   C1322     1.0  0.84354  0.20360  0.79424  1.0000
  C   C1323     1.0  0.96472  0.32953  0.83924  1.0000
  H   H2332     1.0  0.85663  0.22747  0.83818  1.0000
  H   H2333     1.0  0.86290  0.19542  0.83432  1.0000
  H   H2334     1.0  0.92152  0.25093  0.87824  1.0000
  H   H2335     1.0  0.88379  0.24661  0.87293  1.0000
  H   H2336     1.0  0.90138  0.28090  0.83856  1.0000
  H   H2337     1.0  0.92640  0.27689  0.81892  1.0000
  H   H2338     1.0  0.94190  0.24117  0.82181  1.0000
  H   H2339     1.0  0.94675  0.23594  0.85081  1.0000
  H   H2340     1.0  0.90217  0.18670  0.81604  1.0000
  H   H2341     1.0  0.89818  0.17805  0.84546  1.0000
  H   H2342     1.0  0.87995  0.25028  0.80152  1.0000
  H   H2343     1.0  0.89384  0.22292  0.79775  1.0000
  H   H2344     1.0  0.80807  0.48847  0.87313  1.0000
  H   H2345     1.0  0.94196  0.30050  0.86780  1.0000
  H   H2346     1.0  0.86388  0.18564  0.86964  1.0000
  H   H2347     1.0  0.90263  0.19631  0.88022  1.0000
  H   H2348     1.0  0.86361  0.17941  0.91083  1.0000
  H   H2349     1.0  0.89319  0.22029  0.91417  1.0000
  H   H2350     1.0  0.85429  0.20940  0.90353  1.0000
  H   H2351     1.0  0.84136  0.44206  0.73801  1.0000
  H   H2352     1.0  0.93119  0.15990  0.82827  1.0000
  H   H2353     1.0  0.56829  0.33263  0.95497  1.0000
  H   H2354     1.0  0.83636  0.17886  0.79823  1.0000
  H   H2355     1.0  0.82506  0.20884  0.79996  1.0000
  H   H2356     1.0  0.84589  0.20675  0.77565  1.0000
  H   H2357     1.0  0.89160  0.49726  0.83601  1.0000
  H   H2358     1.0  0.94734  0.33755  0.83692  1.0000
  H   H2359     1.0  0.78385  0.01954  0.85943  1.0000
  H   H2360     1.0  0.65017  0.49033  0.92372  1.0000
  H   H2361     1.0  0.70675  0.29992  0.72813  1.0000
  H   H2362     1.0  0.81782  0.38287  0.73749  1.0000
  C   C1324     1.0  0.79483  0.00818  0.84974  1.0000
  S   S285      1.0  0.71327  0.44478  0.93033  1.0000
  S   S286      1.0  0.74342  0.11110  0.91731  1.0000
  Fe  Fe145     1.0  0.84934  0.10703  0.74199  1.0000
  Fe  Fe146     1.0  0.65971  0.35480  0.93885  1.0000
  H   H2363     1.0  0.72467  0.36821  0.74445  1.0000
  C   C1325     1.0  0.82188  0.41369  0.96153  1.0000
  Fe  Fe147     1.0  0.82279  0.30591  0.74385  1.0000
  H   H2364     1.0  0.51215  0.33708  0.93144  1.0000
  C   C1326     1.0  0.56149  0.40715  0.91694  1.0000
  N   N76       1.0  0.64785  0.48724  0.87471  1.0000
  C   C1327     1.0  0.73703  0.40601  0.76760  1.0000
  H   H2365     1.0  0.94340  0.04292  0.83624  1.0000
  H   H2366     1.0  0.92607  0.11669  0.87385  1.0000
  H   H2367     1.0  0.82973  0.48881  0.94934  1.0000
  S   S287      1.0  0.88393  0.35138  0.94583  1.0000
  C   C1328     1.0  0.89016  0.10568  0.95832  1.0000
  C   C1329     1.0  0.62766  0.13213  0.95066  1.0000
  H   H2368     1.0  0.91792  0.50080  0.78317  1.0000
  H   H2369     1.0  0.73562  0.37772  0.84099  1.0000
  H   H2370     1.0  0.79331  0.17300  0.96597  1.0000
  H   H2371     1.0  0.89302  0.02193  0.76950  1.0000
  H   H2372     1.0  0.69671  0.13933  0.79193  1.0000
  H   H2373     1.0  0.74989  0.09159  0.79445  1.0000
  H   H2374     1.0  0.86246  0.45785  0.84454  1.0000
  H   H2375     1.0  0.88390  0.30528  0.87129  1.0000
  C   C1330     1.0  0.76748  0.11633  0.79037  1.0000
  H   H2376     1.0  0.77758  0.44625  0.81832  1.0000
  H   H2377     1.0  0.61034  0.46299  0.89889  1.0000
  C   C1331     1.0  0.62173  0.43564  0.85130  1.0000
  C   C1332     1.0  0.85537  0.01495  0.91502  1.0000
  C   C1333     1.0  0.76528  0.15194  0.85997  1.0000
  N   N77       1.0  0.78369  0.39119  0.72010  1.0000
  H   H2378     1.0  0.71933  0.45025  0.82321  1.0000
  H   H2379     1.0  0.80018  0.18853  0.74123  1.0000
  Fe  Fe148     1.0  0.72479  0.41107  0.94769  1.0000
  H   H2380     1.0  0.68020  0.49063  0.83302  1.0000
  H   H2381     1.0  0.84535  0.02168  0.72160  1.0000
  C   C1334     1.0  0.79708  0.41482  0.92644  1.0000
  H   H2382     1.0  0.55447  0.29295  0.92666  1.0000
  Fe  Fe149     1.0  0.89592  0.32556  0.92042  1.0000
  C   C1335     1.0  0.73917  0.18554  0.91771  1.0000
  C   C1336     1.0  0.84769  0.04321  0.86895  1.0000
  H   H2383     1.0  0.62477  0.44851  0.83529  1.0000
  S   S288      1.0  0.93658  0.01580  0.94840  1.0000
  C   C1337     1.0  0.80504  0.31292  0.92259  1.0000
  S   S289      1.0  0.82769  0.39236  0.79041  1.0000
  H   H2384     1.0  0.88878  0.26866  0.75199  1.0000
  S   S290      1.0  0.53289  0.09117  0.94230  1.0000
  H   H2385     1.0  0.54981  0.26823  0.96561  1.0000
  H   H2386     1.0  0.90649  0.07538  0.85031  1.0000
  S   S291      1.0  0.91337  0.36409  0.89480  1.0000
  S   S292      1.0  0.67559  0.11913  0.94970  1.0000
  Fe  Fe150     1.0  0.96093  0.38168  0.91120  1.0000
  C   C1338     1.0  0.84578  0.41192  0.94953  1.0000
  C   C1339     1.0  0.96417  0.40131  0.82459  1.0000
  Fe  Fe151     1.0  0.90490  0.39155  0.92148  1.0000
  C   C1340     1.0  0.77110  0.14912  0.83455  1.0000
  C   C1341     1.0  0.67086  0.49166  0.91503  1.0000
  C   C1342     1.0  0.78678  0.44627  0.83549  1.0000
  H   H2387     1.0  0.97441  0.32855  0.82253  1.0000
  S   S293      1.0  0.86034  0.27466  0.91434  1.0000
  C   C1343     1.0  0.53088  0.27881  0.93486  1.0000
  S   S294      1.0  0.81967  0.12640  0.95055  1.0000
  H   H2388     1.0  0.78093  0.13307  0.83400  1.0000
  H   H2389     1.0  0.79126  0.42728  0.74418  1.0000
  H   H2390     1.0  0.97549  0.17673  0.72972  1.0000
  H   H2391     1.0  0.79039  0.17253  0.82882  1.0000
  H   H2392     1.0  0.76807  0.44180  0.84787  1.0000
  S   S295      1.0  0.64336  0.38225  0.91826  1.0000
  C   C1344     1.0  0.77595  0.11739  0.76547  1.0000
  C   C1345     1.0  0.70893  0.16110  0.80198  1.0000
  C   C1346     1.0  0.61033  0.07816  0.94118  1.0000
  S   S296      1.0  0.70605  0.37470  0.92044  1.0000
  H   H2393     1.0  0.75440  0.16669  0.86267  1.0000
  H   H2394     1.0  0.87431  0.07394  0.90721  1.0000
  C   C1347     1.0  0.59038  0.41389  0.92689  1.0000
  S   S297      1.0  0.96941  0.08853  0.92972  1.0000
  C   C1348     1.0  0.82713  0.44727  0.78635  1.0000
  S   S298      1.0  0.70106  0.42072  0.86668  1.0000
  S   S299      1.0  0.86636  0.35330  0.74772  1.0000
  H   H2395     1.0  0.60708  0.41059  0.91726  1.0000
  H   H2396     1.0  0.89542  0.22237  0.74603  1.0000
  H   H2397     1.0  0.98791  0.01621  0.74769  1.0000
  C   C1349     1.0  0.57858  0.07188  0.93956  1.0000
  C   C1350     1.0  0.64644  0.45660  0.86935  1.0000
  C   C1351     1.0  0.82158  0.41422  0.91446  1.0000
  S   S300      1.0  0.95000  0.21401  0.75370  1.0000
  H   H2398     1.0  0.85248  0.05745  0.85332  1.0000
  H   H2399     1.0  0.91568  0.11799  0.95711  1.0000
  C   C1352     1.0  0.93475  0.29738  0.76694  1.0000
  N   N78       1.0  0.87846  0.04823  0.87894  1.0000
  H   H2400     1.0  0.55968  0.04859  0.93524  1.0000
  H   H2401     1.0  0.98343  0.06237  0.73702  1.0000
  H   H2402     1.0  0.98964  0.27444  0.77290  1.0000
  H   H2403     1.0  0.54635  0.33793  0.92025  1.0000
  C   C1353     1.0  0.73011  0.46851  0.83587  1.0000
  H   H2404     1.0  0.98437  0.34679  0.85004  1.0000
  H   H2405     1.0  0.79466  0.14141  0.76060  1.0000
  H   H2406     1.0  0.51431  0.26361  0.92146  1.0000
  H   H2407     1.0  0.96657  0.28959  0.85199  1.0000
  C   C1354     1.0  0.72157  0.31535  0.96214  1.0000
  H   H2408     1.0  0.74991  0.18459  0.82401  1.0000
  H   H2409     1.0  0.88878  0.00595  0.85152  1.0000
  S   S301      1.0  0.76997  0.42114  0.96555  1.0000
  Fe  Fe152     1.0  0.93386  0.37049  0.95807  1.0000
  C   C1355     1.0  0.72679  0.18897  0.78592  1.0000
  H   H2410     1.0  0.78203  0.39113  0.75669  1.0000
  H   H2411     1.0  0.61564  0.05962  0.93814  1.0000
  H   H2412     1.0  0.81881  0.45896  0.87278  1.0000
  C   C1356     1.0  0.77607  0.40142  0.74205  1.0000
  H   H2413     1.0  0.82192  0.41545  0.89624  1.0000
  C   C1357     1.0  0.96708  0.01718  0.75246  1.0000
  H   H2414     1.0  0.73607  0.47878  0.89262  1.0000
  H   H2415     1.0  0.74218  0.17047  0.90523  1.0000
  H   H2416     1.0  0.74580  0.20837  0.90958  1.0000
  H   H2417     1.0  0.83455  0.01799  0.91252  1.0000
  C   C1358     1.0  0.54713  0.42430  0.95078  1.0000
  C   C1359     1.0  0.71839  0.10501  0.82650  1.0000
  C   C1360     1.0  0.96321  0.29870  0.77264  1.0000
  H   H2418     1.0  0.78454  0.20045  0.93276  1.0000
  H   H2419     1.0  0.96264  0.39225  0.84202  1.0000
  H   H2420     1.0  0.81220  0.26146  0.95557  1.0000
  H   H2421     1.0  0.56902  0.25172  0.93219  1.0000
  C   C1361     1.0  0.87908  0.45291  0.78502  1.0000
  H   H2422     1.0  0.71382  0.17389  0.92242  1.0000
  H   H2423     1.0  0.89415  0.44266  0.78540  1.0000
  C   C1362     1.0  0.82511  0.48230  0.86552  1.0000
  H   H2424     1.0  0.77866  0.41639  0.91740  1.0000
  H   H2425     1.0  0.72908  0.28342  0.74045  1.0000
  H   H2426     1.0  0.95522  0.19172  0.84709  1.0000
  H   H2427     1.0  0.68973  0.16380  0.80973  1.0000
  H   H2428     1.0  0.75484  0.10989  0.75453  1.0000
  H   H2429     1.0  0.80183  0.43252  0.78785  1.0000
  H   H2430     1.0  0.91550  0.01704  0.81555  1.0000
  H   H2431     1.0  0.73475  0.40518  0.73145  1.0000
  C   C1363     1.0  0.90244  0.05477  0.86063  1.0000
  H   H2432     1.0  0.64810  0.03979  0.80806  1.0000
  C   C1364     1.0  0.89401  0.02825  0.84325  1.0000
  H   H2433     1.0  0.56285  0.48287  0.89480  1.0000
  C   C1365     1.0  0.96729  0.27283  0.76878  1.0000
  H   H2434     1.0  0.83606  0.05221  0.88050  1.0000
  H   H2435     1.0  0.87072  0.03214  0.92799  1.0000
  H   H2436     1.0  0.98240  0.32001  0.77979  1.0000
  C   C1366     1.0  0.59835  0.42685  0.94855  1.0000
  H   H2437     1.0  0.83549  0.47868  0.82962  1.0000
  H   H2438     1.0  0.78509  0.10110  0.76255  1.0000
  N   N79       1.0  0.52027  0.30046  0.94446  1.0000
  H   H2439     1.0  0.71070  0.18776  0.77217  1.0000
  C   C1367     1.0  0.75420  0.13849  0.79530  1.0000
  C   C1368     1.0  0.89249  0.48585  0.78380  1.0000
  C   C1369     1.0  0.81650  0.47783  0.84005  1.0000
  C   C1370     1.0  0.53324  0.25572  0.95152  1.0000
  C   C1371     1.0  0.52141  0.32176  0.92554  1.0000
  H   H2440     1.0  0.83831  0.22204  0.73511  1.0000
  H   H2441     1.0  0.99797  0.38926  0.81212  1.0000
  C   C1372     1.0  0.74142  0.39390  0.74492  1.0000
  H   H2442     1.0  0.55635  0.39870  0.89974  1.0000
  S   S302      1.0  0.62885  0.30475  0.95078  1.0000
  C   C1373     1.0  0.54530  0.23623  0.93961  1.0000
  C   C1374     1.0  0.81778  0.20090  0.72769  1.0000
  C   C1375     1.0  0.88450  0.47952  0.84962  1.0000
  H   H2443     1.0  0.75189  0.16675  0.94590  1.0000
  C   C1376     1.0  0.53968  0.41217  0.92883  1.0000
  C   C1377     1.0  0.75982  0.19029  0.93852  1.0000
  C   C1378     1.0  0.68885  0.08676  0.81135  1.0000
  C   C1379     1.0  0.87320  0.49956  0.78370  1.0000
  H   H2444     1.0  0.91186  0.45996  0.83567  1.0000
  C   C1380     1.0  0.79770  0.41558  0.95006  1.0000
  S   S303      1.0  0.63563  0.43770  0.96077  1.0000
  C   C1381     1.0  0.73932  0.48438  0.87499  1.0000
  C   C1382     1.0  0.87937  0.49161  0.87242  1.0000
  H   H2445     1.0  0.52567  0.34618  0.88189  1.0000
  H   H2446     1.0  0.88617  0.14616  0.94926  1.0000
  H   H2447     1.0  0.68388  0.04058  0.81680  1.0000
  H   H2448     1.0  0.89522  0.45514  0.72713  1.0000
  H   H2449     1.0  0.92571  0.06101  0.86842  1.0000
  S   S304      1.0  0.80636  0.08715  0.71945  1.0000
  H   H2450     1.0  0.85532  0.48032  0.91684  1.0000
  H   H2451     1.0  0.54214  0.36469  0.95885  1.0000
  H   H2452     1.0  0.79237  0.42703  0.83657  1.0000
  H   H2453     1.0  0.69661  0.50145  0.94665  1.0000
  C   C1383     1.0  0.66968  0.05237  0.81869  1.0000
  H   H2454     1.0  0.52871  0.22164  0.92602  1.0000
  H   H2455     1.0  0.64631  0.15558  0.95492  1.0000
  C   C1384     1.0  0.82191  0.00891  0.86322  1.0000
  H   H2456     1.0  0.92559  0.05766  0.81642  1.0000
  H   H2457     1.0  0.80357  0.02052  0.83335  1.0000
  C   C1385     1.0  0.58334  0.49765  0.90598  1.0000
  Fe  Fe153     1.0  0.94014  0.06115  0.95957  1.0000
  H   H2458     1.0  0.87344  0.02443  0.83287  1.0000
  C   C1386     1.0  0.54392  0.32109  0.96218  1.0000
  C   C1387     1.0  0.91043  0.47098  0.85164  1.0000
  H   H2459     1.0  0.50956  0.23883  0.95828  1.0000
  C   C1388     1.0  0.81626  0.39511  0.72212  1.0000
  H   H2460     1.0  0.99641  0.42034  0.79711  1.0000
  H   H2461     1.0  0.87578  0.41879  0.74259  1.0000
  H   H2462     1.0  0.81732  0.47560  0.90937  1.0000
  H   H2463     1.0  0.53078  0.42896  0.95990  1.0000
  H   H2464     1.0  0.73178  0.32680  0.94570  1.0000
  H   H2465     1.0  0.69558  0.30003  0.95997  1.0000
  C   C1389     1.0  0.92138  0.03717  0.82691  1.0000
  H   H2466     1.0  0.59161  0.14490  0.95173  1.0000
  H   H2467     1.0  0.73095  0.19665  0.96187  1.0000
  C   C1390     1.0  0.82411  0.07435  0.96213  1.0000
  C   C1391     1.0  0.74885  0.50003  0.82917  1.0000
  C   C1392     1.0  0.84040  0.47997  0.78447  1.0000
  H   H2468     1.0  0.99994  0.15185  0.74910  1.0000
  C   C1393     1.0  0.00067  0.18597  0.72484  1.0000
  C   C1394     1.0  0.99630  0.41080  0.81408  1.0000
  H   H2469     1.0  0.81985  0.23033  0.95697  1.0000
  C   C1395     1.0  0.75584  0.21121  0.95610  1.0000
  H   H2470     1.0  0.75726  0.23184  0.94714  1.0000
  C   C1396     1.0  0.84415  0.42948  0.72352  1.0000
  C   C1397     1.0  0.87563  0.43035  0.72652  1.0000
  S   S305      1.0  0.00324  0.39239  0.88964  1.0000
  H   H2471     1.0  0.93371  0.49236  0.85479  1.0000
  C   C1398     1.0  0.87383  0.07414  0.96500  1.0000
  H   H2472     1.0  0.82523  0.49001  0.78451  1.0000
  H   H2473     1.0  0.79872  0.06210  0.96375  1.0000
  H   H2474     1.0  0.82620  0.18529  0.72101  1.0000
  Fe  Fe154     1.0  0.95378  0.94269  0.11093  1.0000
  S   S306      1.0  0.92690  0.89960  0.08939  1.0000
  S   S307      1.0  0.97445  0.99098  0.09510  1.0000
  Fe  Fe155     1.0  0.94645  0.90400  0.15357  1.0000
  S   S308      1.0  0.91889  0.85929  0.13451  1.0000
  S   S309      1.0  0.95975  0.89702  0.18893  1.0000
  Fe  Fe156     1.0  0.95576  0.88235  0.10766  1.0000
  S   S310      1.0  0.98010  0.85715  0.09312  1.0000
  Fe  Fe157     1.0  0.89328  0.88194  0.11870  1.0000
  S   S311      1.0  0.83996  0.85233  0.11418  1.0000
  S   S312      1.0  0.98449  0.92643  0.12738  1.0000
  S   S313      1.0  0.91865  0.92567  0.13965  1.0000
  H   H2475     1.0  0.74433  0.90884  0.17285  1.0000
  C   C1399     1.0  0.51301  0.96733  0.00385  1.0000
  Fe  Fe158     1.0  0.67348  0.94658  0.09936  1.0000
  H   H2476     1.0  0.55770  0.98201  0.16359  1.0000
  S   S314      1.0  0.63139  0.94973  0.08630  1.0000
  Fe  Fe159     1.0  0.72028  0.92337  0.11181  1.0000
  S   S315      1.0  0.75965  0.97191  0.11979  1.0000
  S   S316      1.0  0.72553  0.88013  0.11524  1.0000
  Fe  Fe160     1.0  0.72158  0.97684  0.13721  1.0000
  C   C1400     1.0  0.89002  0.74097  0.17541  1.0000
  Fe  Fe161     1.0  0.74361  0.98585  0.08837  1.0000
  H   H2477     1.0  0.00369  0.83375  0.20217  1.0000
  S   S317      1.0  0.68267  0.92750  0.13122  1.0000
  S   S318      1.0  0.70657  0.93675  0.07903  1.0000
  H   H2478     1.0  0.82914  0.97742  0.99254  1.0000
  H   H2479     1.0  0.59227  0.84447  0.20685  1.0000
  C   C1401     1.0  0.63503  0.99365  0.19424  1.0000
  C   C1402     1.0  0.70645  0.90925  0.19155  1.0000
  H   H2480     1.0  0.89326  0.85249  0.18315  1.0000
  H   H2481     1.0  0.79975  0.81051  0.15303  1.0000
  N   N80       1.0  0.51454  0.94601  0.02156  1.0000
  H   H2482     1.0  0.90638  0.82264  0.07184  1.0000
  H   H2483     1.0  0.84255  0.71412  0.16372  1.0000
  C   C1403     1.0  0.71572  0.99499  0.04010  1.0000
  C   C1404     1.0  0.76205  0.93859  0.00342  1.0000
  H   H2484     1.0  0.51628  0.87159  0.18410  1.0000
  H   H2485     1.0  0.84364  0.94406  0.96925  1.0000
  H   H2486     1.0  0.61922  0.98096  0.15985  1.0000
  H   H2487     1.0  0.99586  0.86851  0.17140  1.0000
  H   H2488     1.0  0.66324  0.86473  0.19536  1.0000
  C   C1405     1.0  0.99570  0.89734  0.03198  1.0000
  H   H2489     1.0  0.52372  0.95057  0.19582  1.0000
  H   H2490     1.0  0.79179  0.93895  0.07985  1.0000
  H   H2491     1.0  0.97442  0.94756  0.02058  1.0000
  H   H2492     1.0  0.89853  0.79991  0.10983  1.0000
  C   C1406     1.0  0.69571  0.98937  0.02153  1.0000
  H   H2493     1.0  0.99626  0.81459  0.16819  1.0000
  H   H2494     1.0  0.79633  0.97510  0.06914  1.0000
  H   H2495     1.0  0.54477  0.93369  0.18263  1.0000
  H   H2496     1.0  0.62045  0.93188  0.19905  1.0000
  H   H2497     1.0  0.70551  0.98449  0.05610  1.0000
  H   H2498     1.0  0.77566  0.93770  0.98881  1.0000
  C   C1407     1.0  0.52738  0.89425  0.10706  1.0000
  C   C1408     1.0  0.88366  0.81197  0.20317  1.0000
  H   H2499     1.0  0.68992  0.94856  0.20760  1.0000
  H   H2500     1.0  0.53640  0.85682  0.11552  1.0000
  H   H2501     1.0  0.79942  0.97950  0.02094  1.0000
  H   H2502     1.0  0.61279  0.92127  0.15699  1.0000
  H   H2503     1.0  0.58313  0.88113  0.16324  1.0000
  C   C1409     1.0  0.66611  0.98784  0.16469  1.0000
  H   H2504     1.0  0.78688  0.64540  0.12037  1.0000
  H   H2505     1.0  0.87962  0.74780  0.13216  1.0000
  C   C1410     1.0  0.95846  0.81509  0.15036  1.0000
  H   H2506     1.0  0.89348  0.78140  0.07020  1.0000
  H   H2507     1.0  0.79451  0.79643  0.18167  1.0000
  H   H2508     1.0  0.74307  0.91431  0.00736  1.0000
  H   H2509     1.0  0.65555  0.91856  0.17799  1.0000
  C   C1411     1.0  0.77919  0.90628  0.04058  1.0000
  H   H2510     1.0  0.53249  0.95718  0.97361  1.0000
  C   C1412     1.0  0.58410  0.93068  0.03417  1.0000
  H   H2511     1.0  0.81246  0.88816  0.04236  1.0000
  H   H2512     1.0  0.80602  0.91832  0.00101  1.0000
  C   C1413     1.0  0.53379  0.96140  0.16074  1.0000
  H   H2513     1.0  0.57735  0.91303  0.17166  1.0000
  C   C1414     1.0  0.94797  0.84478  0.21376  1.0000
  H   H2514     1.0  0.66825  0.98219  0.14740  1.0000
  H   H2515     1.0  0.85862  0.79975  0.19953  1.0000
  H   H2516     1.0  0.72946  0.88132  0.19601  1.0000
  C   C1415     1.0  0.83412  0.98047  0.09060  1.0000
  H   H2517     1.0  0.53437  0.99105  0.00472  1.0000
  H   H2518     1.0  0.94720  0.81861  0.16547  1.0000
  H   H2519     1.0  0.86593  0.79511  0.06428  1.0000
  C   C1416     1.0  0.84295  0.96755  0.00031  1.0000
  C   C1417     1.0  0.59255  0.92915  0.09712  1.0000
  C   C1418     1.0  0.57333  0.94270  0.09490  1.0000
  S   S319      1.0  0.72609  0.99747  0.17170  1.0000
  C   C1419     1.0  0.72264  0.89200  0.18215  1.0000
  C   C1420     1.0  0.55014  0.92429  0.03534  1.0000
  H   H2520     1.0  0.58337  0.96625  0.08838  1.0000
  H   H2521     1.0  0.81866  0.76471  0.17314  1.0000
  C   C1421     1.0  0.81012  0.86289  0.11604  1.0000
  C   C1422     1.0  0.77869  0.83835  0.11540  1.0000
  C   C1423     1.0  0.75361  0.84444  0.11572  1.0000
  C   C1424     1.0  0.75923  0.87525  0.11644  1.0000
  C   C1425     1.0  0.79070  0.90015  0.11770  1.0000
  C   C1426     1.0  0.81619  0.89399  0.11747  1.0000
  H   H2522     1.0  0.77359  0.81431  0.11434  1.0000
  H   H2523     1.0  0.72954  0.82502  0.11492  1.0000
  H   H2524     1.0  0.79533  0.92399  0.11892  1.0000
  H   H2525     1.0  0.84036  0.91318  0.11818  1.0000
  C   C1427     1.0  0.97697  0.99196  0.06538  1.0000
  H   H2526     1.0  0.76135  0.90649  0.05214  1.0000
  S   S320      1.0  0.98714  0.99552  0.98844  1.0000
  S   S321      1.0  0.68320  0.99647  0.97766  1.0000
  C   C1428     1.0  0.97680  0.96756  0.02974  1.0000
  C   C1429     1.0  0.97460  0.96645  0.05336  1.0000
  H   H2527     1.0  0.78642  0.75509  0.15417  1.0000
  H   H2528     1.0  0.52761  0.98775  0.08641  1.0000
  H   H2529     1.0  0.83378  0.82176  0.17095  1.0000
  H   H2530     1.0  0.97174  0.94609  0.06225  1.0000
  H   H2531     1.0  0.82277  0.98295  0.10603  1.0000
  H   H2532     1.0  0.90032  0.73126  0.16341  1.0000
  H   H2533     1.0  0.54551  0.92831  0.05288  1.0000
  C   C1430     1.0  0.78520  0.66473  0.12867  1.0000
  H   H2534     1.0  0.52781  0.89538  0.20854  1.0000
  H   H2535     1.0  0.76516  0.89117  0.02617  1.0000
  H   H2536     1.0  0.84033  0.98307  0.04477  1.0000
  H   H2537     1.0  0.94698  0.78958  0.14672  1.0000
  C   C1431     1.0  0.81256  0.69640  0.12096  1.0000
  H   H2538     1.0  0.70677  0.87339  0.17009  1.0000
  H   H2539     1.0  0.54524  0.93589  0.00142  1.0000
  C   C1432     1.0  0.79397  0.88873  0.05275  1.0000
  S   S322      1.0  0.71042  0.99641  0.10692  1.0000
  H   H2540     1.0  0.00188  0.88246  0.02156  1.0000
  C   C1433     1.0  0.54415  0.98911  0.05196  1.0000
  C   C1434     1.0  0.78348  0.95406  0.02441  1.0000
  H   H2541     1.0  0.59003  0.92703  0.01677  1.0000
  H   H2542     1.0  0.52622  0.93592  0.09785  1.0000
  C   C1435     1.0  0.54679  0.88101  0.11012  1.0000
  H   H2543     1.0  0.85174  0.74975  0.17824  1.0000
  C   C1436     1.0  0.54469  0.94516  0.01840  1.0000
  H   H2544     1.0  0.72384  0.92868  0.20242  1.0000
  N   N81       1.0  0.80215  0.93899  0.03233  1.0000
  H   H2545     1.0  0.74966  0.85384  0.06821  1.0000
  C   C1437     1.0  0.69087  0.99583  0.18003  1.0000
  H   H2546     1.0  0.58686  0.91436  0.04570  1.0000
  H   H2547     1.0  0.83505  0.69740  0.12564  1.0000
  H   H2548     1.0  0.73094  0.95740  0.00962  1.0000
  C   C1438     1.0  0.63830  0.90036  0.18967  1.0000
  H   H2549     1.0  0.62232  0.99221  0.00156  1.0000
  H   H2550     1.0  0.97928  0.90245  0.02237  1.0000
  H   H2551     1.0  0.60105  0.95510  0.03964  1.0000
  H   H2552     1.0  0.87657  0.95400  0.98826  1.0000
  C   C1439     1.0  0.86055  0.96189  0.98132  1.0000
  C   C1440     1.0  0.82448  0.95876  0.05086  1.0000
  H   H2553     1.0  0.90792  0.76555  0.17972  1.0000
  C   C1441     1.0  0.76883  0.85471  0.05767  1.0000
  H   H2554     1.0  0.53405  0.89906  0.03138  1.0000
  C   C1442     1.0  0.90326  0.84186  0.19390  1.0000
  H   H2555     1.0  0.67047  0.97378  0.02326  1.0000
  H   H2556     1.0  0.70083  0.91988  0.17710  1.0000
  H   H2557     1.0  0.80249  0.71806  0.14919  1.0000
  H   H2558     1.0  0.98328  0.88388  0.04734  1.0000
  H   H2559     1.0  0.87127  0.81374  0.10384  1.0000
  C   C1443     1.0  0.74602  0.95687  0.99588  1.0000
  H   H2560     1.0  0.87507  0.98418  0.97202  1.0000
  H   H2561     1.0  0.83757  0.92861  0.02004  1.0000
  H   H2562     1.0  0.53184  0.83569  0.20116  1.0000
  H   H2563     1.0  0.86109  0.98559  0.01160  1.0000
  C   C1444     1.0  0.98186  0.99431  0.01791  1.0000
  C   C1445     1.0  0.61119  0.90783  0.19242  1.0000
  H   H2564     1.0  0.59390  0.88773  0.10691  1.0000
  H   H2565     1.0  0.62866  0.87779  0.18026  1.0000
  H   H2566     1.0  0.88383  0.72686  0.19116  1.0000
  C   C1446     1.0  0.81028  0.72412  0.13138  1.0000
  C   C1447     1.0  0.54094  0.92549  0.10009  1.0000
  C   C1448     1.0  0.59521  0.90563  0.16968  1.0000
  C   C1449     1.0  0.65987  0.00180  0.20949  1.0000
  C   C1450     1.0  0.88616  0.79863  0.07499  1.0000
  H   H2567     1.0  0.95468  0.82673  0.13565  1.0000
  H   H2568     1.0  0.78618  0.66207  0.14725  1.0000
  C   C1451     1.0  0.57938  0.89850  0.10536  1.0000
  C   C1452     1.0  0.63841  0.98731  0.17171  1.0000
  C   C1453     1.0  0.51042  0.95650  0.97896  1.0000
  H   H2569     1.0  0.56550  0.96931  0.01883  1.0000
  H   H2570     1.0  0.75847  0.84167  0.04172  1.0000
  H   H2571     1.0  0.56247  0.98322  0.05691  1.0000
  H   H2572     1.0  0.73071  0.94534  0.98097  1.0000
  H   H2573     1.0  0.81138  0.69717  0.10225  1.0000
  H   H2574     1.0  0.77976  0.84290  0.06694  1.0000
  H   H2575     1.0  0.76756  0.95347  0.03806  1.0000
  H   H2576     1.0  0.79039  0.72486  0.12266  1.0000
  C   C1454     1.0  0.52507  0.93848  0.18044  1.0000
  N   N82       1.0  0.83990  0.75585  0.12995  1.0000
  H   H2577     1.0  0.76214  0.66257  0.12405  1.0000
  C   C1455     1.0  0.83309  0.78107  0.13804  1.0000
  C   C1456     1.0  0.84897  0.76227  0.10531  1.0000
  C   C1457     1.0  0.86745  0.75718  0.14278  1.0000
  C   C1458     1.0  0.86029  0.73938  0.16560  1.0000
  C   C1459     1.0  0.87730  0.79533  0.09995  1.0000
  C   C1460     1.0  0.81096  0.77334  0.15869  1.0000
  C   C1461     1.0  0.80975  0.80232  0.16652  1.0000
  H   H2578     1.0  0.84690  0.96789  0.09525  1.0000
  C   C1462     1.0  0.93543  0.85855  0.19932  1.0000
  C   C1463     1.0  0.80896  0.96210  0.07264  1.0000
  C   C1464     1.0  0.82150  0.93666  0.01341  1.0000
  H   H2579     1.0  0.85548  0.80323  0.14185  1.0000
  H   H2580     1.0  0.82151  0.78733  0.12433  1.0000
  H   H2581     1.0  0.82843  0.75917  0.09500  1.0000
  H   H2582     1.0  0.85541  0.74513  0.09858  1.0000
  H   H2583     1.0  0.80476  0.90016  0.06908  1.0000
  H   H2584     1.0  0.88589  0.78200  0.14628  1.0000
  H   H2585     1.0  0.84057  0.94976  0.05563  1.0000
  H   H2586     1.0  0.59264  0.89141  0.20412  1.0000
  C   C1465     1.0  0.99376  0.82837  0.15440  1.0000
  C   C1466     1.0  0.51352  0.95887  0.04451  1.0000
  N   N83       1.0  0.65475  0.89945  0.21106  1.0000
  H   H2587     1.0  0.51674  0.96999  0.15951  1.0000
  H   H2588     1.0  0.00378  0.82423  0.13882  1.0000
  H   H2589     1.0  0.61986  0.83223  0.21507  1.0000
  S   S323      1.0  0.59942  0.99018  0.20360  1.0000
  C   C1467     1.0  0.67638  0.88683  0.20529  1.0000
  H   H2590     1.0  0.76399  0.98125  0.99111  1.0000
  H   H2591     1.0  0.53414  0.95005  0.14464  1.0000
  C   C1468     1.0  0.68783  0.00328  0.20231  1.0000
  Fe  Fe162     1.0  0.59443  0.97996  0.24074  1.0000
  S   S324      1.0  0.61532  0.95179  0.25400  1.0000
  H   H2592     1.0  0.00733  0.88588  0.38328  1.0000
  H   H2593     1.0  0.59376  0.63740  0.37026  1.0000
  S   S325      1.0  0.59361  0.96029  0.30376  1.0000
  H   H2594     1.0  0.93837  0.80350  0.23309  1.0000
  Fe  Fe163     1.0  0.63535  0.98845  0.28115  1.0000
  C   C1469     1.0  0.00588  0.68057  0.36625  1.0000
  Fe  Fe164     1.0  0.57127  0.92659  0.27489  1.0000
  S   S326      1.0  0.54955  0.87385  0.27850  1.0000
  H   H2595     1.0  0.96642  0.87036  0.37513  1.0000
  S   S327      1.0  0.54851  0.95181  0.25928  1.0000
  C   C1470     1.0  0.58438  0.61592  0.35972  1.0000
  S   S328      1.0  0.59041  0.53654  0.39183  1.0000
  H   H2596     1.0  0.77904  0.66422  0.27705  1.0000
  C   C1471     1.0  0.90793  0.88539  0.25185  1.0000
  H   H2597     1.0  0.99262  0.65667  0.35892  1.0000
  Fe  Fe165     1.0  0.60617  0.56998  0.42135  1.0000
  S   S329      1.0  0.61254  0.61886  0.41915  1.0000
  C   C1472     1.0  0.52421  0.83965  0.21786  1.0000
  H   H2598     1.0  0.67545  0.92480  0.25687  1.0000
  S   S330      1.0  0.64677  0.56349  0.43081  1.0000
  H   H2599     1.0  0.97096  0.81730  0.26907  1.0000
  Fe  Fe166     1.0  0.87787  0.69568  0.29074  1.0000
  S   S331      1.0  0.90114  0.66910  0.27855  1.0000
  S   S332      1.0  0.85177  0.68402  0.32358  1.0000
  Fe  Fe167     1.0  0.88568  0.72940  0.24590  1.0000
  S   S333      1.0  0.90830  0.70426  0.22985  1.0000
  Fe  Fe168     1.0  0.87113  0.66017  0.24750  1.0000
  S   S334      1.0  0.83728  0.61314  0.23051  1.0000
  Fe  Fe169     1.0  0.93607  0.71565  0.26251  1.0000
  S   S335      1.0  0.98981  0.73819  0.26208  1.0000
  S   S336      1.0  0.84662  0.68488  0.26062  1.0000
  S   S337      1.0  0.91483  0.74260  0.27752  1.0000
  Fe  Fe170     1.0  0.82300  0.79500  0.45316  1.0000
  S   S338      1.0  0.79241  0.80886  0.43398  1.0000
  H   H2600     1.0  0.95599  0.67853  0.31056  1.0000
  Fe  Fe171     1.0  0.85694  0.79442  0.41057  1.0000
  S   S339      1.0  0.82809  0.80771  0.38868  1.0000
  S   S340      1.0  0.89796  0.79530  0.39308  1.0000
  Fe  Fe172     1.0  0.83703  0.84266  0.41594  1.0000
  S   S341      1.0  0.85132  0.89341  0.40965  1.0000
  Fe  Fe173     1.0  0.78681  0.77216  0.40913  1.0000
  S   S342      1.0  0.73989  0.74207  0.39116  1.0000
  S   S343      1.0  0.86789  0.83122  0.43677  1.0000
  S   S344      1.0  0.81515  0.75610  0.42921  1.0000
  C   C1473     1.0  0.86450  0.71587  0.34202  1.0000
  C   C1474     1.0  0.84423  0.71439  0.35919  1.0000
  C   C1475     1.0  0.85418  0.73923  0.37454  1.0000
  C   C1476     1.0  0.88474  0.76514  0.37312  1.0000
  C   C1477     1.0  0.90491  0.76684  0.35577  1.0000
  C   C1478     1.0  0.89461  0.74239  0.34000  1.0000
  H   H2601     1.0  0.82088  0.69398  0.36071  1.0000
  H   H2602     1.0  0.83853  0.73790  0.38787  1.0000
  H   H2603     1.0  0.92856  0.78690  0.35468  1.0000
  H   H2604     1.0  0.91031  0.74364  0.32678  1.0000
  C   C1479     1.0  0.64921  0.65329  0.41365  1.0000
  C   C1480     1.0  0.67866  0.65693  0.41988  1.0000
  C   C1481     1.0  0.70703  0.68491  0.41434  1.0000
  C   C1482     1.0  0.70589  0.70882  0.40211  1.0000
  C   C1483     1.0  0.67643  0.70499  0.39618  1.0000
  C   C1484     1.0  0.64841  0.67792  0.40243  1.0000
  H   H2605     1.0  0.67957  0.63825  0.42888  1.0000
  H   H2606     1.0  0.72970  0.68748  0.41881  1.0000
  H   H2607     1.0  0.67516  0.72300  0.38653  1.0000
  H   H2608     1.0  0.62591  0.67571  0.39798  1.0000
  H   H2609     1.0  0.53884  0.91859  0.33455  1.0000
  H   H2610     1.0  0.51086  0.99057  0.43356  1.0000
  C   C1485     1.0  0.90011  0.95266  0.40038  1.0000
  C   C1486     1.0  0.89197  0.92229  0.40733  1.0000
  C   C1487     1.0  0.91620  0.91559  0.41170  1.0000
  C   C1488     1.0  0.94810  0.93864  0.40796  1.0000
  C   C1489     1.0  0.82116  0.57043  0.32792  1.0000
  H   H2611     1.0  0.88167  0.95818  0.39699  1.0000
  H   H2612     1.0  0.91039  0.89241  0.41723  1.0000
  H   H2613     1.0  0.96650  0.93286  0.41038  1.0000
  C   C1490     1.0  0.77998  0.58947  0.36588  1.0000
  H   H2614     1.0  0.76519  0.80335  0.36514  1.0000
  H   H2615     1.0  0.73775  0.56230  0.34654  1.0000
  C   C1491     1.0  0.81224  0.57583  0.24324  1.0000
  C   C1492     1.0  0.82209  0.56511  0.26174  1.0000
  C   C1493     1.0  0.95341  0.54369  0.40962  1.0000
  H   H2616     1.0  0.99719  0.89696  0.30113  1.0000
  H   H2617     1.0  0.86382  0.59110  0.30723  1.0000
  H   H2618     1.0  0.84514  0.58024  0.26905  1.0000
  Fe  Fe174     1.0  0.61142  0.52442  0.45267  1.0000
  C   C1494     1.0  0.99699  0.92049  0.36846  1.0000
  C   C1495     1.0  0.94319  0.96798  0.46282  1.0000
  C   C1496     1.0  0.77225  0.65303  0.29396  1.0000
  H   H2619     1.0  0.73786  0.77632  0.46647  1.0000
  C   C1497     1.0  0.92850  0.81421  0.22233  1.0000
  H   H2620     1.0  0.73216  0.71023  0.31385  1.0000
  H   H2621     1.0  0.73852  0.61202  0.38937  1.0000
  C   C1498     1.0  0.67326  0.93228  0.22046  1.0000
  H   H2622     1.0  0.98238  0.77081  0.30048  1.0000
  C   C1499     1.0  0.69189  0.64997  0.33050  1.0000
  H   H2623     1.0  0.80890  0.54878  0.31765  1.0000
  H   H2624     1.0  0.71671  0.67872  0.36059  1.0000
  H   H2625     1.0  0.70562  0.81667  0.45144  1.0000
  C   C1500     1.0  0.96352  0.69152  0.32683  1.0000
  H   H2626     1.0  0.98784  0.65605  0.32251  1.0000
  H   H2627     1.0  0.71036  0.64439  0.32557  1.0000
  H   H2628     1.0  0.57329  0.83731  0.24731  1.0000
  H   H2629     1.0  0.65640  0.59451  0.37300  1.0000
  H   H2630     1.0  0.76253  0.54583  0.34696  1.0000
  H   H2631     1.0  0.68307  0.65431  0.31428  1.0000
  C   C1501     1.0  0.53970  0.93262  0.34949  1.0000
  C   C1502     1.0  0.71177  0.76593  0.46589  1.0000
  H   H2632     1.0  0.94487  0.55253  0.42291  1.0000
  H   H2633     1.0  0.88616  0.91712  0.45714  1.0000
  C   C1503     1.0  0.65025  0.59337  0.32828  1.0000
  C   C1504     1.0  0.00565  0.91716  0.34368  1.0000
  H   H2634     1.0  0.70707  0.92516  0.24110  1.0000
  C   C1505     1.0  0.78273  0.55528  0.23328  1.0000
  H   H2635     1.0  0.77360  0.85974  0.41507  1.0000
  H   H2636     1.0  0.00148  0.72948  0.30952  1.0000
  C   C1506     1.0  0.60741  0.84456  0.22087  1.0000
  H   H2637     1.0  0.75400  0.82023  0.34244  1.0000
  C   C1507     1.0  0.70552  0.61339  0.36535  1.0000
  H   H2638     1.0  0.87000  0.60544  0.33592  1.0000
  H   H2639     1.0  0.97655  0.92447  0.36820  1.0000
  C   C1508     1.0  0.64008  0.63156  0.34713  1.0000
  H   H2640     1.0  0.67942  0.63520  0.37753  1.0000
  H   H2641     1.0  0.62051  0.80511  0.40187  1.0000
  H   H2642     1.0  0.94556  0.72213  0.31655  1.0000
  H   H2643     1.0  0.63137  0.59277  0.31728  1.0000
  H   H2644     1.0  0.54453  0.85959  0.22655  1.0000
  C   C1509     1.0  0.71342  0.97059  0.24856  1.0000
  H   H2645     1.0  0.74039  0.56200  0.38866  1.0000
  C   C1510     1.0  0.00525  0.78596  0.29309  1.0000
  H   H2646     1.0  0.54474  0.99765  0.40158  1.0000
  H   H2647     1.0  0.81930  0.60158  0.30311  1.0000
  H   H2648     1.0  0.91768  0.68761  0.33172  1.0000
  H   H2649     1.0  0.77079  0.55128  0.38902  1.0000
  C   C1511     1.0  0.74569  0.80638  0.35828  1.0000
  H   H2650     1.0  0.80502  0.63612  0.29194  1.0000
  H   H2651     1.0  0.73159  0.98278  0.23529  1.0000
  H   H2652     1.0  0.52453  0.80846  0.27752  1.0000
  H   H2653     1.0  0.55230  0.95797  0.34496  1.0000
  C   C1512     1.0  0.80282  0.53422  0.26995  1.0000
  H   H2654     1.0  0.92376  0.91084  0.24851  1.0000
  C   C1513     1.0  0.85680  0.58433  0.32507  1.0000
  H   H2655     1.0  0.64404  0.87609  0.24345  1.0000
  H   H2656     1.0  0.99936  0.89232  0.34059  1.0000
  H   H2657     1.0  0.59952  0.82257  0.25407  1.0000
  H   H2658     1.0  0.72514  0.78290  0.35425  1.0000
  H   H2659     1.0  0.97367  0.53065  0.31624  1.0000
  H   H2660     1.0  0.55325  0.92895  0.36307  1.0000
  C   C1514     1.0  0.98690  0.53040  0.46119  1.0000
  H   H2661     1.0  0.77772  0.58702  0.40249  1.0000
  H   H2662     1.0  0.61340  0.59955  0.37470  1.0000
  H   H2663     1.0  0.93489  0.51906  0.30543  1.0000
  H   H2664     1.0  0.57777  0.62063  0.34281  1.0000
  C   C1515     1.0  0.81093  0.59439  0.32075  1.0000
  C   C1516     1.0  0.76016  0.87080  0.42141  1.0000
  H   H2665     1.0  0.69264  0.59013  0.32039  1.0000
  N   N84       1.0  0.89203  0.83208  0.30459  1.0000
  C   C1517     1.0  0.88573  0.84344  0.28253  1.0000
  C   C1518     1.0  0.86471  0.79959  0.30959  1.0000
  C   C1519     1.0  0.89272  0.85358  0.32308  1.0000
  C   C1520     1.0  0.92314  0.83238  0.30476  1.0000
  C   C1521     1.0  0.93482  0.82652  0.28192  1.0000
  C   C1522     1.0  0.89682  0.84463  0.34751  1.0000
  C   C1523     1.0  0.85790  0.77352  0.29221  1.0000
  C   C1524     1.0  0.82701  0.74341  0.29766  1.0000
  C   C1525     1.0  0.96412  0.82345  0.28532  1.0000
  C   C1526     1.0  0.90099  0.86989  0.36437  1.0000
  H   H2666     1.0  0.86128  0.83974  0.28234  1.0000
  H   H2667     1.0  0.88617  0.82933  0.26808  1.0000
  H   H2668     1.0  0.86863  0.79052  0.32577  1.0000
  H   H2669     1.0  0.84258  0.80059  0.31182  1.0000
  H   H2670     1.0  0.87068  0.85506  0.32265  1.0000
  H   H2671     1.0  0.91258  0.87795  0.32042  1.0000
  H   H2672     1.0  0.94263  0.85539  0.31094  1.0000
  H   H2673     1.0  0.92213  0.81480  0.31714  1.0000
  H   H2674     1.0  0.94145  0.84633  0.27007  1.0000
  H   H2675     1.0  0.91647  0.80495  0.27352  1.0000
  H   H2676     1.0  0.93331  0.88612  0.28183  1.0000
  H   H2677     1.0  0.91774  0.84153  0.34891  1.0000
  H   H2678     1.0  0.87566  0.82252  0.35289  1.0000
  H   H2679     1.0  0.85570  0.78025  0.27475  1.0000
  H   H2680     1.0  0.87700  0.76771  0.29301  1.0000
  H   H2681     1.0  0.82778  0.73510  0.31497  1.0000
  H   H2682     1.0  0.80661  0.74735  0.29623  1.0000
  H   H2683     1.0  0.82347  0.72477  0.28550  1.0000
  H   H2684     1.0  0.00472  0.90746  0.26056  1.0000
  H   H2685     1.0  0.59785  0.58355  0.34738  1.0000
  H   H2686     1.0  0.98441  0.84577  0.29148  1.0000
  H   H2687     1.0  0.92180  0.89295  0.36008  1.0000
  H   H2688     1.0  0.87958  0.87231  0.36472  1.0000
  H   H2689     1.0  0.90461  0.86304  0.38152  1.0000
  C   C1527     1.0  0.72341  0.54796  0.30100  1.0000
  C   C1528     1.0  0.76631  0.57125  0.38780  1.0000
  C   C1529     1.0  0.99920  0.71689  0.32565  1.0000
  H   H2690     1.0  0.71001  0.53841  0.31678  1.0000
  C   C1530     1.0  0.70806  0.52243  0.28301  1.0000
  H   H2691     1.0  0.72077  0.63411  0.39891  1.0000
  C   C1531     1.0  0.76315  0.52465  0.24182  1.0000
  H   H2692     1.0  0.77696  0.61034  0.36613  1.0000
  N   N85       1.0  0.66511  0.62274  0.34279  1.0000
  H   H2693     1.0  0.72049  0.56785  0.29551  1.0000
  H   H2694     1.0  0.76607  0.60939  0.28178  1.0000
  C   C1532     1.0  0.77128  0.61084  0.31914  1.0000
  C   C1533     1.0  0.75886  0.55847  0.30436  1.0000
  H   H2695     1.0  0.74660  0.60440  0.32324  1.0000
  H   H2696     1.0  0.63396  0.63933  0.33114  1.0000
  H   H2697     1.0  0.88360  0.87866  0.24632  1.0000
  Fe  Fe175     1.0  0.62902  0.52769  0.40305  1.0000
  N   N86       1.0  0.77601  0.58306  0.32234  1.0000
  C   C1534     1.0  0.83994  0.93099  0.45757  1.0000
  H   H2698     1.0  0.61792  0.88941  0.23551  1.0000
  H   H2699     1.0  0.72196  0.85996  0.39776  1.0000
  H   H2700     1.0  0.77079  0.56663  0.28772  1.0000
  H   H2701     1.0  0.81109  0.52590  0.28378  1.0000
  N   N87       1.0  0.71004  0.81645  0.41500  1.0000
  H   H2702     1.0  0.68434  0.87994  0.22080  1.0000
  C   C1535     1.0  0.67474  0.80132  0.41158  1.0000
  H   H2703     1.0  0.95918  0.80468  0.29777  1.0000
  C   C1536     1.0  0.72437  0.80472  0.39769  1.0000
  C   C1537     1.0  0.73643  0.82362  0.37531  1.0000
  C   C1538     1.0  0.93411  0.51286  0.40158  1.0000
  C   C1539     1.0  0.70114  0.77171  0.44293  1.0000
  C   C1540     1.0  0.66329  0.80738  0.38872  1.0000
  H   H2704     1.0  0.63808  0.57188  0.33904  1.0000
  H   H2705     1.0  0.94946  0.71975  0.34682  1.0000
  H   H2706     1.0  0.98181  0.89436  0.39996  1.0000
  C   C1541     1.0  0.93187  0.97555  0.39651  1.0000
  H   H2707     1.0  0.00448  0.73453  0.33923  1.0000
  S   S345      1.0  0.00682  0.60200  0.41036  1.0000
  H   H2708     1.0  0.66326  0.77532  0.41269  1.0000
  H   H2709     1.0  0.66429  0.80861  0.42537  1.0000
  C   C1542     1.0  0.76293  0.56855  0.34507  1.0000
  H   H2710     1.0  0.00630  0.93624  0.29504  1.0000
  H   H2711     1.0  0.74505  0.80413  0.40489  1.0000
  H   H2712     1.0  0.70728  0.77982  0.39329  1.0000
  H   H2713     1.0  0.75782  0.84679  0.37843  1.0000
  H   H2714     1.0  0.71862  0.82805  0.36725  1.0000
  H   H2715     1.0  0.99530  0.61143  0.31309  1.0000
  H   H2716     1.0  0.95822  0.67409  0.34034  1.0000
  H   H2717     1.0  0.70865  0.76075  0.42984  1.0000
  C   C1543     1.0  0.94871  0.51117  0.31561  1.0000
  H   H2718     1.0  0.67424  0.83277  0.38492  1.0000
  H   H2719     1.0  0.66861  0.79550  0.37494  1.0000
  C   C1544     1.0  0.95606  0.96861  0.40000  1.0000
  C   C1545     1.0  0.71525  0.80742  0.43841  1.0000
  H   H2720     1.0  0.91642  0.87215  0.24171  1.0000
  C   C1546     1.0  0.50962  0.84281  0.27770  1.0000
  H   H2721     1.0  0.66802  0.55544  0.28593  1.0000
  H   H2722     1.0  0.51627  0.81821  0.22829  1.0000
  H   H2723     1.0  0.78592  0.67119  0.30694  1.0000
  H   H2724     1.0  0.00229  0.67666  0.29686  1.0000
  H   H2725     1.0  0.69811  0.59159  0.39850  1.0000
  H   H2726     1.0  0.71885  0.53177  0.26628  1.0000
  H   H2727     1.0  0.98903  0.92045  0.33278  1.0000
  C   C1547     1.0  0.73845  0.70594  0.33101  1.0000
  H   H2728     1.0  0.80569  0.59794  0.36592  1.0000
  C   C1548     1.0  0.67193  0.58866  0.31169  1.0000
  H   H2729     1.0  0.64897  0.53756  0.31221  1.0000
  H   H2730     1.0  0.93756  0.99824  0.38978  1.0000
  H   H2731     1.0  0.80120  0.91731  0.41752  1.0000
  H   H2732     1.0  0.56280  0.59712  0.36803  1.0000
  C   C1549     1.0  0.99443  0.55150  0.38329  1.0000
  C   C1550     1.0  0.77310  0.51388  0.26022  1.0000
  H   H2733     1.0  0.99991  0.66216  0.40033  1.0000
  H   H2734     1.0  0.69319  0.69162  0.34558  1.0000
  H   H2735     1.0  0.72576  0.63337  0.35684  1.0000
  H   H2736     1.0  0.70044  0.59115  0.35706  1.0000
  C   C1551     1.0  0.71626  0.61273  0.38951  1.0000
  H   H2737     1.0  0.78624  0.62982  0.33131  1.0000
  C   C1552     1.0  0.69200  0.93597  0.24255  1.0000
  H   H2738     1.0  0.69924  0.98238  0.25043  1.0000
  H   H2739     1.0  0.98026  0.54760  0.45502  1.0000
  Fe  Fe176     1.0  0.57333  0.98716  0.28698  1.0000
  C   C1553     1.0  0.90857  0.87864  0.27699  1.0000
  H   H2740     1.0  0.86352  0.56668  0.33005  1.0000
  C   C1554     1.0  0.62745  0.79368  0.38870  1.0000
  H   H2741     1.0  0.95023  0.95190  0.45515  1.0000
  H   H2742     1.0  0.97275  0.85774  0.21821  1.0000
  S   S346      1.0  0.57118  0.53282  0.44495  1.0000
  C   C1555     1.0  0.67552  0.61651  0.36529  1.0000
  H   H2743     1.0  0.82660  0.94339  0.46066  1.0000
  C   C1556     1.0  0.94294  0.70630  0.33074  1.0000
  H   H2744     1.0  0.50867  0.93605  0.37304  1.0000
  H   H2745     1.0  0.77490  0.90452  0.39370  1.0000
  C   C1557     1.0  0.65384  0.55665  0.30004  1.0000
  C   C1558     1.0  0.89613  0.79791  0.21727  1.0000
  H   H2746     1.0  0.98939  0.68928  0.37003  1.0000
  H   H2747     1.0  0.76417  0.91695  0.41937  1.0000
  H   H2748     1.0  0.64904  0.65186  0.35891  1.0000
  H   H2749     1.0  0.90132  0.89347  0.28647  1.0000
  H   H2750     1.0  0.68042  0.60686  0.29824  1.0000
  C   C1559     1.0  0.77591  0.90444  0.41244  1.0000
  H   H2751     1.0  0.82494  0.61612  0.33094  1.0000
  C   C1560     1.0  0.98356  0.56312  0.40045  1.0000
  H   H2752     1.0  0.74661  0.64394  0.29635  1.0000
  H   H2753     1.0  0.81567  0.56364  0.34589  1.0000
  C   C1561     1.0  0.58569  0.82549  0.24031  1.0000
  C   C1562     1.0  0.60880  0.60537  0.35761  1.0000
  H   H2754     1.0  0.61502  0.76793  0.39180  1.0000
  H   H2755     1.0  0.98349  0.51240  0.36156  1.0000
  C   C1563     1.0  0.77953  0.62628  0.29542  1.0000
  H   H2756     1.0  0.61972  0.79783  0.37202  1.0000
  H   H2757     1.0  0.77507  0.56301  0.21869  1.0000
  C   C1564     1.0  0.70896  0.68162  0.34358  1.0000
  H   H2758     1.0  0.75997  0.53689  0.30817  1.0000
  H   H2759     1.0  0.75598  0.69793  0.32965  1.0000
  H   H2760     1.0  0.74967  0.72847  0.34051  1.0000
  C   C1565     1.0  0.86688  0.50797  0.26882  1.0000
  H   H2761     1.0  0.72562  0.97267  0.26487  1.0000
  H   H2762     1.0  0.65728  0.94156  0.22427  1.0000
  S   S347      1.0  0.86994  0.76044  0.22859  1.0000
  C   C1566     1.0  0.72460  0.85172  0.41461  1.0000
  C   C1567     1.0  0.98763  0.89094  0.38248  1.0000
  H   H2763     1.0  0.76244  0.87203  0.44012  1.0000
  H   H2764     1.0  0.00314  0.97075  0.33854  1.0000
  H   H2765     1.0  0.71162  0.85905  0.42626  1.0000
  H   H2766     1.0  0.89193  0.52061  0.26323  1.0000
  H   H2767     1.0  0.85297  0.93972  0.44143  1.0000
  H   H2768     1.0  0.67493  0.75933  0.44325  1.0000
  C   C1568     1.0  0.97491  0.52092  0.37498  1.0000
  H   H2769     1.0  0.63108  0.55269  0.29287  1.0000
  H   H2770     1.0  0.86086  0.52561  0.27502  1.0000
  H   H2771     1.0  0.92409  0.96759  0.45238  1.0000
  C   C1569     1.0  0.63136  0.87849  0.22862  1.0000
  H   H2772     1.0  0.00566  0.62816  0.28498  1.0000
  H   H2773     1.0  0.87136  0.51997  0.36966  1.0000
  H   H2774     1.0  0.74089  0.81852  0.44217  1.0000
  S   S348      1.0  0.66341  0.52544  0.37898  1.0000
  H   H2775     1.0  0.82283  0.90541  0.45609  1.0000
  H   H2776     1.0  0.68239  0.51416  0.28180  1.0000
  S   S349      1.0  0.99403  0.99393  0.38861  1.0000
  H   H2777     1.0  0.99773  0.52445  0.44703  1.0000
  H   H2778     1.0  0.74058  0.50923  0.23389  1.0000
  H   H2779     1.0  0.93903  0.50606  0.33296  1.0000
  H   H2780     1.0  0.56763  0.80184  0.23418  1.0000
  H   H2781     1.0  0.89445  0.50797  0.35330  1.0000
  C   C1570     1.0  0.97162  0.00115  0.46143  1.0000
  S   S350      1.0  0.54597  0.00289  0.30849  1.0000
  H   H2782     1.0  0.86380  0.76395  0.66572  1.0000
  H   H2783     1.0  0.81115  0.60163  0.60807  1.0000
  H   H2784     1.0  0.73822  0.74607  0.67849  1.0000
  H   H2785     1.0  0.67062  0.57427  0.47407  1.0000
  H   H2786     1.0  0.81730  0.74282  0.69674  1.0000
  H   H2787     1.0  0.87492  0.85784  0.48242  1.0000
  C   C1571     1.0  0.79054  0.57985  0.70153  1.0000
  Fe  Fe177     1.0  0.78522  0.88662  0.57431  1.0000
  S   S351      1.0  0.73629  0.87776  0.58157  1.0000
  S   S352      1.0  0.80423  0.89725  0.53892  1.0000
  Fe  Fe178     1.0  0.79916  0.88157  0.62326  1.0000
  S   S353      1.0  0.75156  0.87189  0.63454  1.0000
  S   S354      1.0  0.83523  0.88327  0.64759  1.0000
  Fe  Fe179     1.0  0.73363  0.83978  0.60453  1.0000
  S   S355      1.0  0.68983  0.79177  0.60701  1.0000
  Fe  Fe180     1.0  0.75900  0.91085  0.61083  1.0000
  S   S356      1.0  0.75558  0.95208  0.62500  1.0000
  S   S357      1.0  0.78078  0.84643  0.59504  1.0000
  S   S358      1.0  0.80829  0.92252  0.60166  1.0000
  C   C1572     1.0  0.82220  0.86029  0.71340  1.0000
  S   S359      1.0  0.74755  0.59309  0.59930  1.0000
  H   H2788     1.0  0.67346  0.79507  0.69256  1.0000
  Fe  Fe181     1.0  0.70428  0.63639  0.62011  1.0000
  S   S360      1.0  0.75094  0.66131  0.60253  1.0000
  S   S361      1.0  0.67876  0.66154  0.63169  1.0000
  Fe  Fe182     1.0  0.72895  0.61921  0.57958  1.0000
  S   S362      1.0  0.73258  0.62461  0.54183  1.0000
  Fe  Fe183     1.0  0.76372  0.63197  0.62451  1.0000
  S   S363      1.0  0.80945  0.64817  0.64346  1.0000
  S   S364      1.0  0.68144  0.59548  0.59614  1.0000
  S   S365      1.0  0.71841  0.61005  0.64405  1.0000
  H   H2789     1.0  0.77329  0.95672  0.57280  1.0000
  C   C1573     1.0  0.70078  0.59373  0.52722  1.0000
  C   C1574     1.0  0.69772  0.59634  0.50394  1.0000
  C   C1575     1.0  0.67258  0.57193  0.49196  1.0000
  C   C1576     1.0  0.65043  0.54465  0.50314  1.0000
  C   C1577     1.0  0.71957  0.79690  0.54349  1.0000
  C   C1578     1.0  0.86317  0.93755  0.47689  1.0000
  H   H2790     1.0  0.71480  0.61730  0.49513  1.0000
  H   H2791     1.0  0.90508  0.84572  0.68256  1.0000
  H   H2792     1.0  0.70445  0.77616  0.47969  1.0000
  H   H2793     1.0  0.89465  0.75489  0.67229  1.0000
  H   H2794     1.0  0.76584  0.59144  0.52827  1.0000
  C   C1579     1.0  0.76820  0.57218  0.68433  1.0000
  C   C1580     1.0  0.77442  0.59275  0.66623  1.0000
  C   C1581     1.0  0.80303  0.62114  0.66514  1.0000
  C   C1582     1.0  0.82613  0.62809  0.68175  1.0000
  H   H2795     1.0  0.74587  0.55030  0.68503  1.0000
  H   H2796     1.0  0.75722  0.58608  0.65285  1.0000
  H   H2797     1.0  0.50948  0.51133  0.51055  1.0000
  C   C1583     1.0  0.68883  0.75552  0.61019  1.0000
  C   C1584     1.0  0.71606  0.75272  0.61096  1.0000
  C   C1585     1.0  0.71344  0.72327  0.61580  1.0000
  C   C1586     1.0  0.68361  0.69682  0.62002  1.0000
  C   C1587     1.0  0.65664  0.69965  0.61813  1.0000
  C   C1588     1.0  0.65921  0.72864  0.61308  1.0000
  H   H2798     1.0  0.73904  0.77334  0.60854  1.0000
  H   H2799     1.0  0.73444  0.72135  0.61744  1.0000
  H   H2800     1.0  0.63358  0.67953  0.62150  1.0000
  H   H2801     1.0  0.63806  0.73048  0.61240  1.0000
  C   C1589     1.0  0.73931  0.97303  0.61168  1.0000
  C   C1590     1.0  0.71986  0.96143  0.59259  1.0000
  C   C1591     1.0  0.84662  0.80044  0.71370  1.0000
  H   H2802     1.0  0.71383  0.51300  0.48037  1.0000
  H   H2803     1.0  0.94361  0.50508  0.48100  1.0000
  H   H2804     1.0  0.88589  0.92253  0.70300  1.0000
  H   H2805     1.0  0.71395  0.93873  0.58578  1.0000
  H   H2806     1.0  0.88085  0.96297  0.47653  1.0000
  H   H2807     1.0  0.72748  0.76292  0.65635  1.0000
  C   C1592     1.0  0.77422  0.79351  0.66857  1.0000
  C   C1593     1.0  0.80711  0.86660  0.52629  1.0000
  C   C1594     1.0  0.80245  0.86208  0.50302  1.0000
  C   C1595     1.0  0.80608  0.83881  0.49226  1.0000
  C   C1596     1.0  0.81443  0.81982  0.50461  1.0000
  C   C1597     1.0  0.81943  0.82452  0.52793  1.0000
  C   C1598     1.0  0.81570  0.84784  0.53879  1.0000
  H   H2808     1.0  0.79604  0.87669  0.49328  1.0000
  H   H2809     1.0  0.74070  0.78100  0.51914  1.0000
  H   H2810     1.0  0.82639  0.81029  0.53760  1.0000
  H   H2811     1.0  0.82016  0.85174  0.55669  1.0000
  H   H2812     1.0  0.99870  0.97871  0.67842  1.0000
  C   C1599     1.0  0.84766  0.56239  0.66212  1.0000
  H   H2813     1.0  0.96086  0.95962  0.64629  1.0000
  Fe  Fe184     1.0  0.70155  0.57188  0.61776  1.0000
  H   H2814     1.0  0.69076  0.83763  0.66386  1.0000
  H   H2815     1.0  0.77802  0.89584  0.71112  1.0000
  H   H2816     1.0  0.85502  0.53330  0.62817  1.0000
  H   H2817     1.0  0.69644  0.78687  0.53464  1.0000
  H   H2818     1.0  0.71435  0.54049  0.51752  1.0000
  C   C1600     1.0  0.76137  0.00108  0.69109  1.0000
  C   C1601     1.0  0.83169  0.86370  0.69087  1.0000
  C   C1602     1.0  0.82219  0.87894  0.67556  1.0000
  C   C1603     1.0  0.80243  0.89019  0.68276  1.0000
  C   C1604     1.0  0.79283  0.88668  0.70543  1.0000
  H   H2819     1.0  0.77243  0.96320  0.68958  1.0000
  H   H2820     1.0  0.84562  0.85363  0.68513  1.0000
  H   H2821     1.0  0.79520  0.90228  0.67105  1.0000
  C   C1605     1.0  0.72634  0.52785  0.52408  1.0000
  H   H2822     1.0  0.92670  0.92131  0.64589  1.0000
  H   H2823     1.0  0.68127  0.56381  0.55628  1.0000
  C   C1606     1.0  0.87036  0.74540  0.66558  1.0000
  C   C1607     1.0  0.66747  0.73741  0.67243  1.0000
  H   H2824     1.0  0.71623  0.69711  0.56934  1.0000
  H   H2825     1.0  0.82371  0.74778  0.53127  1.0000
  C   C1608     1.0  0.89799  0.96971  0.71118  1.0000
  H   H2826     1.0  0.81537  0.79941  0.65059  1.0000
  H   H2827     1.0  0.80274  0.83599  0.47436  1.0000
  C   C1609     1.0  0.52409  0.51322  0.49567  1.0000
  H   H2828     1.0  0.76432  0.98279  0.53956  1.0000
  C   C1610     1.0  0.81966  0.60778  0.70022  1.0000
  H   H2829     1.0  0.88795  0.75770  0.63126  1.0000
  H   H2830     1.0  0.69212  0.73475  0.53867  1.0000
  H   H2831     1.0  0.82253  0.96601  0.69081  1.0000
  H   H2832     1.0  0.71492  0.74384  0.56383  1.0000
  C   C1611     1.0  0.83418  0.99016  0.68368  1.0000
  C   C1612     1.0  0.76397  0.73864  0.54344  1.0000
  H   H2833     1.0  0.79496  0.53110  0.68023  1.0000
  H   H2834     1.0  0.86835  0.57614  0.65095  1.0000
  H   H2835     1.0  0.51035  0.51026  0.47997  1.0000
  C   C1613     1.0  0.81752  0.58619  0.59853  1.0000
  H   H2836     1.0  0.77777  0.69233  0.70862  1.0000
  H   H2837     1.0  0.92587  0.97556  0.49447  1.0000
  H   H2838     1.0  0.84737  0.93968  0.71541  1.0000
  C   C1614     1.0  0.78851  0.99293  0.54679  1.0000
  H   H2839     1.0  0.84969  0.69663  0.67535  1.0000
  C   C1615     1.0  0.83255  0.57283  0.61438  1.0000
  C   C1616     1.0  0.77865  0.71748  0.54780  1.0000
  C   C1617     1.0  0.73628  0.77869  0.53756  1.0000
  H   H2840     1.0  0.79056  0.76040  0.66179  1.0000
  H   H2841     1.0  0.84073  0.57936  0.66851  1.0000
  C   C1618     1.0  0.86073  0.77899  0.71250  1.0000
  H   H2842     1.0  0.77137  0.62745  0.71639  1.0000
  C   C1619     1.0  0.86026  0.55211  0.68266  1.0000
  H   H2843     1.0  0.77834  0.77321  0.63698  1.0000
  H   H2844     1.0  0.73966  0.63558  0.71251  1.0000
  C   C1620     1.0  0.78630  0.67551  0.70607  1.0000
  H   H2845     1.0  0.84695  0.72736  0.63306  1.0000
  H   H2846     1.0  0.82262  0.70984  0.67137  1.0000
  H   H2847     1.0  0.75418  0.53310  0.55529  1.0000
  H   H2848     1.0  0.78454  0.59193  0.55461  1.0000
  H   H2849     1.0  0.69309  0.97025  0.56747  1.0000
  H   H2850     1.0  0.92472  0.97873  0.66496  1.0000
  H   H2851     1.0  0.72794  0.67135  0.46936  1.0000
  H   H2852     1.0  0.87777  0.71844  0.63951  1.0000
  C   C1621     1.0  0.80864  0.55149  0.63260  1.0000
  C   C1622     1.0  0.79487  0.51634  0.66597  1.0000
  C   C1623     1.0  0.67875  0.56638  0.53843  1.0000
  H   H2853     1.0  0.84886  0.64926  0.68051  1.0000
  H   H2854     1.0  0.75935  0.79045  0.54645  1.0000
  H   H2855     1.0  0.77793  0.75584  0.52999  1.0000
  N   N88       1.0  0.82047  0.53630  0.64914  1.0000
  H   H2856     1.0  0.73451  0.82186  0.53834  1.0000
  H   H2857     1.0  0.71571  0.79626  0.56198  1.0000
  C   C1624     1.0  0.91422  0.89291  0.68902  1.0000
  C   C1625     1.0  0.83448  0.74404  0.70970  1.0000
  H   H2858     1.0  0.76594  0.76262  0.71199  1.0000
  C   C1626     1.0  0.71985  0.80478  0.67964  1.0000
  H   H2859     1.0  0.87800  0.78733  0.69855  1.0000
  S   S366      1.0  0.61933  0.51318  0.48831  1.0000
  C   C1627     1.0  0.92107  0.95470  0.66740  1.0000
  C   C1628     1.0  0.77346  0.57797  0.53911  1.0000
  C   C1629     1.0  0.69844  0.81439  0.69256  1.0000
  C   C1630     1.0  0.69916  0.84288  0.68164  1.0000
  H   H2860     1.0  0.74378  0.82612  0.67900  1.0000
  H   H2861     1.0  0.71185  0.80016  0.66168  1.0000
  H   H2862     1.0  0.86577  0.82500  0.71666  1.0000
  H   H2863     1.0  0.99644  0.54793  0.49526  1.0000
  H   H2864     1.0  0.93301  0.94830  0.60985  1.0000
  H   H2865     1.0  0.86931  0.53652  0.67729  1.0000
  H   H2866     1.0  0.93911  0.87592  0.66805  1.0000
  N   N89       1.0  0.90591  0.92511  0.49101  1.0000
  C   C1631     1.0  0.92335  0.95460  0.62459  1.0000
  H   H2867     1.0  0.78138  0.98650  0.66510  1.0000
  C   C1632     1.0  0.89389  0.92175  0.51484  1.0000
  H   H2868     1.0  0.69509  0.67683  0.47581  1.0000
  H   H2869     1.0  0.78737  0.53371  0.62342  1.0000
  H   H2870     1.0  0.73108  0.53145  0.59988  1.0000
  C   C1633     1.0  0.91764  0.92588  0.53380  1.0000
  C   C1634     1.0  0.93473  0.94676  0.64642  1.0000
  C   C1635     1.0  0.90789  0.94459  0.70766  1.0000
  H   H2871     1.0  0.89004  0.70113  0.69531  1.0000
  C   C1636     1.0  0.90199  0.91990  0.55698  1.0000
  H   H2872     1.0  0.89533  0.75340  0.70894  1.0000
  C   C1637     1.0  0.85848  0.97431  0.65221  1.0000
  C   C1638     1.0  0.72688  0.97818  0.68493  1.0000
  C   C1639     1.0  0.71988  0.50770  0.60593  1.0000
  H   H2873     1.0  0.87195  0.89868  0.51710  1.0000
  H   H2874     1.0  0.88659  0.93942  0.51832  1.0000
  H   H2875     1.0  0.96934  0.98122  0.71463  1.0000
  C   C1640     1.0  0.79021  0.96612  0.55852  1.0000
  H   H2876     1.0  0.93365  0.85730  0.50057  1.0000
  S   S367      1.0  0.81913  0.79055  0.49114  1.0000
  H   H2877     1.0  0.63667  0.52093  0.53522  1.0000
  H   H2878     1.0  0.85348  0.59316  0.62214  1.0000
  H   H2879     1.0  0.84159  0.53956  0.69552  1.0000
  H   H2880     1.0  0.92657  0.90930  0.53183  1.0000
  C   C1641     1.0  0.78301  0.98800  0.68380  1.0000
  H   H2881     1.0  0.75829  0.70455  0.50138  1.0000
  H   H2882     1.0  0.80062  0.56583  0.64189  1.0000
  H   H2883     1.0  0.89806  0.89118  0.67521  1.0000
  H   H2884     1.0  0.76894  0.75259  0.55928  1.0000
  C   C1642     1.0  0.87073  0.73663  0.64086  1.0000
  C   C1643     1.0  0.65363  0.54193  0.52642  1.0000
  H   H2885     1.0  0.72110  0.67125  0.51040  1.0000
  H   H2886     1.0  0.88180  0.89543  0.55809  1.0000
  H   H2887     1.0  0.91942  0.92324  0.57033  1.0000
  H   H2888     1.0  0.89321  0.93646  0.56015  1.0000
  H   H2889     1.0  0.76030  0.81112  0.71057  1.0000
  H   H2890     1.0  0.83728  0.61352  0.71324  1.0000
  C   C1644     1.0  0.81475  0.73683  0.54806  1.0000
  H   H2891     1.0  0.81447  0.97426  0.56497  1.0000
  H   H2892     1.0  0.66471  0.75619  0.66426  1.0000
  H   H2893     1.0  0.79141  0.57477  0.52994  1.0000
  H   H2894     1.0  0.89360  0.97789  0.69487  1.0000
  H   H2895     1.0  0.94172  0.91176  0.49530  1.0000
  H   H2896     1.0  0.90046  0.88532  0.70496  1.0000
  H   H2897     1.0  0.51446  0.00312  0.51368  1.0000
  H   H2898     1.0  0.89497  0.93865  0.66636  1.0000
  N   N90       1.0  0.72907  0.72251  0.53777  1.0000
  C   C1645     1.0  0.71129  0.69226  0.55093  1.0000
  H   H2899     1.0  0.82454  0.72128  0.55196  1.0000
  H   H2900     1.0  0.82314  0.75552  0.56112  1.0000
  C   C1646     1.0  0.72375  0.71745  0.51262  1.0000
  C   C1647     1.0  0.73224  0.69418  0.50157  1.0000
  C   C1648     1.0  0.67488  0.67385  0.54781  1.0000
  H   H2901     1.0  0.93816  0.95018  0.53375  1.0000
  H   H2902     1.0  0.70648  0.82075  0.71030  1.0000
  C   C1649     1.0  0.82105  0.68929  0.71419  1.0000
  H   H2903     1.0  0.67699  0.75434  0.70713  1.0000
  C   C1650     1.0  0.66001  0.64285  0.56080  1.0000
  H   H2904     1.0  0.85798  0.97007  0.63377  1.0000
  H   H2905     1.0  0.78396  0.66916  0.68790  1.0000
  H   H2906     1.0  0.71968  0.67573  0.54679  1.0000
  H   H2907     1.0  0.79600  0.56698  0.59034  1.0000
  H   H2908     1.0  0.84053  0.55944  0.60395  1.0000
  S   S368      1.0  0.67657  0.51981  0.62685  1.0000
  C   C1651     1.0  0.87657  0.73041  0.71539  1.0000
  H   H2909     1.0  0.69876  0.70983  0.50825  1.0000
  H   H2910     1.0  0.73804  0.73998  0.50345  1.0000
  H   H2911     1.0  0.72351  0.86350  0.68209  1.0000
  C   C1652     1.0  0.93232  0.95850  0.48758  1.0000
  H   H2912     1.0  0.66418  0.68751  0.55435  1.0000
  H   H2913     1.0  0.66837  0.66816  0.52977  1.0000
  C   C1653     1.0  0.92572  0.86982  0.68415  1.0000
  C   C1654     1.0  0.71662  0.74376  0.54507  1.0000
  H   H2914     1.0  0.77090  0.70599  0.56454  1.0000
  H   H2915     1.0  0.77151  0.69865  0.53514  1.0000
  H   H2916     1.0  0.78789  0.80158  0.68446  1.0000
  H   H2917     1.0  0.95376  0.92817  0.70811  1.0000
  H   H2918     1.0  0.89608  0.82401  0.49266  1.0000
  C   C1655     1.0  0.73931  0.76829  0.67310  1.0000
  H   H2919     1.0  0.96015  0.93072  0.67870  1.0000
  H   H2920     1.0  0.67718  0.72786  0.65992  1.0000
  H   H2921     1.0  0.66900  0.62758  0.55439  1.0000
  H   H2922     1.0  0.66544  0.64724  0.57912  1.0000
  H   H2923     1.0  0.63393  0.63022  0.55860  1.0000
  C   C1656     1.0  0.68945  0.74949  0.69341  1.0000
  H   H2924     1.0  0.77556  0.81410  0.65980  1.0000
  N   N91       1.0  0.84505  0.72064  0.70430  1.0000
  H   H2925     1.0  0.89708  0.94104  0.62353  1.0000
  C   C1657     1.0  0.83275  0.51743  0.63733  1.0000
  C   C1658     1.0  0.79050  0.78068  0.65357  1.0000
  N   N92       1.0  0.72188  0.77752  0.68951  1.0000
  H   H2926     1.0  0.93949  0.74277  0.71272  1.0000
  H   H2927     1.0  0.83461  0.60048  0.58516  1.0000
  C   C1659     1.0  0.63451  0.71078  0.67866  1.0000
  C   C1660     1.0  0.74516  0.54613  0.54546  1.0000
  H   H2928     1.0  0.88944  0.86534  0.51089  1.0000
  H   H2929     1.0  0.69142  0.72917  0.69954  1.0000
  C   C1661     1.0  0.72122  0.68779  0.47694  1.0000
  H   H2930     1.0  0.74408  0.53106  0.51105  1.0000
  C   C1662     1.0  0.84593  0.71656  0.67913  1.0000
  C   C1663     1.0  0.70801  0.97930  0.58228  1.0000
  C   C1664     1.0  0.83563  0.98594  0.65783  1.0000
  H   H2931     1.0  0.82724  0.67104  0.71025  1.0000
  H   H2932     1.0  0.72982  0.55068  0.55675  1.0000
  C   C1665     1.0  0.73883  0.78757  0.71195  1.0000
  C   C1666     1.0  0.94220  0.92701  0.69156  1.0000
  H   H2933     1.0  0.83445  0.79954  0.69764  1.0000
  H   H2934     1.0  0.63586  0.69070  0.68603  1.0000
  H   H2935     1.0  0.88298  0.99224  0.65701  1.0000
  C   C1667     1.0  0.91866  0.90333  0.48653  1.0000
  H   H2936     1.0  0.54535  0.53709  0.49553  1.0000
  H   H2937     1.0  0.78397  0.94671  0.54635  1.0000
  H   H2938     1.0  0.84967  0.93227  0.49290  1.0000
  H   H2939     1.0  0.62312  0.71909  0.69087  1.0000
  H   H2940     1.0  0.61958  0.70240  0.66320  1.0000
  C   C1668     1.0  0.89661  0.86832  0.49293  1.0000
  C   C1669     1.0  0.87885  0.91694  0.47494  1.0000
  N   N93       1.0  0.93345  0.95236  0.69034  1.0000
  H   H2941     1.0  0.68337  0.84900  0.69103  1.0000
  H   H2942     1.0  0.81196  0.96814  0.65143  1.0000
  H   H2943     1.0  0.89557  0.57278  0.70924  1.0000
  H   H2944     1.0  0.92097  0.85128  0.47134  1.0000
  H   H2945     1.0  0.95363  0.96290  0.49742  1.0000
  H   H2946     1.0  0.73258  0.70993  0.46699  1.0000
  H   H2947     1.0  0.85963  0.89242  0.47766  1.0000
  H   H2948     1.0  0.90763  0.59340  0.68268  1.0000
  C   C1670     1.0  0.88739  0.58062  0.69437  1.0000
  C   C1671     1.0  0.91297  0.84919  0.48911  1.0000
  H   H2949     1.0  0.71811  0.95568  0.69420  1.0000
  H   H2950     1.0  0.68075  0.51016  0.55091  1.0000
  H   H2951     1.0  0.83965  0.50509  0.64984  1.0000
  H   H2952     1.0  0.85155  0.95190  0.66112  1.0000
  H   H2953     1.0  0.75246  0.51640  0.65350  1.0000
  H   H2954     1.0  0.87938  0.59687  0.70038  1.0000
  H   H2955     1.0  0.94107  0.87006  0.69813  1.0000
  H   H2956     1.0  0.71204  0.98852  0.68957  1.0000
  H   H2957     1.0  0.72432  0.97335  0.66649  1.0000
  C   C1672     1.0  0.88930  0.70730  0.71318  1.0000
  C   C1673     1.0  0.96192  0.98322  0.69716  1.0000
  H   H2958     1.0  0.93162  0.98013  0.62372  1.0000
  H   H2959     1.0  0.70067  0.74024  0.46879  1.0000
  C   C1674     1.0  0.99130  0.99624  0.68168  1.0000
  C   C1675     1.0  0.74650  0.00244  0.62046  1.0000
  H   H2960     1.0  0.80592  0.00168  0.53283  1.0000
  H   H2961     1.0  0.85863  0.00198  0.69070  1.0000
  H   H2962     1.0  0.99229  0.00265  0.47049  1.0000
  H   H2963     1.0  0.95602  0.00226  0.69770  1.0000
  H   H2964     1.0  0.92396  0.90350  0.46825  1.0000
  H   H2965     1.0  0.72145  0.51353  0.92200  1.0000
  H   H2966     1.0  0.88274  0.53414  0.90156  1.0000
  C   C1676     1.0  0.86425  0.75804  0.77908  1.0000
  C   C1677     1.0  0.91032  0.95008  0.84763  1.0000
  C   C1678     1.0  0.84403  0.98211  0.92445  1.0000
  C   C1679     1.0  0.80813  0.98679  0.75564  1.0000
  H   H2967     1.0  0.96244  0.96019  0.90047  1.0000
  S   S369      1.0  0.86612  0.59801  0.75322  1.0000
  H   H2968     1.0  0.87448  0.68547  0.72295  1.0000
  H   H2969     1.0  0.80343  0.75639  0.81699  1.0000
  H   H2970     1.0  0.83246  0.72910  0.82481  1.0000
  C   C1680     1.0  0.87167  0.53437  0.85607  1.0000
  Fe  Fe185     1.0  0.86138  0.88058  0.81918  1.0000
  S   S370      1.0  0.90341  0.87846  0.80633  1.0000
  S   S371      1.0  0.85910  0.89133  0.85590  1.0000
  S   S372      1.0  0.82611  0.83837  0.79943  1.0000
  S   S373      1.0  0.86246  0.91422  0.79336  1.0000
  Fe  Fe186     1.0  0.81064  0.57347  0.80509  1.0000
  S   S374      1.0  0.86345  0.59892  0.80797  1.0000
  S   S375      1.0  0.78357  0.56369  0.83767  1.0000
  Fe  Fe187     1.0  0.81313  0.57231  0.75424  1.0000
  H   H2971     1.0  0.91360  0.57973  0.82613  1.0000
  H   H2972     1.0  0.78570  0.80118  0.74409  1.0000
  Fe  Fe188     1.0  0.86126  0.56511  0.78152  1.0000
  C   C1681     1.0  0.68644  0.53338  0.81886  1.0000
  Fe  Fe189     1.0  0.86271  0.62924  0.77968  1.0000
  H   H2973     1.0  0.91035  0.57009  0.87747  1.0000
  S   S376      1.0  0.80835  0.53763  0.78081  1.0000
  S   S377      1.0  0.80990  0.60561  0.77843  1.0000
  Fe  Fe190     1.0  0.90334  0.91144  0.77963  1.0000
  H   H2974     1.0  0.83131  0.99640  0.85332  1.0000
  H   H2975     1.0  0.98197  0.95149  0.94829  1.0000
  S   S378      1.0  0.87386  0.87135  0.75615  1.0000
  C   C1682     1.0  0.88162  0.71097  0.78153  1.0000
  C   C1683     1.0  0.85073  0.70293  0.77571  1.0000
  C   C1684     1.0  0.84220  0.72636  0.77435  1.0000
  H   H2976     1.0  0.92269  0.55085  0.85742  1.0000
  H   H2977     1.0  0.83368  0.67881  0.77163  1.0000
  H   H2978     1.0  0.81839  0.71997  0.76936  1.0000
  H   H2979     1.0  0.85653  0.54537  0.85683  1.0000
  H   H2980     1.0  0.74784  0.77868  0.75771  1.0000
  H   H2981     1.0  0.80757  0.70414  0.86190  1.0000
  H   H2982     1.0  0.91798  0.94053  0.93057  1.0000
  H   H2983     1.0  0.94196  0.60545  0.84667  1.0000
  H   H2984     1.0  0.81174  0.65200  0.87647  1.0000
  H   H2985     1.0  0.86446  0.97868  0.92779  1.0000
  H   H2986     1.0  0.92586  0.91086  0.94169  1.0000
  H   H2987     1.0  0.76898  0.61325  0.90415  1.0000
  S   S379      1.0  0.94558  0.95759  0.76827  1.0000
  C   C1685     1.0  0.90659  0.56032  0.86018  1.0000
  C   C1686     1.0  0.76233  0.52382  0.84543  1.0000
  H   H2988     1.0  0.80607  0.75215  0.84699  1.0000
  H   H2989     1.0  0.96661  0.95016  0.86501  1.0000
  C   C1687     1.0  0.90361  0.74257  0.78650  1.0000
  H   H2990     1.0  0.91029  0.94184  0.83072  1.0000
  C   C1688     1.0  0.91142  0.97175  0.89147  1.0000
  C   C1689     1.0  0.88816  0.94119  0.88515  1.0000
  C   C1690     1.0  0.88766  0.93016  0.86326  1.0000
  H   H2991     1.0  0.91164  0.97990  0.90836  1.0000
  H   H2992     1.0  0.82725  0.51965  0.93476  1.0000
  C   C1691     1.0  0.96802  0.95643  0.93586  1.0000
  H   H2993     1.0  0.87059  0.92597  0.89727  1.0000
  H   H2994     1.0  0.78991  0.61983  0.85815  1.0000
  H   H2995     1.0  0.58164  0.51832  0.91147  1.0000
  S   S380      1.0  0.89412  0.68268  0.78196  1.0000
  H   H2996     1.0  0.90246  0.59942  0.84692  1.0000
  C   C1692     1.0  0.76459  0.77739  0.74574  1.0000
  H   H2997     1.0  0.84252  0.63838  0.85194  1.0000
  H   H2998     1.0  0.89815  0.65927  0.83994  1.0000
  H   H2999     1.0  0.89483  0.68417  0.86074  1.0000
  H   H3000     1.0  0.77639  0.98346  0.84627  1.0000
  H   H3001     1.0  0.92956  0.94210  0.95963  1.0000
  Fe  Fe191     1.0  0.86822  0.83798  0.78436  1.0000
  H   H3002     1.0  0.91516  0.93997  0.72444  1.0000
  H   H3003     1.0  0.76774  0.65832  0.88539  1.0000
  H   H3004     1.0  0.69699  0.50734  0.88417  1.0000
  C   C1693     1.0  0.99919  0.95734  0.83873  1.0000
  C   C1694     1.0  0.93319  0.93617  0.94222  1.0000
  S   S381      1.0  0.79389  0.87019  0.74964  1.0000
  C   C1695     1.0  0.91662  0.58784  0.84394  1.0000
  H   H3005     1.0  0.76771  0.53419  0.88100  1.0000
  C   C1696     1.0  0.93441  0.99140  0.87599  1.0000
  H   H3006     1.0  0.93089  0.70427  0.72180  1.0000
  H   H3007     1.0  0.87518  0.73423  0.73376  1.0000
  C   C1697     1.0  0.69999  0.51206  0.92957  1.0000
  H   H3008     1.0  0.70354  0.53607  0.93142  1.0000
  C   C1698     1.0  0.84120  0.50757  0.93639  1.0000
  C   C1699     1.0  0.97402  0.95023  0.91115  1.0000
  H   H3009     1.0  0.77063  0.68136  0.84838  1.0000
  H   H3010     1.0  0.74628  0.64916  0.82017  1.0000
  H   H3011     1.0  0.70770  0.53765  0.80920  1.0000
  C   C1700     1.0  0.85833  0.51828  0.89529  1.0000
  H   H3012     1.0  0.87397  0.78202  0.72848  1.0000
  H   H3013     1.0  0.97450  0.98140  0.93777  1.0000
  H   H3014     1.0  0.92359  0.72857  0.74061  1.0000
  C   C1701     1.0  0.80359  0.87255  0.72094  1.0000
  H   H3015     1.0  0.74410  0.58736  0.88189  1.0000
  H   H3016     1.0  0.80221  0.66198  0.80643  1.0000
  H   H3017     1.0  0.63393  0.52307  0.90561  1.0000
  C   C1702     1.0  0.88886  0.67538  0.84313  1.0000
  H   H3018     1.0  0.87056  0.52742  0.83815  1.0000
  H   H3019     1.0  0.75639  0.63493  0.78139  1.0000
  H   H3020     1.0  0.85081  0.69586  0.85658  1.0000
  H   H3021     1.0  0.71794  0.60772  0.79261  1.0000
  H   H3022     1.0  0.72926  0.60606  0.90038  1.0000
  H   H3023     1.0  0.90068  0.69554  0.83130  1.0000
  H   H3024     1.0  0.79536  0.62732  0.82015  1.0000
  C   C1703     1.0  0.75743  0.51590  0.86834  1.0000
  H   H3025     1.0  0.79476  0.96448  0.76522  1.0000
  H   H3026     1.0  0.96068  0.92438  0.90804  1.0000
  S   S382      1.0  0.85228  0.78650  0.77556  1.0000
  H   H3027     1.0  0.84903  0.69608  0.82658  1.0000
  H   H3028     1.0  0.00054  0.98933  0.86387  1.0000
  H   H3029     1.0  0.77235  0.76148  0.75294  1.0000
  S   S383      1.0  0.89075  0.54108  0.78383  1.0000
  H   H3030     1.0  0.91226  0.79023  0.78900  1.0000
  H   H3031     1.0  0.74320  0.63251  0.86345  1.0000
  H   H3032     1.0  0.76935  0.72713  0.83208  1.0000
  H   H3033     1.0  0.84820  0.64750  0.82234  1.0000
  H   H3034     1.0  0.74173  0.61240  0.83056  1.0000
  H   H3035     1.0  0.74835  0.59737  0.79270  1.0000
  H   H3036     1.0  0.92762  0.74907  0.79097  1.0000
  C   C1704     1.0  0.89497  0.76598  0.78541  1.0000
  H   H3037     1.0  0.86415  0.97642  0.73037  1.0000
  C   C1705     1.0  0.74879  0.76505  0.72277  1.0000
  Fe  Fe192     1.0  0.83269  0.87223  0.77178  1.0000
  H   H3038     1.0  0.79574  0.70366  0.81034  1.0000
  N   N94       1.0  0.80408  0.66510  0.84289  1.0000
  C   C1706     1.0  0.79634  0.69099  0.84605  1.0000
  C   C1707     1.0  0.79316  0.64312  0.86304  1.0000
  C   C1708     1.0  0.83968  0.68047  0.84157  1.0000
  C   C1709     1.0  0.79033  0.64694  0.82134  1.0000
  C   C1710     1.0  0.75414  0.63174  0.81823  1.0000
  C   C1711     1.0  0.80638  0.71538  0.82661  1.0000
  C   C1712     1.0  0.85304  0.65785  0.83953  1.0000
  C   C1713     1.0  0.76263  0.63725  0.87529  1.0000
  C   C1714     1.0  0.75058  0.60925  0.89141  1.0000
  C   C1715     1.0  0.74374  0.61715  0.79477  1.0000
  C   C1716     1.0  0.79554  0.73910  0.83106  1.0000
  C   C1717     1.0  0.68255  0.51290  0.83937  1.0000
  H   H3039     1.0  0.84631  0.53248  0.89493  1.0000
  H   H3040     1.0  0.76455  0.65025  0.73726  1.0000
  H   H3041     1.0  0.68022  0.53020  0.89247  1.0000
  H   H3042     1.0  0.90286  0.50809  0.87997  1.0000
  C   C1718     1.0  0.93355  0.98060  0.85397  1.0000
  H   H3043     1.0  0.86331  0.99870  0.88298  1.0000
  H   H3044     1.0  0.89709  0.97508  0.77956  1.0000
  H   H3045     1.0  0.95121  0.99561  0.84183  1.0000
  H   H3046     1.0  0.86994  0.94528  0.74091  1.0000
  C   C1719     1.0  0.91599  0.99396  0.77037  1.0000
  H   H3047     1.0  0.68970  0.55644  0.82422  1.0000
  H   H3048     1.0  0.86552  0.52457  0.94226  1.0000
  H   H3049     1.0  0.82760  0.96390  0.91238  1.0000
  H   H3050     1.0  0.65707  0.53027  0.85832  1.0000
  C   C1720     1.0  0.92288  0.72176  0.72265  1.0000
  H   H3051     1.0  0.82825  0.84707  0.72475  1.0000
  N   N95       1.0  0.85878  0.50640  0.87183  1.0000
  H   H3052     1.0  0.82138  0.73799  0.72603  1.0000
  H   H3053     1.0  0.98669  0.96445  0.82642  1.0000
  C   C1721     1.0  0.99261  0.96395  0.86271  1.0000
  H   H3054     1.0  0.77538  0.97025  0.72804  1.0000
  H   H3055     1.0  0.61564  0.52369  0.87932  1.0000
  H   H3056     1.0  0.99032  0.93185  0.83644  1.0000
  H   H3057     1.0  0.52544  0.00268  0.96434  1.0000
  H   H3058     1.0  0.80730  0.96232  0.72562  1.0000
  H   H3059     1.0  0.83132  0.97927  0.94056  1.0000
  C   C1722     1.0  0.94245  0.99176  0.76385  1.0000
  H   H3060     1.0  0.82130  0.69084  0.73292  1.0000
  H   H3061     1.0  0.66547  0.52145  0.80757  1.0000
  H   H3062     1.0  0.82962  0.79341  0.72790  1.0000
  H   H3063     1.0  0.81161  0.99524  0.87890  1.0000
  C   C1723     1.0  0.67493  0.50549  0.89091  1.0000
  C   C1724     1.0  0.86802  0.95689  0.72535  1.0000
  S   S384      1.0  0.78189  0.55324  0.72377  1.0000
  C   C1725     1.0  0.80122  0.98039  0.73043  1.0000
  H   H3064     1.0  0.72802  0.74136  0.72548  1.0000
  H   H3065     1.0  0.72386  0.79069  0.72460  1.0000
  H   H3066     1.0  0.00432  0.92689  0.92722  1.0000
  H   H3067     1.0  0.70463  0.52539  0.84942  1.0000
  H   H3068     1.0  0.99768  0.92791  0.87962  1.0000
  H   H3069     1.0  0.83374  0.99665  0.75915  1.0000
  H   H3070     1.0  0.91672  0.99029  0.72028  1.0000
  C   C1726     1.0  0.65348  0.50678  0.85373  1.0000
  C   C1727     1.0  0.61457  0.50858  0.89362  1.0000
  H   H3071     1.0  0.75207  0.50596  0.81142  1.0000
  N   N96       1.0  0.00832  0.96371  0.90466  1.0000
  H   H3072     1.0  0.80072  0.00348  0.76168  1.0000
  C   C1728     1.0  0.76422  0.64540  0.71893  1.0000
