data_image0
_chemical_formula_structural       FeHCHCHCH2FeSC3H4CH4CH3C2H3CSH6SCH7C2HSC2H2CHCHCHSHCH2FeSC2HFeSFeSH2FeSCH2FeSFeCHSC2H3CNHCHC4HCHC2HSH6SC4H3CH5CSH2CHC2SHCHC2SCH2NC2HCH3CH3CH2CHC2HCH2CH2SHC2H4C2SH6CH3CHCHFeSHFeSHFeSFeSHSFeSHFeS2FeSFeS3C3H5CHC3H2C4HC2H3C6H4CH7C2H3C2H2CHCH3CSCNH5CHSH5CHNCH2CH4C2H2C2H4CH4C2HSH2N2C11H14CH12C2H4C2H2C2H4CH3CH7CH2C2HCHCH2CHCHCHC3HC2H2CH2CHCH5C2SH2C2H6C2SHCH2C2HSHSH4CH4C5HC2HCH3CH2C2HC2HCHSH3CH4C2FeH3CHCHNH5CH13NC3H2CFeH2SCH4CH4C2H7CH4CHFeH3C5H4C3H3C2NHC2H6CH20C2HSH2C3HC2H2NCH2C2HC2H3CFeCSH2CHFeSCFeSHS2HFeHFeS2FeS2FeSFeS3FeS2FeS2FeHFeS3HCH6FeC3SCH2C6H4FeH2CH6CH2CHSC3H4CHCHC6H4C6HCH2NC12H28FeH2CH2C5HCHCH2C2H5CH4CHC2H2CHCHC2HCH6C2NHCH3CH3CHC2HC2HCH2C2HCH2CNCH2SHC3HFeH3SCH5SHCH2CHCSH2NCHSCH5CH4FeH2CSHCHC6HCHC2H4CH3CH2CH3CHCH2C2H2C2H3C2H2C2H3CH4CNCH11CSH2CHNCNC2H2CH5CHCH7CSCH2FeS2FeSHFeSFeS3FeS2FeSHFeSFeS4H2C2H2CH2CSCH3C6H10C2H2CH4C2H3C3HC2H5CSHNHNHC2HC2HCHC2H8NHC3HC2HC3HSH6C2H4CHC2H4CH4CH2CH2CH3CH2NH2C3HCH3CHC3HC2H3CH3CHCNH2CHCH3CHCH4CHCH9CH2C2HCH4CH7CH7CH2CH2CSHCH4NCHCH3C2H2CH2CH2CHCH5CH3C7H2C2H5FeCH3SCFeHSFeS2FeHFeS3FeS2FeS2FeSFeS3CHCH2CFeCH2CH4C6H5SHCH2C2H6C2HC2H2CH7C2H3CHCHCHNH4C2H3CH3SCH2NH6C2HNHCNH3CHCFeH4CH3CH4CH2CHSCH3CH3SCHCH2NH2SH3C3H2CH2CH2CHC2HNHC3H5C4H2CNC2H3C3HCH2CH14CH3CH2SCH2CH2C3HCHCH2C2HC2HCH2CHCH4C4HCSH4CHCH4CH2CHC2H6CH2CH2CHCHC2H3CSH2CH3C2HCH2CHCHFeS2FeSHFeHCFeS2FeS2FeS2FeSFeS3FeS2FeS2FeSFeHS2H2S2NHC4SCHCH2CH2FeHC6H2CHC6H7C2FeCH3CHFeHC2H6CHCH2NH2CHCHC3H2C2HS2C3H4CH2C2HCHSH2CH3SCH8CHFeH2CH3CH3CH5CHCH4CHCH2CH2C10H4CH3CHCH4SCH8NC12H20CH7NC2HCNCHCH3CH6SCHFeH2CH3CH2CH3C2H2CHCSHC6HCH3CH4CHCHCH4CH7CH3NH4C2HCHNHCH4SHC2H4C2H2C2H3C3HCH2C2H3C2HCH5SHFeSCHFeHSHCHSHSH3CH4CH2C3HCHCH2FeHC2H2CH2CH4C2H3C2H5C3H3FeH2CH2CH2CH2SH2C3NC6HCHC2H5CH8CH3CH8CNC2H2SHSH2CHSH2C2H6CHCHCHCH4CH5NC3H6FeS2FeC2FeSFeHS2FeSHFeS2FeSFeS3HCH5CH4CH2C6H6CHCHC4HC4NC6HC2H4CH14CHCH7C2H3CH6CHSHCHC2HCHCHSHCHCH7CHNC3H2CH4CH4C2H4CSCHCH4CH3C2HCHCHCH2CHCH6C2HC2H6CH3CH2CH2CH2CNCH2NCH4SFeS2FeSFeSNSFeS2FeC2Fe2CHSH2C2HC4H4SCNC3H2C3H7CH4C4HC2H2CH5C2H2SH2C2HCH3SCH3SH3C2HCH3CH2CHCH9CH7C2H2CSHCHCHCHCFeS2H2FeH2CFeCSHCHSCHFeCHC2HC3H4SFeC2H2CH2CHCH7SCHC2H4CHCH2CSHCHNC3H2CHSHSCH3C4H4NHSHCH6CSH4C
_chemical_formula_sum              "Fe96 H1536 C864 S192 N48"
_cell_length_a       61.3139
_cell_length_b       61.2735
_cell_length_c       40.0362
_cell_angle_alpha    90.3385
_cell_angle_beta     90.3846
_cell_angle_gamma    120.402

_space_group_name_H-M_alt    "P 1"
_space_group_IT_number       1

loop_
  _space_group_symop_operation_xyz
  'x, y, z'

loop_
  _atom_site_type_symbol
  _atom_site_label
  _atom_site_symmetry_multiplicity
  _atom_site_fract_x
  _atom_site_fract_y
  _atom_site_fract_z
  _atom_site_occupancy
  Fe  Fe1       1.0  0.29993  0.46939  0.44374  1.0000
  H   H1        1.0  0.25923  0.35180  0.37553  1.0000
  C   C1        1.0  0.24185  0.46737  0.00057  1.0000
  H   H2        1.0  0.11889  0.46770  0.04758  1.0000
  C   C2        1.0  0.28428  0.38695  0.34963  1.0000
  H   H3        1.0  0.29130  0.35765  0.33193  1.0000
  C   C3        1.0  0.28210  0.36973  0.26608  1.0000
  H   H4        1.0  0.13778  0.38818  0.99908  1.0000
  H   H5        1.0  0.26992  0.38359  0.33017  1.0000
  Fe  Fe2       1.0  0.29425  0.45478  0.06394  1.0000
  S   S1        1.0  0.25207  0.44271  0.05276  1.0000
  C   C4        1.0  0.12930  0.47436  0.43969  1.0000
  C   C5        1.0  0.23243  0.45014  0.02698  1.0000
  C   C6        1.0  0.20619  0.43787  0.03301  1.0000
  H   H6        1.0  0.26909  0.35771  0.28589  1.0000
  H   H7        1.0  0.19850  0.42457  0.05331  1.0000
  H   H8        1.0  0.99619  0.38336  0.00414  1.0000
  H   H9        1.0  0.22845  0.45724  0.43977  1.0000
  C   C7        1.0  0.22466  0.46198  0.46428  1.0000
  H   H10       1.0  0.09062  0.36059  0.47048  1.0000
  H   H11       1.0  0.27874  0.38656  0.21976  1.0000
  H   H12       1.0  0.28362  0.37639  0.40175  1.0000
  H   H13       1.0  0.28961  0.35886  0.25316  1.0000
  C   C8        1.0  0.27013  0.37248  0.38073  1.0000
  H   H14       1.0  0.02427  0.44637  0.47452  1.0000
  H   H15       1.0  0.04982  0.40348  0.46559  1.0000
  H   H16       1.0  0.05425  0.32482  0.44063  1.0000
  C   C9        1.0  0.30272  0.37830  0.33759  1.0000
  C   C10       1.0  0.30407  0.39492  0.28044  1.0000
  H   H17       1.0  0.16141  0.48319  0.07239  1.0000
  H   H18       1.0  0.11328  0.47790  0.44145  1.0000
  H   H19       1.0  0.12561  0.46115  0.41845  1.0000
  C   C11       1.0  0.12732  0.48427  0.06489  1.0000
  S   S2        1.0  0.29184  0.43566  0.41147  1.0000
  H   H20       1.0  0.02632  0.30363  0.46355  1.0000
  H   H21       1.0  0.25671  0.37865  0.38848  1.0000
  H   H22       1.0  0.29639  0.40716  0.28826  1.0000
  H   H23       1.0  0.28240  0.43488  0.25073  1.0000
  H   H24       1.0  0.25134  0.35659  0.22985  1.0000
  H   H25       1.0  0.07959  0.38808  0.45357  1.0000
  S   S3        1.0  0.30481  0.43819  0.10778  1.0000
  C   C12       1.0  0.07050  0.41686  0.46375  1.0000
  H   H26       1.0  0.12032  0.47744  0.09042  1.0000
  H   H27       1.0  0.07476  0.42418  0.43788  1.0000
  H   H28       1.0  0.05569  0.30470  0.47254  1.0000
  H   H29       1.0  0.18645  0.45245  0.45161  1.0000
  H   H30       1.0  0.07587  0.43301  0.48115  1.0000
  H   H31       1.0  0.04391  0.34737  0.48375  1.0000
  H   H32       1.0  0.25772  0.38474  0.25256  1.0000
  C   C13       1.0  0.26659  0.37479  0.24051  1.0000
  C   C14       1.0  0.20074  0.45931  0.47113  1.0000
  H   H33       1.0  0.10563  0.41765  0.46901  1.0000
  S   S4        1.0  0.27460  0.47514  0.48198  1.0000
  C   C15       1.0  0.08527  0.40358  0.47212  1.0000
  C   C16       1.0  0.18971  0.44243  0.01308  1.0000
  H   H34       1.0  0.30074  0.44971  0.19447  1.0000
  H   H35       1.0  0.16970  0.43269  0.01831  1.0000
  C   C17       1.0  0.31160  0.45947  0.21663  1.0000
  H   H36       1.0  0.29464  0.40734  0.35601  1.0000
  C   C18       1.0  0.30127  0.45107  0.24865  1.0000
  H   H37       1.0  0.13033  0.46517  0.46296  1.0000
  C   C19       1.0  0.04715  0.31630  0.46550  1.0000
  H   H38       1.0  0.26188  0.47706  0.99539  1.0000
  S   S5        1.0  0.30032  0.45264  0.31752  1.0000
  H   H39       1.0  0.11243  0.35621  0.99182  1.0000
  C   C20       1.0  0.24359  0.47078  0.48907  1.0000
  H   H40       1.0  0.98175  0.41318  0.48767  1.0000
  H   H41       1.0  0.98025  0.43836  0.46749  1.0000
  Fe  Fe3       1.0  0.12493  0.46809  0.62398  1.0000
  S   S6        1.0  0.11348  0.43636  0.58614  1.0000
  C   C21       1.0  0.08232  0.35455  0.49574  1.0000
  C   C22       1.0  0.21404  0.47416  0.52761  1.0000
  H   H42       1.0  0.00274  0.44448  0.94241  1.0000
  Fe  Fe4       1.0  0.08338  0.44531  0.56951  1.0000
  S   S7        1.0  0.04380  0.41695  0.54771  1.0000
  Fe  Fe5       1.0  0.14030  0.46652  0.55057  1.0000
  S   S8        1.0  0.16424  0.46130  0.50972  1.0000
  H   H43       1.0  0.20097  0.46326  0.84400  1.0000
  H   H44       1.0  0.05141  0.33380  0.60145  1.0000
  Fe  Fe6       1.0  0.10796  0.45253  0.87743  1.0000
  S   S9        1.0  0.10505  0.42539  0.91764  1.0000
  C   C23       1.0  0.10227  0.45144  0.72222  1.0000
  H   H45       1.0  0.99744  0.40569  0.82965  1.0000
  H   H46       1.0  0.15958  0.42380  0.85310  1.0000
  Fe  Fe7       1.0  0.13965  0.45871  0.94206  1.0000
  S   S10       1.0  0.17885  0.46473  0.95887  1.0000
  Fe  Fe8       1.0  0.08172  0.43884  0.94509  1.0000
  C   C24       1.0  0.11941  0.39341  0.51605  1.0000
  H   H47       1.0  0.16459  0.41272  0.95175  1.0000
  S   S11       1.0  0.08334  0.46436  0.90426  1.0000
  C   C25       1.0  0.01266  0.39877  0.95638  1.0000
  C   C26       1.0  0.00718  0.40049  0.92282  1.0000
  H   H48       1.0  0.21023  0.47884  0.55216  1.0000
  H   H49       1.0  0.02251  0.41080  0.90561  1.0000
  H   H50       1.0  0.15648  0.43649  0.89218  1.0000
  C   C27       1.0  0.19058  0.39233  0.91831  1.0000
  N   N1        1.0  0.09098  0.37721  0.51854  1.0000
  H   H51       1.0  0.03587  0.35114  0.61229  1.0000
  C   C28       1.0  0.07993  0.39336  0.50831  1.0000
  H   H52       1.0  0.14339  0.34491  0.90046  1.0000
  C   C29       1.0  0.01214  0.40055  0.56333  1.0000
  C   C30       1.0  0.99196  0.38567  0.54107  1.0000
  C   C31       1.0  0.00654  0.40149  0.59696  1.0000
  C   C32       1.0  0.16322  0.40018  0.52755  1.0000
  H   H53       1.0  0.02171  0.41267  0.61454  1.0000
  C   C33       1.0  0.12823  0.46231  0.71682  1.0000
  H   H54       1.0  0.07245  0.43625  0.75862  1.0000
  C   C34       1.0  0.98181  0.38867  0.91140  1.0000
  C   C35       1.0  0.10874  0.44991  0.78262  1.0000
  H   H55       1.0  0.23783  0.40044  0.93937  1.0000
  S   S12       1.0  0.09331  0.47503  0.60959  1.0000
  H   H56       1.0  0.21960  0.42856  0.94122  1.0000
  H   H57       1.0  0.04251  0.47302  0.81218  1.0000
  H   H58       1.0  0.00201  0.43431  0.81091  1.0000
  H   H59       1.0  0.13920  0.34679  0.82397  1.0000
  H   H60       1.0  0.99596  0.38447  0.51508  1.0000
  H   H61       1.0  0.16875  0.35408  0.87169  1.0000
  S   S13       1.0  0.04443  0.41323  0.97222  1.0000
  C   C36       1.0  0.05933  0.36510  0.56837  1.0000
  C   C37       1.0  0.17019  0.43583  0.87494  1.0000
  C   C38       1.0  0.18716  0.46271  0.86229  1.0000
  C   C39       1.0  0.09262  0.44512  0.75488  1.0000
  H   H62       1.0  0.16795  0.41627  0.54485  1.0000
  H   H63       1.0  0.14730  0.46407  0.79807  1.0000
  H   H64       1.0  0.06919  0.36493  0.62079  1.0000
  C   C40       1.0  0.14436  0.46708  0.74456  1.0000
  H   H65       1.0  0.20339  0.39381  0.89769  1.0000
  H   H66       1.0  0.12620  0.41126  0.53072  1.0000
  H   H67       1.0  0.15040  0.36509  0.96009  1.0000
  H   H68       1.0  0.08960  0.44754  0.70120  1.0000
  H   H69       1.0  0.13987  0.40248  0.92227  1.0000
  C   C41       1.0  0.13202  0.33845  0.84890  1.0000
  S   S14       1.0  0.14156  0.46993  0.67618  1.0000
  H   H70       1.0  0.11356  0.33726  0.85318  1.0000
  H   H71       1.0  0.17533  0.46927  0.84973  1.0000
  C   C42       1.0  0.13831  0.37231  0.95035  1.0000
  H   H72       1.0  0.06605  0.46774  0.79326  1.0000
  C   C43       1.0  0.05338  0.33691  0.49176  1.0000
  C   C44       1.0  0.18601  0.42594  0.89302  1.0000
  S   S15       1.0  0.09519  0.44087  0.82303  1.0000
  H   H73       1.0  0.12381  0.35820  0.93295  1.0000
  C   C45       1.0  0.19906  0.45923  0.98626  1.0000
  H   H74       1.0  0.06059  0.38373  0.57126  1.0000
  C   C46       1.0  0.05371  0.35297  0.60284  1.0000
  C   C47       1.0  0.23795  0.47682  0.52076  1.0000
  S   S16       1.0  0.11606  0.47012  0.97255  1.0000
  C   C48       1.0  0.20745  0.40846  0.94818  1.0000
  H   H75       1.0  0.04304  0.35312  0.55174  1.0000
  H   H76       1.0  0.18130  0.37239  0.92647  1.0000
  N   N2        1.0  0.17147  0.39901  0.90542  1.0000
  C   C49       1.0  0.15394  0.39789  0.93249  1.0000
  C   C50       1.0  0.99228  0.38500  0.97818  1.0000
  H   H77       1.0  0.16692  0.38994  0.85233  1.0000
  C   C51       1.0  0.22512  0.39917  0.95985  1.0000
  H   H78       1.0  0.20113  0.42821  0.87561  1.0000
  H   H79       1.0  0.21411  0.37932  0.96856  1.0000
  H   H80       1.0  0.09938  0.38325  0.57187  1.0000
  C   C52       1.0  0.15103  0.35434  0.87637  1.0000
  H   H81       1.0  0.04523  0.32725  0.51566  1.0000
  H   H82       1.0  0.12895  0.31896  0.84901  1.0000
  H   H83       1.0  0.19576  0.40729  0.96984  1.0000
  C   C53       1.0  0.13484  0.38106  0.52789  1.0000
  H   H84       1.0  0.16936  0.40759  0.50197  1.0000
  H   H85       1.0  0.13828  0.38161  0.87305  1.0000
  C   C54       1.0  0.19511  0.46529  0.50284  1.0000
  H   H86       1.0  0.06135  0.46464  0.83789  1.0000
  C   C55       1.0  0.22533  0.47181  0.98046  1.0000
  C   C56       1.0  0.15660  0.38206  0.87613  1.0000
  H   H87       1.0  0.08706  0.41004  0.52538  1.0000
  C   C57       1.0  0.08467  0.36897  0.55459  1.0000
  H   H88       1.0  0.12994  0.37377  0.55368  1.0000
  H   H89       1.0  0.08512  0.35126  0.55893  1.0000
  C   C58       1.0  0.99417  0.45096  0.96154  1.0000
  H   H90       1.0  0.19589  0.43940  0.91404  1.0000
  H   H91       1.0  0.99921  0.44694  0.98656  1.0000
  S   S17       1.0  0.10944  0.47341  0.53143  1.0000
  H   H92       1.0  0.17393  0.39095  0.53573  1.0000
  C   C59       1.0  0.13471  0.46091  0.77724  1.0000
  C   C60       1.0  0.98127  0.38739  0.60815  1.0000
  H   H93       1.0  0.13139  0.36517  0.51102  1.0000
  H   H94       1.0  0.08966  0.34235  0.50489  1.0000
  H   H95       1.0  0.23702  0.41119  0.98107  1.0000
  H   H96       1.0  0.19748  0.47585  0.88346  1.0000
  C   C61       1.0  0.98785  0.41628  0.82249  1.0000
  C   C62       1.0  0.12420  0.37494  0.98002  1.0000
  S   S18       1.0  0.14373  0.48457  0.89936  1.0000
  H   H97       1.0  0.16444  0.47530  0.74064  1.0000
  H   H98       1.0  0.11156  0.38202  0.97174  1.0000
  H   H99       1.0  0.02098  0.44600  0.51918  1.0000
  H   H100      1.0  0.00230  0.47168  0.95889  1.0000
  H   H101      1.0  0.05911  0.38310  0.51121  1.0000
  H   H102      1.0  0.98050  0.45490  0.52959  1.0000
  C   C63       1.0  0.06160  0.47549  0.81565  1.0000
  H   H103      1.0  0.25220  0.48350  0.54033  1.0000
  H   H104      1.0  0.23302  0.48492  0.95998  1.0000
  H   H105      1.0  0.01983  0.47018  0.49473  1.0000
  C   C64       1.0  0.01448  0.44996  0.49521  1.0000
  H   H106      1.0  0.98052  0.42081  0.84520  1.0000
  C   C65       1.0  0.98587  0.43295  0.49089  1.0000
  H   H107      1.0  0.12525  0.39932  0.48987  1.0000
  Fe  Fe9       1.0  0.15782  0.69468  0.45515  1.0000
  S   S19       1.0  0.16133  0.67354  0.41051  1.0000
  H   H108      1.0  0.20354  0.53446  0.42549  1.0000
  Fe  Fe10      1.0  0.09856  0.66052  0.45280  1.0000
  S   S20       1.0  0.09923  0.63807  0.40927  1.0000
  H   H109      1.0  0.24360  0.52897  0.01763  1.0000
  Fe  Fe11      1.0  0.13163  0.63798  0.43573  1.0000
  S   S21       1.0  0.12987  0.59986  0.43599  1.0000
  Fe  Fe12      1.0  0.12834  0.67521  0.38765  1.0000
  S   S22       1.0  0.11881  0.68324  0.33515  1.0000
  H   H110      1.0  0.27424  0.76278  0.48029  1.0000
  S   S23       1.0  0.12637  0.69837  0.43069  1.0000
  Fe  Fe13      1.0  0.12207  0.62572  0.07324  1.0000
  S   S24       1.0  0.11353  0.65038  0.04044  1.0000
  H   H111      1.0  0.16931  0.49445  0.43115  1.0000
  Fe  Fe14      1.0  0.13034  0.65859  0.13659  1.0000
  S   S25       1.0  0.12246  0.68538  0.10797  1.0000
  S   S26       1.0  0.14729  0.66324  0.18918  1.0000
  Fe  Fe15      1.0  0.08973  0.64969  0.08441  1.0000
  S   S27       1.0  0.04979  0.64476  0.08577  1.0000
  Fe  Fe16      1.0  0.14684  0.68404  0.06653  1.0000
  S   S28       1.0  0.18470  0.71834  0.04802  1.0000
  S   S29       1.0  0.09688  0.62346  0.11548  1.0000
  S   S30       1.0  0.15599  0.65877  0.09668  1.0000
  C   C66       1.0  0.01869  0.61831  0.07800  1.0000
  C   C67       1.0  0.01445  0.59549  0.06385  1.0000
  C   C68       1.0  0.99750  0.62060  0.08556  1.0000
  H   H112      1.0  0.03042  0.59334  0.05770  1.0000
  H   H113      1.0  0.00043  0.63816  0.09625  1.0000
  H   H114      1.0  0.17628  0.54760  0.40706  1.0000
  H   H115      1.0  0.16511  0.54783  0.06156  1.0000
  H   H116      1.0  0.20749  0.60031  0.03971  1.0000
  C   C69       1.0  0.99337  0.63920  0.34238  1.0000
  H   H117      1.0  0.19067  0.59537  0.44942  1.0000
  C   C70       1.0  0.23713  0.52861  0.45986  1.0000
  C   C71       1.0  0.20855  0.51537  0.04605  1.0000
  C   C72       1.0  0.24962  0.51902  0.06645  1.0000
  H   H118      1.0  0.03641  0.67347  0.21814  1.0000
  H   H119      1.0  0.20501  0.55054  0.07363  1.0000
  C   C73       1.0  0.02881  0.63293  0.46486  1.0000
  C   C74       1.0  0.15617  0.49736  0.06470  1.0000
  C   C75       1.0  0.02047  0.61624  0.43736  1.0000
  C   C76       1.0  0.21782  0.67431  0.07175  1.0000
  H   H120      1.0  0.03400  0.61357  0.42351  1.0000
  C   C77       1.0  0.12425  0.57514  0.02476  1.0000
  C   C78       1.0  0.00985  0.62805  0.33115  1.0000
  H   H121      1.0  0.04180  0.62131  0.29393  1.0000
  H   H122      1.0  0.22206  0.56366  0.44642  1.0000
  H   H123      1.0  0.21186  0.78864  0.05993  1.0000
  C   C79       1.0  0.12578  0.67563  0.29508  1.0000
  C   C80       1.0  0.14505  0.67011  0.29033  1.0000
  C   C81       1.0  0.15107  0.66601  0.25778  1.0000
  C   C82       1.0  0.13754  0.66673  0.22967  1.0000
  C   C83       1.0  0.11763  0.67132  0.23453  1.0000
  C   C84       1.0  0.11212  0.67618  0.26696  1.0000
  H   H124      1.0  0.15581  0.66971  0.31161  1.0000
  H   H125      1.0  0.16648  0.66242  0.25435  1.0000
  H   H126      1.0  0.10696  0.67180  0.21321  1.0000
  H   H127      1.0  0.09739  0.68070  0.27019  1.0000
  C   C85       1.0  0.05033  0.68358  0.37170  1.0000
  H   H128      1.0  0.00175  0.58626  0.14493  1.0000
  H   H129      1.0  0.20579  0.77251  0.45882  1.0000
  H   H130      1.0  0.31000  0.82113  0.48459  1.0000
  H   H131      1.0  0.04633  0.64873  0.25668  1.0000
  H   H132      1.0  0.23888  0.75345  0.04883  1.0000
  H   H133      1.0  0.03222  0.69009  0.25247  1.0000
  H   H134      1.0  0.07061  0.64486  0.31267  1.0000
  C   C86       1.0  0.04415  0.66676  0.30356  1.0000
  C   C87       1.0  0.01083  0.63566  0.48304  1.0000
  H   H135      1.0  0.16518  0.58893  0.39738  1.0000
  H   H136      1.0  0.17325  0.55815  0.01971  1.0000
  H   H137      1.0  0.16326  0.50807  0.48591  1.0000
  C   C88       1.0  0.30732  0.78037  0.44735  1.0000
  C   C89       1.0  0.99724  0.58599  0.17199  1.0000
  H   H138      1.0  0.27044  0.52923  0.06311  1.0000
  H   H139      1.0  0.00568  0.57585  0.18479  1.0000
  C   C90       1.0  0.01244  0.61430  0.18277  1.0000
  H   H140      1.0  0.00766  0.61750  0.20820  1.0000
  C   C91       1.0  0.15411  0.49911  0.43420  1.0000
  H   H141      1.0  0.11835  0.51913  0.99842  1.0000
  H   H142      1.0  0.24574  0.55040  0.05044  1.0000
  H   H143      1.0  0.22951  0.51510  0.43841  1.0000
  C   C92       1.0  0.19279  0.58519  0.42778  1.0000
  S   S31       1.0  0.12948  0.65843  0.48100  1.0000
  C   C93       1.0  0.17578  0.55602  0.43153  1.0000
  N   N3        1.0  0.18251  0.54409  0.45980  1.0000
  H   H144      1.0  0.05948  0.54558  0.45310  1.0000
  H   H145      1.0  0.18596  0.65581  0.03859  1.0000
  H   H146      1.0  0.20928  0.65844  0.08971  1.0000
  H   H147      1.0  0.11733  0.71852  0.22439  1.0000
  H   H148      1.0  0.99672  0.65559  0.32708  1.0000
  C   C94       1.0  0.18119  0.55982  0.04503  1.0000
  H   H149      1.0  0.20121  0.51322  0.48347  1.0000
  S   S32       1.0  0.06123  0.65116  0.47773  1.0000
  H   H150      1.0  0.19980  0.58984  0.08256  1.0000
  H   H151      1.0  0.15604  0.55207  0.43420  1.0000
  H   H152      1.0  0.21302  0.59102  0.42573  1.0000
  H   H153      1.0  0.04646  0.61460  0.20014  1.0000
  H   H154      1.0  0.05902  0.70919  0.41397  1.0000
  C   C95       1.0  0.05058  0.55752  0.45331  1.0000
  H   H155      1.0  0.04524  0.55383  0.39954  1.0000
  N   N4        1.0  0.19483  0.52698  0.02884  1.0000
  C   C96       1.0  0.27977  0.77274  0.45609  1.0000
  H   H156      1.0  0.06498  0.68023  0.30382  1.0000
  H   H157      1.0  0.04660  0.62193  0.15635  1.0000
  C   C97       1.0  0.23878  0.80088  0.48641  1.0000
  H   H158      1.0  0.06304  0.69394  0.24456  1.0000
  H   H159      1.0  0.20412  0.51294  0.07317  1.0000
  H   H160      1.0  0.24567  0.52084  0.09304  1.0000
  H   H161      1.0  0.03822  0.64458  0.38294  1.0000
  C   C98       1.0  0.05627  0.69013  0.40877  1.0000
  C   C99       1.0  0.21927  0.77585  0.47860  1.0000
  H   H162      1.0  0.08621  0.61740  0.33207  1.0000
  H   H163      1.0  0.98867  0.59191  0.40491  1.0000
  C   C100      1.0  0.04853  0.61112  0.34210  1.0000
  C   C101      1.0  0.24786  0.77854  0.00674  1.0000
  H   H164      1.0  0.23805  0.78622  0.25261  1.0000
  H   H165      1.0  0.23989  0.81647  0.47246  1.0000
  H   H166      1.0  0.05141  0.64503  0.18785  1.0000
  H   H167      1.0  0.16296  0.49094  0.01368  1.0000
  C   C102      1.0  0.05424  0.56911  0.41870  1.0000
  H   H168      1.0  0.00228  0.61781  0.30702  1.0000
  H   H169      1.0  0.00604  0.61304  0.34955  1.0000
  H   H170      1.0  0.06144  0.59366  0.30549  1.0000
  H   H171      1.0  0.23862  0.69256  0.01058  1.0000
  C   C103      1.0  0.26110  0.75460  0.42977  1.0000
  C   C104      1.0  0.05027  0.63159  0.31779  1.0000
  H   H172      1.0  0.15189  0.50710  0.41056  1.0000
  S   S33       1.0  0.12413  0.59017  0.06262  1.0000
  H   H173      1.0  0.17776  0.76946  0.05650  1.0000
  H   H174      1.0  0.14318  0.51844  0.47021  1.0000
  N   N5        1.0  0.03790  0.64634  0.32897  1.0000
  N   N6        1.0  0.18918  0.75138  0.15336  1.0000
  C   C105      1.0  0.18879  0.72663  0.15684  1.0000
  C   C106      1.0  0.16414  0.74847  0.16393  1.0000
  C   C107      1.0  0.19256  0.75810  0.11678  1.0000
  C   C108      1.0  0.21083  0.77266  0.17260  1.0000
  C   C109      1.0  0.21296  0.76804  0.21013  1.0000
  C   C110      1.0  0.21297  0.72659  0.14558  1.0000
  C   C111      1.0  0.19215  0.78244  0.10719  1.0000
  C   C112      1.0  0.14961  0.72955  0.19227  1.0000
  C   C113      1.0  0.12746  0.73227  0.20424  1.0000
  C   C114      1.0  0.23723  0.78971  0.22555  1.0000
  C   C115      1.0  0.21271  0.70270  0.15703  1.0000
  H   H175      1.0  0.15553  0.51509  0.01832  1.0000
  H   H176      1.0  0.17267  0.71151  0.14214  1.0000
  H   H177      1.0  0.18512  0.71985  0.18295  1.0000
  H   H178      1.0  0.16661  0.76718  0.17114  1.0000
  H   H179      1.0  0.15044  0.74167  0.14250  1.0000
  H   H180      1.0  0.17740  0.74216  0.10189  1.0000
  H   H181      1.0  0.21079  0.76075  0.10745  1.0000
  H   H182      1.0  0.22917  0.77807  0.16054  1.0000
  H   H183      1.0  0.20949  0.79008  0.17159  1.0000
  H   H184      1.0  0.21335  0.75037  0.21429  1.0000
  H   H185      1.0  0.19694  0.76724  0.22387  1.0000
  H   H186      1.0  0.21420  0.72709  0.11790  1.0000
  H   H187      1.0  0.23036  0.74295  0.15610  1.0000
  H   H188      1.0  0.20858  0.79947  0.11845  1.0000
  C   C116      1.0  0.12047  0.55055  0.02609  1.0000
  H   H189      1.0  0.14174  0.70990  0.18269  1.0000
  H   H190      1.0  0.16177  0.73201  0.21416  1.0000
  H   H191      1.0  0.04542  0.58105  0.41715  1.0000
  H   H192      1.0  0.13435  0.75160  0.21444  1.0000
  H   H193      1.0  0.25411  0.79101  0.21346  1.0000
  H   H194      1.0  0.23775  0.80800  0.22280  1.0000
  H   H195      1.0  0.30670  0.85393  0.45309  1.0000
  H   H196      1.0  0.22986  0.70286  0.14795  1.0000
  H   H197      1.0  0.21248  0.70170  0.18474  1.0000
  H   H198      1.0  0.19582  0.68553  0.14693  1.0000
  H   H199      1.0  0.21357  0.68907  0.08021  1.0000
  H   H200      1.0  0.25302  0.54700  0.45135  1.0000
  C   C117      1.0  0.20674  0.66463  0.03681  1.0000
  C   C118      1.0  0.21630  0.53205  0.47529  1.0000
  H   H201      1.0  0.99735  0.64506  0.36909  1.0000
  H   H202      1.0  0.24151  0.74916  0.43686  1.0000
  H   H203      1.0  0.06437  0.58667  0.34841  1.0000
  H   H204      1.0  0.06870  0.66219  0.36556  1.0000
  C   C119      1.0  0.06620  0.60165  0.33125  1.0000
  C   C120      1.0  0.98951  0.57568  0.05662  1.0000
  H   H205      1.0  0.17713  0.59224  0.05636  1.0000
  H   H206      1.0  0.06571  0.69914  0.35725  1.0000
  C   C121      1.0  0.19371  0.78605  0.06936  1.0000
  C   C122      1.0  0.20356  0.53180  0.99304  1.0000
  H   H207      1.0  0.05378  0.61838  0.36800  1.0000
  H   H208      1.0  0.01543  0.64444  0.26480  1.0000
  H   H209      1.0  0.00835  0.62580  0.16516  1.0000
  H   H210      1.0  0.26498  0.76377  0.40496  1.0000
  C   C123      1.0  0.20624  0.54404  0.45016  1.0000
  H   H211      1.0  0.07471  0.58078  0.41311  1.0000
  H   H212      1.0  0.01431  0.56979  0.47716  1.0000
  H   H213      1.0  0.03563  0.67838  0.31024  1.0000
  C   C124      1.0  0.04234  0.68028  0.24424  1.0000
  H   H214      1.0  0.11664  0.54102  0.04984  1.0000
  H   H215      1.0  0.11475  0.54801  0.44800  1.0000
  H   H216      1.0  0.30836  0.76272  0.44697  1.0000
  H   H217      1.0  0.02899  0.59460  0.34227  1.0000
  H   H218      1.0  0.07380  0.69021  0.41615  1.0000
  H   H219      1.0  0.24451  0.52071  0.47875  1.0000
  H   H220      1.0  0.04038  0.67620  0.42423  1.0000
  C   C125      1.0  0.12856  0.58386  0.47324  1.0000
  H   H221      1.0  0.19277  0.80317  0.06301  1.0000
  H   H222      1.0  0.24208  0.49870  0.06033  1.0000
  C   C126      1.0  0.16043  0.51758  0.46421  1.0000
  C   C127      1.0  0.23780  0.53020  0.04349  1.0000
  H   H223      1.0  0.03249  0.68325  0.36600  1.0000
  C   C128      1.0  0.20495  0.74407  0.02093  1.0000
  H   H224      1.0  0.17455  0.78162  0.11556  1.0000
  C   C129      1.0  0.03607  0.65786  0.26683  1.0000
  H   H225      1.0  0.03003  0.54505  0.45754  1.0000
  H   H226      1.0  0.27745  0.78953  0.45728  1.0000
  C   C130      1.0  0.12053  0.55793  0.47176  1.0000
  H   H227      1.0  0.11390  0.72842  0.18337  1.0000
  C   C131      1.0  0.20131  0.55147  0.04653  1.0000
  H   H228      1.0  0.05933  0.59366  0.47496  1.0000
  C   C132      1.0  0.23124  0.75818  0.02747  1.0000
  H   H229      1.0  0.23863  0.68240  0.07193  1.0000
  C   C133      1.0  0.04886  0.65814  0.36285  1.0000
  C   C134      1.0  0.04093  0.62448  0.18175  1.0000
  C   C135      1.0  0.19222  0.58726  0.05665  1.0000
  H   H230      1.0  0.26220  0.73709  0.42800  1.0000
  C   C136      1.0  0.12149  0.53812  0.99699  1.0000
  C   C137      1.0  0.21818  0.68643  0.01132  1.0000
  H   H231      1.0  0.21944  0.56727  0.03695  1.0000
  H   H232      1.0  0.20185  0.49594  0.03591  1.0000
  C   C138      1.0  0.18541  0.59432  0.39655  1.0000
  H   H233      1.0  0.21154  0.65001  0.02990  1.0000
  H   H234      1.0  0.98664  0.55844  0.04496  1.0000
  C   C139      1.0  0.99470  0.60372  0.42711  1.0000
  H   H235      1.0  0.17649  0.68579  0.99456  1.0000
  C   C140      1.0  0.16697  0.50762  0.02957  1.0000
  H   H236      1.0  0.19699  0.61527  0.39520  1.0000
  H   H237      1.0  0.08388  0.58696  0.47844  1.0000
  H   H238      1.0  0.21728  0.70270  0.02222  1.0000
  H   H239      1.0  0.18868  0.58610  0.37364  1.0000
  H   H240      1.0  0.26792  0.78913  0.01235  1.0000
  C   C141      1.0  0.12905  0.58726  0.99392  1.0000
  C   C142      1.0  0.06302  0.57816  0.48104  1.0000
  S   S34       1.0  0.19296  0.72293  0.48756  1.0000
  H   H241      1.0  0.98884  0.54426  0.14147  1.0000
  H   H242      1.0  0.99032  0.58712  0.24520  1.0000
  C   C143      1.0  0.98523  0.62319  0.47293  1.0000
  C   C144      1.0  0.19568  0.75062  0.99298  1.0000
  H   H243      1.0  0.16380  0.51271  0.08380  1.0000
  H   H244      1.0  0.12094  0.49761  0.05744  1.0000
  H   H245      1.0  0.31009  0.78680  0.42111  1.0000
  H   H246      1.0  0.13193  0.60614  0.99269  1.0000
  H   H247      1.0  0.22392  0.54657  0.99186  1.0000
  H   H248      1.0  0.16810  0.65393  0.99111  1.0000
  C   C145      1.0  0.07293  0.58935  0.54055  1.0000
  C   C146      1.0  0.21267  0.81247  0.56655  1.0000
  S   S35       1.0  0.28025  0.83833  0.52163  1.0000
  H   H249      1.0  0.06761  0.58320  0.56679  1.0000
  C   C147      1.0  0.12677  0.55036  0.96627  1.0000
  H   H250      1.0  0.15239  0.58745  0.81203  1.0000
  H   H251      1.0  0.28316  0.78745  0.60586  1.0000
  C   C148      1.0  0.05400  0.51070  0.55833  1.0000
  C   C149      1.0  0.21144  0.66148  0.95905  1.0000
  H   H252      1.0  0.19318  0.51259  0.82265  1.0000
  S   S36       1.0  0.25848  0.81082  0.95130  1.0000
  H   H253      1.0  0.20469  0.77574  0.95094  1.0000
  S   S37       1.0  0.12554  0.54159  0.56911  1.0000
  H   H254      1.0  0.19621  0.52382  0.92467  1.0000
  H   H255      1.0  0.21703  0.61861  0.96485  1.0000
  H   H256      1.0  0.25672  0.72833  0.98190  1.0000
  H   H257      1.0  0.16914  0.52747  0.96831  1.0000
  C   C150      1.0  0.25186  0.80823  0.61083  1.0000
  H   H258      1.0  0.21967  0.55678  0.93172  1.0000
  H   H259      1.0  0.19363  0.80175  0.57780  1.0000
  H   H260      1.0  0.14162  0.61636  0.50560  1.0000
  H   H261      1.0  0.16510  0.52243  0.79091  1.0000
  C   C151      1.0  0.13444  0.58317  0.53323  1.0000
  C   C152      1.0  0.31063  0.86084  0.75075  1.0000
  C   C153      1.0  0.16584  0.67073  0.94463  1.0000
  C   C154      1.0  0.25481  0.78536  0.52959  1.0000
  C   C155      1.0  0.12669  0.55733  0.53173  1.0000
  H   H262      1.0  0.11957  0.54729  0.86429  1.0000
  C   C156      1.0  0.01641  0.57467  0.50417  1.0000
  C   C157      1.0  0.08097  0.50357  0.82023  1.0000
  H   H263      1.0  0.26748  0.82063  0.59369  1.0000
  C   C158      1.0  0.21006  0.82566  0.53577  1.0000
  H   H264      1.0  0.17371  0.62856  0.94885  1.0000
  H   H265      1.0  0.15192  0.61824  0.85238  1.0000
  H   H266      1.0  0.30963  0.53943  0.49878  1.0000
  C   C159      1.0  0.25664  0.80597  0.51212  1.0000
  H   H267      1.0  0.18636  0.52358  0.86081  1.0000
  H   H268      1.0  0.08015  0.51360  0.79770  1.0000
  C   C160      1.0  0.13113  0.54059  0.78191  1.0000
  C   C161      1.0  0.18198  0.54628  0.52527  1.0000
  H   H269      1.0  0.21407  0.71869  0.96735  1.0000
  C   C162      1.0  0.26461  0.88036  0.68261  1.0000
  C   C163      1.0  0.23856  0.78526  0.97891  1.0000
  H   H270      1.0  0.23934  0.79122  0.59554  1.0000
  C   C164      1.0  0.24720  0.86205  0.65545  1.0000
  H   H271      1.0  0.24748  0.87380  0.63426  1.0000
  S   S38       1.0  0.15327  0.49759  0.58914  1.0000
  H   H272      1.0  0.20121  0.81174  0.64071  1.0000
  H   H273      1.0  0.10157  0.50595  0.75663  1.0000
  H   H274      1.0  0.25140  0.79295  0.66108  1.0000
  C   C165      1.0  0.13070  0.52713  0.72134  1.0000
  H   H275      1.0  0.22304  0.84332  0.59969  1.0000
  H   H276      1.0  0.22777  0.85149  0.66552  1.0000
  H   H277      1.0  0.19644  0.77239  0.60609  1.0000
  H   H278      1.0  0.21108  0.76700  0.64116  1.0000
  C   C166      1.0  0.02794  0.56078  0.52326  1.0000
  C   C167      1.0  0.18765  0.52585  0.83331  1.0000
  Fe  Fe17      1.0  0.29986  0.84343  0.94095  1.0000
  H   H279      1.0  0.21318  0.66473  0.93160  1.0000
  H   H280      1.0  0.20254  0.83815  0.54276  1.0000
  H   H281      1.0  0.30517  0.78657  0.51483  1.0000
  C   C168      1.0  0.09482  0.63470  0.56169  1.0000
  H   H282      1.0  0.18282  0.57740  0.55323  1.0000
  C   C169      1.0  0.21474  0.80469  0.64229  1.0000
  H   H283      1.0  0.07787  0.55102  0.51235  1.0000
  N   N7        1.0  0.23813  0.82153  0.62228  1.0000
  H   H284      1.0  0.16127  0.58393  0.85396  1.0000
  H   H285      1.0  0.22865  0.83716  0.52353  1.0000
  H   H286      1.0  0.07005  0.51102  0.54513  1.0000
  H   H287      1.0  0.16493  0.74173  0.64460  1.0000
  H   H288      1.0  0.26843  0.78866  0.54907  1.0000
  C   C170      1.0  0.26391  0.80037  0.63910  1.0000
  H   H289      1.0  0.18541  0.62807  0.98952  1.0000
  H   H290      1.0  0.27534  0.55201  0.56562  1.0000
  H   H291      1.0  0.21954  0.80576  0.66940  1.0000
  H   H292      1.0  0.25769  0.89322  0.69029  1.0000
  H   H293      1.0  0.17564  0.74014  0.98732  1.0000
  H   H294      1.0  0.25279  0.75458  0.93754  1.0000
  H   H295      1.0  0.23401  0.74469  0.53585  1.0000
  H   H296      1.0  0.28415  0.89202  0.67307  1.0000
  H   H297      1.0  0.09251  0.59285  0.53754  1.0000
  H   H298      1.0  0.25610  0.70669  0.95048  1.0000
  H   H299      1.0  0.09547  0.65308  0.55934  1.0000
  H   H300      1.0  0.15166  0.53797  0.71976  1.0000
  H   H301      1.0  0.12893  0.59265  0.87744  1.0000
  N   N8        1.0  0.12919  0.53470  0.81887  1.0000
  C   C171      1.0  0.07430  0.61518  0.53832  1.0000
  C   C172      1.0  0.12248  0.51799  0.75697  1.0000
  C   C173      1.0  0.12392  0.55301  0.83767  1.0000
  H   H302      1.0  0.02832  0.59543  0.50649  1.0000
  H   H303      1.0  0.16969  0.55743  0.82710  1.0000
  C   C174      1.0  0.29512  0.90606  0.83127  1.0000
  Fe  Fe18      1.0  0.11896  0.49443  0.92917  1.0000
  H   H304      1.0  0.10671  0.55239  0.82738  1.0000
  H   H305      1.0  0.19102  0.53466  0.52746  1.0000
  S   S39       1.0  0.12987  0.53592  0.92955  1.0000
  C   C175      1.0  0.15381  0.53808  0.83234  1.0000
  H   H306      1.0  0.18671  0.55533  0.57831  1.0000
  H   H307      1.0  0.28217  0.56476  0.52401  1.0000
  H   H308      1.0  0.04501  0.53009  0.50559  1.0000
  H   H309      1.0  0.05436  0.50523  0.58465  1.0000
  C   C176      1.0  0.13538  0.59640  0.50414  1.0000
  H   H310      1.0  0.12351  0.51055  0.70411  1.0000
  H   H311      1.0  0.02536  0.56249  0.55047  1.0000
  H   H312      1.0  0.13128  0.66588  0.96671  1.0000
  H   H313      1.0  0.21852  0.79904  0.55789  1.0000
  C   C177      1.0  0.19923  0.54245  0.93323  1.0000
  C   C178      1.0  0.13605  0.59833  0.85163  1.0000
  H   H314      1.0  0.14823  0.50012  0.82397  1.0000
  H   H315      1.0  0.26502  0.86986  0.70492  1.0000
  H   H316      1.0  0.28046  0.75180  0.93314  1.0000
  H   H317      1.0  0.05615  0.61339  0.54609  1.0000
  H   H318      1.0  0.99119  0.57277  0.54372  1.0000
  H   H319      1.0  0.03950  0.53531  0.56979  1.0000
  H   H320      1.0  0.29167  0.88672  0.82607  1.0000
  C   C179      1.0  0.19168  0.56545  0.55414  1.0000
  H   H321      1.0  0.11288  0.52463  0.49966  1.0000
  H   H322      1.0  0.12298  0.53917  0.71298  1.0000
  H   H323      1.0  0.16134  0.53347  0.52864  1.0000
  H   H324      1.0  0.20264  0.54547  0.82739  1.0000
  C   C180      1.0  0.16226  0.52003  0.81821  1.0000
  H   H325      1.0  0.26105  0.83699  0.66714  1.0000
  Fe  Fe19      1.0  0.12083  0.50234  0.57232  1.0000
  H   H326      1.0  0.24939  0.84518  0.57856  1.0000
  H   H327      1.0  0.15089  0.55523  0.77570  1.0000
  H   H328      1.0  0.11016  0.49385  0.81274  1.0000
  C   C181      1.0  0.21965  0.70522  0.95731  1.0000
  C   C182      1.0  0.13708  0.65645  0.94788  1.0000
  C   C183      1.0  0.13043  0.57493  0.96480  1.0000
  C   C184      1.0  0.23172  0.83198  0.59209  1.0000
  C   C185      1.0  0.19105  0.63309  0.96325  1.0000
  H   H329      1.0  0.17162  0.69009  0.93585  1.0000
  H   H330      1.0  0.11963  0.54937  0.77521  1.0000
  H   H331      1.0  0.27462  0.85530  0.63089  1.0000
  H   H332      1.0  0.17100  0.66123  0.92518  1.0000
  C   C186      1.0  0.14530  0.58117  0.83768  1.0000
  C   C187      1.0  0.05633  0.53674  0.55747  1.0000
  C   C188      1.0  0.17467  0.76224  0.65089  1.0000
  H   H333      1.0  0.12070  0.59731  0.83558  1.0000
  H   H334      1.0  0.12825  0.65628  0.92350  1.0000
  H   H335      1.0  0.01688  0.64833  0.50444  1.0000
  C   C189      1.0  0.10807  0.50834  0.82664  1.0000
  C   C190      1.0  0.23518  0.76033  0.52195  1.0000
  N   N9        1.0  0.05527  0.56892  0.51629  1.0000
  H   H336      1.0  0.28924  0.91283  0.80922  1.0000
  C   C191      1.0  0.25633  0.84376  0.64395  1.0000
  C   C192      1.0  0.20011  0.77599  0.63321  1.0000
  H   H337      1.0  0.21328  0.70182  0.93072  1.0000
  H   H338      1.0  0.19398  0.55993  0.97603  1.0000
  H   H339      1.0  0.18506  0.59563  0.95280  1.0000
  H   H340      1.0  0.25230  0.76274  0.61922  1.0000
  H   H341      1.0  0.30989  0.51055  0.53512  1.0000
  H   H342      1.0  0.12997  0.63656  0.95537  1.0000
  C   C193      1.0  0.28341  0.55125  0.54118  1.0000
  H   H343      1.0  0.10912  0.50400  0.85340  1.0000
  H   H344      1.0  0.16237  0.76971  0.64267  1.0000
  H   H345      1.0  0.09073  0.62850  0.58807  1.0000
  H   H346      1.0  0.28198  0.81708  0.64761  1.0000
  H   H347      1.0  0.13986  0.59306  0.55703  1.0000
  H   H348      1.0  0.29161  0.85708  0.74633  1.0000
  H   H349      1.0  0.13431  0.58444  0.94107  1.0000
  H   H350      1.0  0.17743  0.76452  0.67842  1.0000
  H   H351      1.0  0.23004  0.66406  0.96708  1.0000
  H   H352      1.0  0.28338  0.90506  0.85288  1.0000
  H   H353      1.0  0.15290  0.53614  0.86010  1.0000
  H   H354      1.0  0.21256  0.57774  0.55311  1.0000
  H   H355      1.0  0.07350  0.54988  0.57230  1.0000
  H   H356      1.0  0.11367  0.63763  0.55494  1.0000
  H   H357      1.0  0.25351  0.73367  0.90599  1.0000
  H   H358      1.0  0.20212  0.51440  0.98202  1.0000
  H   H359      1.0  0.19682  0.81124  0.51748  1.0000
  H   H360      1.0  0.27895  0.77556  0.64774  1.0000
  H   H361      1.0  0.07898  0.62286  0.51282  1.0000
  H   H362      1.0  0.18855  0.54809  0.91628  1.0000
  C   C194      1.0  0.99013  0.56707  0.51710  1.0000
  C   C195      1.0  0.20029  0.61570  0.95023  1.0000
  H   H363      1.0  0.13007  0.50562  0.76348  1.0000
  S   S40       1.0  0.30735  0.87009  0.89742  1.0000
  H   H364      1.0  0.20527  0.61933  0.92341  1.0000
  H   H365      1.0  0.07510  0.51073  0.84194  1.0000
  C   C196      1.0  0.17907  0.67240  0.97853  1.0000
  C   C197      1.0  0.26988  0.78026  0.62710  1.0000
  C   C198      1.0  0.31090  0.55800  0.54605  1.0000
  H   H366      1.0  0.27191  0.53176  0.53079  1.0000
  C   C199      1.0  0.21229  0.77093  0.97228  1.0000
  C   C200      1.0  0.11956  0.54467  0.50089  1.0000
  H   H367      1.0  0.22470  0.54469  0.49742  1.0000
  H   H368      1.0  0.01527  0.54032  0.51721  1.0000
  N   N10       1.0  0.20680  0.68071  0.97655  1.0000
  C   C201      1.0  0.05886  0.54646  0.52116  1.0000
  H   H369      1.0  0.03592  0.49620  0.54655  1.0000
  H   H370      1.0  0.30573  0.85582  0.80433  1.0000
  C   C202      1.0  0.25946  0.74115  0.93183  1.0000
  C   C203      1.0  0.24899  0.71959  0.95701  1.0000
  H   H371      1.0  0.31101  0.54437  0.56402  1.0000
  C   C204      1.0  0.21717  0.75524  0.49638  1.0000
  C   C205      1.0  0.18984  0.54071  0.96893  1.0000
  H   H372      1.0  0.98214  0.57676  0.50237  1.0000
  H   H373      1.0  0.17364  0.56744  0.49125  1.0000
  H   H374      1.0  0.20618  0.57657  0.49147  1.0000
  C   C206      1.0  0.18670  0.55976  0.49113  1.0000
  Fe  Fe20      1.0  0.32905  0.44028  0.42923  1.0000
  C   C207      1.0  0.64034  0.13239  0.22701  1.0000
  S   S41       1.0  0.33483  0.40787  0.44625  1.0000
  H   H375      1.0  0.40672  0.08608  0.43979  1.0000
  H   H376      1.0  0.60843  0.17400  0.00405  1.0000
  C   C208      1.0  0.62799  0.41186  0.10860  1.0000
  H   H377      1.0  0.51481  0.04113  0.00963  1.0000
  Fe  Fe21      1.0  0.33408  0.43683  0.07495  1.0000
  S   S42       1.0  0.34257  0.40483  0.08614  1.0000
  C   C209      1.0  0.54925  0.41624  0.46847  1.0000
  Fe  Fe22      1.0  0.61489  0.12097  0.07608  1.0000
  S   S43       1.0  0.58294  0.12938  0.06868  1.0000
  H   H378      1.0  0.61042  0.19334  0.46952  1.0000
  S   S44       1.0  0.60996  0.08813  0.10676  1.0000
  S   S45       1.0  0.60956  0.08558  0.40661  1.0000
  H   H379      1.0  0.38557  0.23526  0.35623  1.0000
  Fe  Fe23      1.0  0.61830  0.11030  0.45239  1.0000
  H   H380      1.0  0.36718  0.34927  0.45193  1.0000
  Fe  Fe24      1.0  0.44766  0.35653  0.06243  1.0000
  S   S46       1.0  0.47725  0.37227  0.10330  1.0000
  S   S47       1.0  0.43002  0.38070  0.04673  1.0000
  Fe  Fe25      1.0  0.45919  0.31264  0.04694  1.0000
  S   S48       1.0  0.48889  0.32629  0.08769  1.0000
  S   S49       1.0  0.44953  0.27929  0.00994  1.0000
  Fe  Fe26      1.0  0.46181  0.33211  0.11932  1.0000
  S   S50       1.0  0.44949  0.31785  0.17280  1.0000
  Fe  Fe27      1.0  0.50174  0.36540  0.06804  1.0000
  S   S51       1.0  0.54329  0.39597  0.06351  1.0000
  S   S52       1.0  0.43088  0.31614  0.07961  1.0000
  S   S53       1.0  0.47335  0.35193  0.02619  1.0000
  Fe  Fe28      1.0  0.42808  0.34934  0.40839  1.0000
  S   S54       1.0  0.46616  0.38268  0.39737  1.0000
  S   S55       1.0  0.39660  0.35716  0.39186  1.0000
  Fe  Fe29      1.0  0.45188  0.31547  0.42636  1.0000
  S   S56       1.0  0.49091  0.34796  0.41495  1.0000
  S   S57       1.0  0.45265  0.27848  0.43740  1.0000
  Fe  Fe30      1.0  0.47946  0.37209  0.44355  1.0000
  H   H381      1.0  0.34223  0.36846  0.47121  1.0000
  Fe  Fe31      1.0  0.47328  0.35492  0.36948  1.0000
  S   S58       1.0  0.49188  0.36567  0.31805  1.0000
  S   S59       1.0  0.44086  0.33975  0.45664  1.0000
  S   S60       1.0  0.43495  0.32160  0.37892  1.0000
  H   H382      1.0  0.40676  0.44063  0.13330  1.0000
  C   C210      1.0  0.51569  0.32503  0.48920  1.0000
  H   H383      1.0  0.41915  0.43278  0.24982  1.0000
  H   H384      1.0  0.54158  0.40500  0.44592  1.0000
  H   H385      1.0  0.62929  0.15092  0.26368  1.0000
  H   H386      1.0  0.44952  0.46187  0.25015  1.0000
  H   H387      1.0  0.50519  0.09454  0.00994  1.0000
  H   H388      1.0  0.50223  0.12313  0.05085  1.0000
  Fe  Fe32      1.0  0.33531  0.47779  0.12033  1.0000
  C   C211      1.0  0.35107  0.37738  0.31994  1.0000
  C   C212      1.0  0.55866  0.40983  0.02546  1.0000
  C   C213      1.0  0.58006  0.43428  0.02619  1.0000
  S   S61       1.0  0.63375  0.13353  0.32857  1.0000
  C   C214      1.0  0.60173  0.00146  0.20944  1.0000
  H   H389      1.0  0.58591  0.44482  0.04950  1.0000
  H   H390      1.0  0.38673  0.04008  0.40588  1.0000
  C   C215      1.0  0.46133  0.33215  0.21272  1.0000
  C   C216      1.0  0.44684  0.32043  0.24123  1.0000
  C   C217      1.0  0.45556  0.33071  0.27351  1.0000
  C   C218      1.0  0.47917  0.35268  0.27778  1.0000
  C   C219      1.0  0.49355  0.36450  0.24926  1.0000
  C   C220      1.0  0.48463  0.35446  0.21691  1.0000
  H   H391      1.0  0.42874  0.30320  0.23831  1.0000
  H   H392      1.0  0.44413  0.32155  0.29508  1.0000
  H   H393      1.0  0.51185  0.38150  0.25222  1.0000
  H   H394      1.0  0.49604  0.36370  0.19530  1.0000
  Fe  Fe33      1.0  0.63895  0.12044  0.38022  1.0000
  H   H395      1.0  0.32939  0.42951  0.32784  1.0000
  H   H396      1.0  0.43293  0.35640  0.22342  1.0000
  C   C221      1.0  0.48672  0.07770  0.01622  1.0000
  H   H397      1.0  0.44598  0.43914  0.43840  1.0000
  H   H398      1.0  0.50485  0.30478  0.00860  1.0000
  H   H399      1.0  0.37410  0.31484  0.19305  1.0000
  H   H400      1.0  0.39815  0.03569  0.34849  1.0000
  H   H401      1.0  0.53235  0.15000  0.99386  1.0000
  H   H402      1.0  0.34832  0.41792  0.34353  1.0000
  C   C222      1.0  0.57010  0.12990  0.02911  1.0000
  H   H403      1.0  0.58072  0.13727  0.44865  1.0000
  H   H404      1.0  0.50739  0.04922  0.07261  1.0000
  C   C223      1.0  0.39087  0.31753  0.17947  1.0000
  H   H405      1.0  0.53529  0.45320  0.44359  1.0000
  S   S62       1.0  0.63828  0.04278  0.41173  1.0000
  C   C224      1.0  0.56992  0.13410  0.47119  1.0000
  C   C225      1.0  0.60800  0.00637  0.08930  1.0000
  C   C226      1.0  0.60096  0.00995  0.05734  1.0000
  H   H406      1.0  0.33184  0.42914  0.16362  1.0000
  H   H407      1.0  0.44901  0.48035  0.43505  1.0000
  H   H408      1.0  0.40477  0.42299  0.46857  1.0000
  H   H409      1.0  0.42537  0.47370  0.00853  1.0000
  C   C227      1.0  0.61603  0.01180  0.42624  1.0000
  H   H410      1.0  0.41913  0.06712  0.36459  1.0000
  C   C228      1.0  0.45814  0.23900  0.46189  1.0000
  H   H411      1.0  0.42966  0.04437  0.36195  1.0000
  C   C229      1.0  0.36722  0.39870  0.07484  1.0000
  C   C230      1.0  0.36795  0.37828  0.08973  1.0000
  C   C231      1.0  0.38680  0.37238  0.08137  1.0000
  C   C232      1.0  0.40537  0.38690  0.05803  1.0000
  C   C233      1.0  0.40450  0.40719  0.04295  1.0000
  C   C234      1.0  0.38574  0.41320  0.05143  1.0000
  H   H412      1.0  0.47707  0.11076  0.08078  1.0000
  H   H413      1.0  0.38655  0.35618  0.09218  1.0000
  H   H414      1.0  0.41851  0.41841  0.02454  1.0000
  H   H415      1.0  0.51255  0.33750  0.47219  1.0000
  C   C235      1.0  0.35532  0.39680  0.43297  1.0000
  C   C236      1.0  0.35468  0.37653  0.45012  1.0000
  C   C237      1.0  0.36908  0.36576  0.43945  1.0000
  C   C238      1.0  0.38444  0.37505  0.41132  1.0000
  C   C239      1.0  0.38586  0.39600  0.39482  1.0000
  C   C240      1.0  0.37160  0.40700  0.40576  1.0000
  H   H416      1.0  0.54177  0.04151  0.05638  1.0000
  C   C241      1.0  0.64141  0.42170  0.07535  1.0000
  H   H417      1.0  0.39742  0.40318  0.37282  1.0000
  H   H418      1.0  0.37270  0.42289  0.39268  1.0000
  N   N11       1.0  0.46974  0.27550  0.31566  1.0000
  C   C242      1.0  0.49308  0.30140  0.31944  1.0000
  C   C243      1.0  0.45972  0.27105  0.28000  1.0000
  C   C244      1.0  0.44970  0.27493  0.33804  1.0000
  C   C245      1.0  0.47447  0.25472  0.32654  1.0000
  C   C246      1.0  0.49641  0.25373  0.30915  1.0000
  C   C247      1.0  0.50551  0.30843  0.35471  1.0000
  C   C248      1.0  0.42335  0.25036  0.33642  1.0000
  C   C249      1.0  0.47920  0.28390  0.25162  1.0000
  C   C250      1.0  0.46694  0.27404  0.21728  1.0000
  C   C251      1.0  0.50099  0.23374  0.32501  1.0000
  C   C252      1.0  0.52988  0.33420  0.35471  1.0000
  C   C253      1.0  0.40396  0.25333  0.35671  1.0000
  H   H419      1.0  0.48851  0.31618  0.31223  1.0000
  H   H420      1.0  0.50815  0.30386  0.30210  1.0000
  H   H421      1.0  0.44841  0.25039  0.27426  1.0000
  H   H422      1.0  0.44626  0.27808  0.27667  1.0000
  H   H423      1.0  0.44706  0.29122  0.33235  1.0000
  H   H424      1.0  0.45564  0.27719  0.36470  1.0000
  H   H425      1.0  0.47761  0.25561  0.35409  1.0000
  H   H426      1.0  0.45736  0.23587  0.32191  1.0000
  H   H427      1.0  0.51438  0.27208  0.31106  1.0000
  H   H428      1.0  0.49157  0.24840  0.28247  1.0000
  H   H429      1.0  0.49270  0.30964  0.37301  1.0000
  H   H430      1.0  0.51048  0.29435  0.36347  1.0000
  H   H431      1.0  0.42445  0.23428  0.34718  1.0000
  H   H432      1.0  0.41597  0.24532  0.31045  1.0000
  H   H433      1.0  0.48675  0.30467  0.25228  1.0000
  H   H434      1.0  0.49537  0.28072  0.25390  1.0000
  H   H435      1.0  0.46112  0.25378  0.21412  1.0000
  H   H436      1.0  0.45011  0.27616  0.21398  1.0000
  H   H437      1.0  0.48065  0.28506  0.19743  1.0000
  H   H438      1.0  0.48370  0.21472  0.32312  1.0000
  H   H439      1.0  0.51653  0.23308  0.31181  1.0000
  H   H440      1.0  0.50654  0.23842  0.35173  1.0000
  H   H441      1.0  0.53814  0.33897  0.38033  1.0000
  H   H442      1.0  0.54396  0.33394  0.33768  1.0000
  H   H443      1.0  0.52595  0.34922  0.34672  1.0000
  H   H444      1.0  0.41033  0.25820  0.38317  1.0000
  H   H445      1.0  0.45885  0.06799  0.05601  1.0000
  H   H446      1.0  0.43325  0.07295  0.42365  1.0000
  Fe  Fe34      1.0  0.64234  0.08148  0.42341  1.0000
  H   H447      1.0  0.37508  0.46505  0.15234  1.0000
  H   H448      1.0  0.53138  0.33576  0.00606  1.0000
  C   C254      1.0  0.44305  0.46246  0.08699  1.0000
  H   H449      1.0  0.34684  0.37151  0.17567  1.0000
  H   H450      1.0  0.50860  0.28088  0.45460  1.0000
  C   C255      1.0  0.37913  0.00036  0.47004  1.0000
  C   C256      1.0  0.53886  0.31500  0.06039  1.0000
  C   C257      1.0  0.55111  0.39653  0.99506  1.0000
  C   C258      1.0  0.35919  0.43562  0.29466  1.0000
  C   C259      1.0  0.42671  0.37318  0.28474  1.0000
  H   H451      1.0  0.62942  0.21158  0.41514  1.0000
  C   C260      1.0  0.40329  0.03765  0.40237  1.0000
  H   H452      1.0  0.46904  0.03594  0.05658  1.0000
  C   C261      1.0  0.57581  0.12101  0.00014  1.0000
  H   H453      1.0  0.42400  0.40233  0.13410  1.0000
  H   H454      1.0  0.38536  0.42877  0.03940  1.0000
  C   C262      1.0  0.45724  0.22171  0.48612  1.0000
  C   C263      1.0  0.55417  0.14012  0.02659  1.0000
  H   H455      1.0  0.52952  0.28578  0.02416  1.0000
  H   H456      1.0  0.45357  0.38553  0.18047  1.0000
  H   H457      1.0  0.47968  0.41636  0.13740  1.0000
  H   H458      1.0  0.51495  0.45660  0.41412  1.0000
  H   H459      1.0  0.46479  0.42373  0.10398  1.0000
  C   C264      1.0  0.40765  0.02039  0.47443  1.0000
  H   H460      1.0  0.46466  0.23847  0.43704  1.0000
  H   H461      1.0  0.54658  0.33576  0.06219  1.0000
  H   H462      1.0  0.51929  0.30482  0.07004  1.0000
  H   H463      1.0  0.55062  0.31011  0.07636  1.0000
  C   C265      1.0  0.41449  0.46146  0.13334  1.0000
  H   H464      1.0  0.58815  0.43068  0.45475  1.0000
  C   C266      1.0  0.47913  0.08190  0.05161  1.0000
  C   C267      1.0  0.43892  0.06487  0.48645  1.0000
  H   H465      1.0  0.36972  0.29994  0.13341  1.0000
  H   H466      1.0  0.41803  0.09447  0.48232  1.0000
  C   C268      1.0  0.52206  0.29957  0.44386  1.0000
  H   H467      1.0  0.33008  0.35049  0.20948  1.0000
  C   C269      1.0  0.58652  0.98843  0.03686  1.0000
  H   H468      1.0  0.48170  0.00609  0.03019  1.0000
  C   C270      1.0  0.46678  0.03215  0.02931  1.0000
  C   C271      1.0  0.52042  0.45836  0.44093  1.0000
  H   H469      1.0  0.42314  0.48126  0.37445  1.0000
  C   C272      1.0  0.38171  0.29730  0.15199  1.0000
  H   H470      1.0  0.55008  0.33689  0.46036  1.0000
  H   H471      1.0  0.52821  0.07398  0.00465  1.0000
  H   H472      1.0  0.37038  0.27824  0.16310  1.0000
  H   H473      1.0  0.54974  0.14714  0.04886  1.0000
  H   H474      1.0  0.42460  0.34559  0.15610  1.0000
  H   H475      1.0  0.36740  0.34733  0.22433  1.0000
  C   C273      1.0  0.47665  0.22958  0.01206  1.0000
  C   C274      1.0  0.41826  0.46546  0.23018  1.0000
  N   N12       1.0  0.41611  0.04744  0.46506  1.0000
  H   H476      1.0  0.52686  0.08236  0.06252  1.0000
  C   C275      1.0  0.52196  0.06283  0.05551  1.0000
  H   H477      1.0  0.34102  0.38599  0.27157  1.0000
  H   H478      1.0  0.40902  0.35565  0.29161  1.0000
  H   H479      1.0  0.44365  0.47086  0.19034  1.0000
  C   C276      1.0  0.42842  0.47097  0.44042  1.0000
  H   H480      1.0  0.47258  0.07827  0.99915  1.0000
  H   H481      1.0  0.42585  0.45725  0.28020  1.0000
  H   H482      1.0  0.43507  0.38128  0.12232  1.0000
  C   C277      1.0  0.46388  0.00573  0.02384  1.0000
  H   H483      1.0  0.43047  0.38807  0.30362  1.0000
  C   C278      1.0  0.46407  0.41990  0.13118  1.0000
  C   C279      1.0  0.42278  0.46121  0.19320  1.0000
  H   H484      1.0  0.60995  0.46425  0.99772  1.0000
  C   C280      1.0  0.54574  0.06108  0.06113  1.0000
  C   C281      1.0  0.36643  0.35404  0.19904  1.0000
  H   H485      1.0  0.46873  0.06035  0.46221  1.0000
  C   C282      1.0  0.40692  0.34459  0.16500  1.0000
  H   H486      1.0  0.61621  0.02288  0.47732  1.0000
  H   H487      1.0  0.39918  0.39212  0.19905  1.0000
  C   C283      1.0  0.53903  0.30678  0.02437  1.0000
  C   C284      1.0  0.63091  0.19626  0.06765  1.0000
  H   H488      1.0  0.35684  0.38136  0.21857  1.0000
  C   C285      1.0  0.44183  0.41059  0.47252  1.0000
  H   H489      1.0  0.37407  0.42392  0.19736  1.0000
  H   H490      1.0  0.39728  0.34560  0.14197  1.0000
  C   C286      1.0  0.54432  0.14177  0.99543  1.0000
  N   N13       1.0  0.41312  0.36674  0.18805  1.0000
  C   C287      1.0  0.62853  0.18951  0.00460  1.0000
  H   H491      1.0  0.49039  0.07976  0.07160  1.0000
  H   H492      1.0  0.38953  0.37699  0.15967  1.0000
  S   S63       1.0  0.61043  0.04065  0.04106  1.0000
  H   H493      1.0  0.48070  0.26076  0.04292  1.0000
  C   C288      1.0  0.33872  0.41879  0.32034  1.0000
  C   C289      1.0  0.42888  0.45357  0.25392  1.0000
  C   C290      1.0  0.34907  0.36515  0.20078  1.0000
  H   H494      1.0  0.55892  0.31423  0.01727  1.0000
  Fe  Fe35      1.0  0.62978  0.08067  0.06517  1.0000
  H   H495      1.0  0.62261  0.39173  0.11154  1.0000
  H   H496      1.0  0.39323  0.47263  0.29189  1.0000
  H   H497      1.0  0.37144  0.00140  0.44544  1.0000
  S   S64       1.0  0.33546  0.47153  0.46508  1.0000
  C   C291      1.0  0.47197  0.24934  0.02078  1.0000
  H   H498      1.0  0.36743  0.42124  0.15323  1.0000
  H   H499      1.0  0.32815  0.40195  0.18550  1.0000
  H   H500      1.0  0.44828  0.03052  0.02279  1.0000
  H   H501      1.0  0.60522  0.00087  0.18233  1.0000
  H   H502      1.0  0.44299  0.39906  0.24455  1.0000
  S   S65       1.0  0.63259  0.11241  0.03331  1.0000
  H   H503      1.0  0.56121  0.07428  0.04452  1.0000
  C   C292      1.0  0.42447  0.38206  0.24991  1.0000
  H   H504      1.0  0.37800  0.04098  0.45814  1.0000
  H   H505      1.0  0.38847  0.45761  0.33196  1.0000
  C   C293      1.0  0.52490  0.31553  0.00039  1.0000
  H   H506      1.0  0.44240  0.40637  0.19163  1.0000
  C   C294      1.0  0.64026  0.18746  0.03805  1.0000
  S   S66       1.0  0.35157  0.46631  0.38814  1.0000
  H   H507      1.0  0.40983  0.38753  0.25095  1.0000
  H   H508      1.0  0.46704  0.43689  0.14519  1.0000
  N   N14       1.0  0.48758  0.05372  0.01018  1.0000
  C   C295      1.0  0.41750  0.36095  0.22329  1.0000
  H   H509      1.0  0.35733  0.33772  0.18141  1.0000
  S   S67       1.0  0.36464  0.47623  0.08816  1.0000
  C   C296      1.0  0.55464  0.14502  0.47510  1.0000
  H   H510      1.0  0.40250  0.31381  0.19736  1.0000
  H   H511      1.0  0.58772  0.11274  0.00179  1.0000
  H   H512      1.0  0.38326  0.44574  0.47019  1.0000
  H   H513      1.0  0.46304  0.20825  0.47963  1.0000
  H   H514      1.0  0.58799  0.00804  0.21284  1.0000
  C   C297      1.0  0.53033  0.48545  0.45319  1.0000
  H   H515      1.0  0.43901  0.04754  0.42416  1.0000
  H   H516      1.0  0.39805  0.29807  0.13912  1.0000
  H   H517      1.0  0.62253  0.17944  0.41850  1.0000
  H   H518      1.0  0.48901  0.22614  0.02773  1.0000
  Fe  Fe36      1.0  0.31528  0.46375  0.37148  1.0000
  H   H519      1.0  0.33844  0.43130  0.20794  1.0000
  H   H520      1.0  0.34584  0.34140  0.30167  1.0000
  C   C298      1.0  0.41327  0.04684  0.36726  1.0000
  S   S68       1.0  0.32056  0.44931  0.02996  1.0000
  H   H521      1.0  0.39786  0.45689  0.23558  1.0000
  C   C299      1.0  0.38361  0.46001  0.17324  1.0000
  H   H522      1.0  0.39720  0.01726  0.40315  1.0000
  C   C300      1.0  0.42241  0.43839  0.48057  1.0000
  C   C301      1.0  0.48232  0.10821  0.05517  1.0000
  C   C302      1.0  0.44206  0.47386  0.12053  1.0000
  C   C303      1.0  0.60921  0.00716  0.45988  1.0000
  C   C304      1.0  0.39284  0.37375  0.18605  1.0000
  C   C305      1.0  0.43840  0.39695  0.13951  1.0000
  H   H523      1.0  0.41600  0.44074  0.18930  1.0000
  C   C306      1.0  0.43764  0.38921  0.17657  1.0000
  H   H524      1.0  0.55380  0.15660  0.45541  1.0000
  C   C307      1.0  0.45580  0.25406  0.00111  1.0000
  C   C308      1.0  0.39552  0.05336  0.47260  1.0000
  H   H525      1.0  0.46980  0.11047  0.03709  1.0000
  H   H526      1.0  0.41891  0.01362  0.46075  1.0000
  H   H527      1.0  0.40074  0.34375  0.23287  1.0000
  H   H528      1.0  0.43092  0.46468  0.06819  1.0000
  C   C309      1.0  0.33976  0.42287  0.18395  1.0000
  H   H529      1.0  0.40104  0.26835  0.34599  1.0000
  H   H530      1.0  0.35349  0.36658  0.10736  1.0000
  H   H531      1.0  0.55238  0.06637  0.08740  1.0000
  C   C310      1.0  0.57560  0.43088  0.47347  1.0000
  H   H532      1.0  0.45847  0.99919  0.99758  1.0000
  H   H533      1.0  0.44265  0.36947  0.28575  1.0000
  C   C311      1.0  0.36723  0.43087  0.17668  1.0000
  H   H534      1.0  0.36938  0.42633  0.28494  1.0000
  H   H535      1.0  0.63030  0.44913  0.06477  1.0000
  H   H536      1.0  0.51160  0.30521  0.42658  1.0000
  C   C312      1.0  0.45081  0.25692  0.46945  1.0000
  H   H537      1.0  0.53652  0.29774  0.42958  1.0000
  C   C313      1.0  0.44487  0.43654  0.46587  1.0000
  H   H538      1.0  0.40291  0.46418  0.11409  1.0000
  H   H539      1.0  0.39737  0.47678  0.42506  1.0000
  C   C314      1.0  0.53479  0.31929  0.47172  1.0000
  C   C315      1.0  0.37885  0.46080  0.31055  1.0000
  H   H540      1.0  0.58134  0.99088  0.01189  1.0000
  H   H541      1.0  0.50356  0.44491  0.45534  1.0000
  C   C316      1.0  0.59382  0.44533  0.99693  1.0000
  C   C317      1.0  0.42412  0.05237  0.42905  1.0000
  H   H542      1.0  0.42388  0.39527  0.46145  1.0000
  H   H543      1.0  0.38064  0.46910  0.19557  1.0000
  H   H544      1.0  0.36744  0.39661  0.32466  1.0000
  C   C318      1.0  0.36133  0.36130  0.30537  1.0000
  C   C319      1.0  0.51335  0.05758  0.01849  1.0000
  H   H545      1.0  0.37542  0.36135  0.32302  1.0000
  H   H546      1.0  0.36971  0.47143  0.31934  1.0000
  C   C320      1.0  0.63529  0.13727  0.25978  1.0000
  C   C321      1.0  0.39833  0.45987  0.48713  1.0000
  H   H547      1.0  0.61925  0.02263  0.10534  1.0000
  H   H548      1.0  0.44759  0.08480  0.47796  1.0000
  H   H549      1.0  0.45431  0.47097  0.13822  1.0000
  C   C322      1.0  0.63834  0.12499  0.28756  1.0000
  H   H550      1.0  0.62787  0.20732  0.00600  1.0000
  H   H551      1.0  0.63616  0.44049  0.00661  1.0000
  H   H552      1.0  0.37067  0.36906  0.28119  1.0000
  H   H553      1.0  0.35057  0.44010  0.27328  1.0000
  C   C323      1.0  0.63470  0.19901  0.42834  1.0000
  N   N15       1.0  0.41140  0.47041  0.16727  1.0000
  C   C324      1.0  0.31478  0.46381  0.27787  1.0000
  H   H554      1.0  0.43657  0.44207  0.08981  1.0000
  H   H555      1.0  0.64061  0.42296  0.12981  1.0000
  H   H556      1.0  0.41915  0.45374  0.42408  1.0000
  H   H557      1.0  0.34236  0.36902  0.34425  1.0000
  H   H558      1.0  0.61048  0.41304  0.10934  1.0000
  H   H559      1.0  0.60991  0.18573  0.06823  1.0000
  H   H560      1.0  0.45766  0.40946  0.46102  1.0000
  H   H561      1.0  0.62817  0.40934  0.05533  1.0000
  H   H562      1.0  0.53457  0.37782  0.99417  1.0000
  H   H563      1.0  0.61985  0.01543  0.22174  1.0000
  H   H564      1.0  0.62351  0.16299  0.48021  1.0000
  C   C325      1.0  0.33162  0.37824  0.29579  1.0000
  S   S69       1.0  0.49979  0.39944  0.48676  1.0000
  H   H565      1.0  0.55180  0.02176  0.47521  1.0000
  H   H566      1.0  0.31702  0.35821  0.29023  1.0000
  C   C326      1.0  0.63080  0.19999  0.46583  1.0000
  H   H567      1.0  0.46277  0.47216  0.07776  1.0000
  N   N16       1.0  0.31927  0.39255  0.30847  1.0000
  C   C327      1.0  0.33905  0.48490  0.27461  1.0000
  N   N17       1.0  0.42364  0.46357  0.47682  1.0000
  C   C328      1.0  0.37961  0.08434  0.47493  1.0000
  C   C329      1.0  0.40197  0.08093  0.46636  1.0000
  H   H568      1.0  0.63838  0.14239  0.20609  1.0000
  H   H569      1.0  0.64190  0.21999  0.47441  1.0000
  C   C330      1.0  0.33564  0.48089  0.21336  1.0000
  H   H570      1.0  0.63465  0.16740  0.04231  1.0000
  H   H571      1.0  0.38480  0.10429  0.47060  1.0000
  H   H572      1.0  0.61271  0.99416  0.37827  1.0000
  H   H573      1.0  0.46315  0.45091  0.47720  1.0000
  H   H574      1.0  0.44755  0.99110  0.07271  1.0000
  C   C331      1.0  0.60725  0.99091  0.40421  1.0000
  H   H575      1.0  0.36288  0.07180  0.45907  1.0000
  C   C332      1.0  0.46076  0.05892  0.48741  1.0000
  H   H576      1.0  0.63791  0.21684  0.06608  1.0000
  H   H577      1.0  0.63801  0.19260  0.09133  1.0000
  H   H578      1.0  0.39744  0.47737  0.48395  1.0000
  H   H579      1.0  0.31460  0.37991  0.35971  1.0000
  H   H580      1.0  0.42776  0.48598  0.23621  1.0000
  H   H581      1.0  0.31638  0.40482  0.25888  1.0000
  H   H582      1.0  0.54370  0.31229  0.48963  1.0000
  C   C333      1.0  0.64597  0.10728  0.28198  1.0000
  S   S70       1.0  0.64441  0.14559  0.42469  1.0000
  C   C334      1.0  0.63830  0.18300  0.48564  1.0000
  H   H583      1.0  0.55724  0.01239  0.99145  1.0000
  H   H584      1.0  0.36805  0.00332  0.48958  1.0000
  Fe  Fe37      1.0  0.44581  0.09583  0.93353  1.0000
  S   S71       1.0  0.47118  0.10208  0.89008  1.0000
  S   S72       1.0  0.42702  0.05612  0.95713  1.0000
  Fe  Fe38      1.0  0.46690  0.15488  0.94168  1.0000
  S   S73       1.0  0.49358  0.16326  0.89861  1.0000
  H   H585      1.0  0.44380  0.26711  0.87544  1.0000
  Fe  Fe39      1.0  0.46071  0.13030  0.87200  1.0000
  S   S74       1.0  0.44516  0.12975  0.81933  1.0000
  Fe  Fe40      1.0  0.50144  0.13411  0.92090  1.0000
  S   S75       1.0  0.53969  0.13660  0.92648  1.0000
  S   S76       1.0  0.43335  0.12264  0.91435  1.0000
  S   S77       1.0  0.47678  0.12724  0.96496  1.0000
  Fe  Fe41      1.0  0.47521  0.14749  0.61884  1.0000
  S   S78       1.0  0.43647  0.13918  0.60290  1.0000
  S   S79       1.0  0.49158  0.15167  0.67202  1.0000
  Fe  Fe42      1.0  0.49077  0.14681  0.54600  1.0000
  S   S80       1.0  0.45256  0.13763  0.52579  1.0000
  H   H586      1.0  0.34993  0.43629  0.51408  1.0000
  Fe  Fe43      1.0  0.45569  0.16789  0.56129  1.0000
  S   S81       1.0  0.44649  0.19990  0.55044  1.0000
  Fe  Fe44      1.0  0.43685  0.10991  0.56843  1.0000
  S   S82       1.0  0.40203  0.06971  0.56430  1.0000
  S   S83       1.0  0.49455  0.17797  0.58003  1.0000
  S   S84       1.0  0.47482  0.11719  0.58588  1.0000
  S   S85       1.0  0.60568  0.44364  0.93047  1.0000
  H   H587      1.0  0.41148  0.01935  0.50145  1.0000
  H   H588      1.0  0.50790  0.36137  0.51646  1.0000
  C   C335      1.0  0.56954  0.44592  0.52658  1.0000
  C   C336      1.0  0.54319  0.43129  0.52159  1.0000
  H   H589      1.0  0.57729  0.45701  0.54923  1.0000
  H   H590      1.0  0.53066  0.43140  0.54042  1.0000
  C   C337      1.0  0.44857  0.22164  0.51849  1.0000
  H   H591      1.0  0.58857  0.18697  0.90279  1.0000
  H   H592      1.0  0.43025  0.04502  0.73226  1.0000
  C   C338      1.0  0.40747  0.07044  0.65207  1.0000
  S   S86       1.0  0.47182  0.18909  0.97386  1.0000
  C   C339      1.0  0.62518  0.18660  0.94379  1.0000
  H   H593      1.0  0.41032  0.99573  0.80670  1.0000
  H   H594      1.0  0.46340  0.48568  0.48991  1.0000
  H   H595      1.0  0.55974  0.39675  0.94271  1.0000
  C   C340      1.0  0.45864  0.13623  0.77871  1.0000
  C   C341      1.0  0.44324  0.13370  0.75096  1.0000
  C   C342      1.0  0.45302  0.13874  0.71826  1.0000
  C   C343      1.0  0.47834  0.14613  0.71279  1.0000
  C   C344      1.0  0.49381  0.14894  0.74060  1.0000
  C   C345      1.0  0.48408  0.14406  0.77333  1.0000
  H   H596      1.0  0.42358  0.12786  0.75479  1.0000
  H   H597      1.0  0.44098  0.13686  0.69727  1.0000
  H   H598      1.0  0.51344  0.15472  0.73674  1.0000
  H   H599      1.0  0.49620  0.14613  0.79432  1.0000
  H   H600      1.0  0.43311  0.06499  0.51268  1.0000
  H   H601      1.0  0.63635  0.46949  0.74025  1.0000
  H   H602      1.0  0.51932  0.07559  0.95239  1.0000
  H   H603      1.0  0.48905  0.24860  0.84172  1.0000
  H   H604      1.0  0.62530  0.14815  0.53502  1.0000
  H   H605      1.0  0.51087  0.23966  0.93012  1.0000
  C   C346      1.0  0.54142  0.12580  0.52932  1.0000
  C   C347      1.0  0.55681  0.11499  0.52550  1.0000
  H   H606      1.0  0.53049  0.12251  0.55176  1.0000
  H   H607      1.0  0.55025  0.37221  0.49890  1.0000
  C   C348      1.0  0.54018  0.14078  0.50403  1.0000
  H   H608      1.0  0.44255  0.18146  0.76355  1.0000
  H   H609      1.0  0.60041  0.16876  0.52551  1.0000
  H   H610      1.0  0.64539  0.16942  0.56681  1.0000
  H   H611      1.0  0.59753  0.21955  0.90966  1.0000
  C   C349      1.0  0.38609  0.01886  0.91937  1.0000
  C   C350      1.0  0.40433  0.02438  0.94435  1.0000
  H   H612      1.0  0.35955  0.44330  0.55729  1.0000
  H   H613      1.0  0.38606  0.03418  0.90614  1.0000
  H   H614      1.0  0.41502  0.47673  0.96722  1.0000
  C   C351      1.0  0.41931  0.03543  0.57069  1.0000
  C   C352      1.0  0.39857  0.03900  0.56771  1.0000
  C   C353      1.0  0.37414  0.01747  0.56617  1.0000
  H   H615      1.0  0.43822  0.05168  0.57199  1.0000
  C   C354      1.0  0.36685  0.99351  0.91297  1.0000
  C   C355      1.0  0.48259  0.04703  0.97341  1.0000
  H   H616      1.0  0.57407  0.17356  0.57143  1.0000
  H   H617      1.0  0.40342  0.10244  0.66729  1.0000
  H   H618      1.0  0.51230  0.22169  0.79283  1.0000
  H   H619      1.0  0.54567  0.47693  0.49691  1.0000
  H   H620      1.0  0.44173  0.32397  0.54585  1.0000
  C   C356      1.0  0.49890  0.06852  0.94861  1.0000
  S   S87       1.0  0.59051  0.10541  0.49342  1.0000
  H   H621      1.0  0.46615  0.33724  0.94282  1.0000
  N   N18       1.0  0.46507  0.20962  0.82594  1.0000
  H   H622      1.0  0.35791  0.01991  0.56384  1.0000
  N   N19       1.0  0.64129  0.18762  0.52289  1.0000
  H   H623      1.0  0.57863  0.32564  0.95993  1.0000
  C   C357      1.0  0.49576  0.32880  0.95398  1.0000
  C   C358      1.0  0.48441  0.20179  0.83246  1.0000
  H   H624      1.0  0.61488  0.36877  0.95195  1.0000
  C   C359      1.0  0.51166  0.22034  0.82046  1.0000
  C   C360      1.0  0.40677  0.15598  0.87257  1.0000
  H   H625      1.0  0.49565  0.08468  0.95141  1.0000
  C   C361      1.0  0.52981  0.21136  0.83103  1.0000
  H   H626      1.0  0.48578  0.19911  0.85968  1.0000
  C   C362      1.0  0.61601  0.20600  0.94310  1.0000
  C   C363      1.0  0.56541  0.40727  0.96601  1.0000
  H   H627      1.0  0.62479  0.14838  0.97693  1.0000
  H   H628      1.0  0.51894  0.23958  0.83104  1.0000
  H   H629      1.0  0.51852  0.47885  0.50470  1.0000
  H   H630      1.0  0.47202  0.05221  0.90710  1.0000
  H   H631      1.0  0.46049  0.25579  0.90038  1.0000
  H   H632      1.0  0.52327  0.19204  0.82096  1.0000
  H   H633      1.0  0.54895  0.22438  0.82114  1.0000
  H   H634      1.0  0.53119  0.21113  0.85870  1.0000
  N   N20       1.0  0.52369  0.33722  0.52335  1.0000
  H   H635      1.0  0.51651  0.08049  0.63250  1.0000
  C   C364      1.0  0.50608  0.34643  0.53389  1.0000
  C   C365      1.0  0.55042  0.13333  0.96636  1.0000
  C   C366      1.0  0.52467  0.31977  0.54922  1.0000
  H   H636      1.0  0.48616  0.06955  0.76182  1.0000
  C   C367      1.0  0.38365  0.98784  0.66451  1.0000
  C   C368      1.0  0.56007  0.37793  0.55141  1.0000
  H   H637      1.0  0.59392  0.38057  0.94299  1.0000
  C   C369      1.0  0.61445  0.18661  0.57366  1.0000
  C   C370      1.0  0.50611  0.27600  0.57485  1.0000
  C   C371      1.0  0.58859  0.39613  0.54926  1.0000
  H   H638      1.0  0.48627  0.28966  0.95329  1.0000
  S   S88       1.0  0.61907  0.46372  0.50767  1.0000
  H   H639      1.0  0.51147  0.35554  0.55904  1.0000
  H   H640      1.0  0.48637  0.28656  0.54038  1.0000
  H   H641      1.0  0.43616  0.19322  0.88631  1.0000
  H   H642      1.0  0.51054  0.34768  0.94533  1.0000
  H   H643      1.0  0.54383  0.32194  0.55039  1.0000
  H   H644      1.0  0.52172  0.32525  0.57463  1.0000
  C   C372      1.0  0.50073  0.08446  0.63186  1.0000
  C   C373      1.0  0.53296  0.41656  0.49246  1.0000
  H   H645      1.0  0.61918  0.21214  0.88927  1.0000
  H   H646      1.0  0.47355  0.04801  0.65036  1.0000
  H   H647      1.0  0.55634  0.36693  0.57471  1.0000
  H   H648      1.0  0.55090  0.38957  0.55320  1.0000
  C   C374      1.0  0.43382  0.17804  0.86898  1.0000
  H   H649      1.0  0.63164  0.20251  0.58546  1.0000
  C   C375      1.0  0.44917  0.21882  0.96393  1.0000
  C   C376      1.0  0.39142  0.08262  0.65832  1.0000
  H   H650      1.0  0.46464  0.35300  0.52649  1.0000
  H   H651      1.0  0.49054  0.07177  0.68204  1.0000
  H   H652      1.0  0.57107  0.11638  0.94655  1.0000
  H   H653      1.0  0.41732  0.00781  0.98109  1.0000
  C   C377      1.0  0.57109  0.11904  0.49643  1.0000
  H   H654      1.0  0.48651  0.22483  0.72580  1.0000
  H   H655      1.0  0.45678  0.04545  0.71456  1.0000
  H   H656      1.0  0.46788  0.34790  0.57022  1.0000
  H   H657      1.0  0.60778  0.16749  0.94326  1.0000
  C   C378      1.0  0.57532  0.34179  0.96147  1.0000
  H   H658      1.0  0.45081  0.22230  0.78544  1.0000
  H   H659      1.0  0.44681  0.17142  0.87709  1.0000
  C   C379      1.0  0.39316  0.01856  0.80221  1.0000
  H   H660      1.0  0.43420  0.23968  0.55069  1.0000
  H   H661      1.0  0.43586  0.17073  0.81704  1.0000
  C   C380      1.0  0.46346  0.08171  0.73409  1.0000
  H   H662      1.0  0.35217  0.98966  0.89480  1.0000
  H   H663      1.0  0.52797  0.25006  0.89157  1.0000
  H   H664      1.0  0.49624  0.04352  0.90774  1.0000
  C   C381      1.0  0.36518  0.44983  0.53128  1.0000
  H   H665      1.0  0.49242  0.08020  0.60625  1.0000
  H   H666      1.0  0.47835  0.18297  0.82102  1.0000
  N   N21       1.0  0.43738  0.05797  0.68126  1.0000
  H   H667      1.0  0.50854  0.10488  0.63760  1.0000
  H   H668      1.0  0.59497  0.41026  0.56997  1.0000
  C   C382      1.0  0.44498  0.48270  0.49880  1.0000
  C   C383      1.0  0.42268  0.03171  0.66616  1.0000
  C   C384      1.0  0.54979  0.36030  0.52019  1.0000
  H   H669      1.0  0.47587  0.07623  0.53627  1.0000
  C   C385      1.0  0.40364  0.00401  0.96154  1.0000
  H   H670      1.0  0.40683  0.06059  0.70441  1.0000
  H   H671      1.0  0.43193  0.24183  0.95713  1.0000
  H   H672      1.0  0.39387  0.02258  0.82946  1.0000
  C   C386      1.0  0.41563  0.01071  0.57144  1.0000
  H   H673      1.0  0.55766  0.10341  0.54517  1.0000
  C   C387      1.0  0.46211  0.33864  0.54523  1.0000
  C   C388      1.0  0.46219  0.19778  0.76312  1.0000
  C   C389      1.0  0.39119  0.98914  0.56974  1.0000
  H   H674      1.0  0.47443  0.31256  0.55586  1.0000
  C   C390      1.0  0.43912  0.18731  0.83238  1.0000
  C   C391      1.0  0.58697  0.43165  0.96685  1.0000
  H   H675      1.0  0.37657  0.07170  0.67699  1.0000
  H   H676      1.0  0.43187  0.00824  0.57324  1.0000
  H   H677      1.0  0.54508  0.25746  0.93064  1.0000
  C   C392      1.0  0.47093  0.23163  0.84887  1.0000
  H   H678      1.0  0.40448  0.46433  0.54173  1.0000
  H   H679      1.0  0.45847  0.06531  0.78369  1.0000
  H   H680      1.0  0.51087  0.27159  0.96931  1.0000
  C   C393      1.0  0.44656  0.05615  0.71559  1.0000
  H   H681      1.0  0.40186  0.00854  0.70929  1.0000
  C   C394      1.0  0.56625  0.12299  0.96888  1.0000
  N   N22       1.0  0.52655  0.31170  0.96323  1.0000
  H   H682      1.0  0.43213  0.22432  0.85745  1.0000
  H   H683      1.0  0.55018  0.01289  0.94784  1.0000
  C   C395      1.0  0.44459  0.23863  0.97255  1.0000
  H   H684      1.0  0.48396  0.23557  0.78538  1.0000
  C   C396      1.0  0.46592  0.21770  0.79022  1.0000
  H   H685      1.0  0.47531  0.19053  0.76680  1.0000
  H   H686      1.0  0.55364  0.48029  0.54996  1.0000
  H   H687      1.0  0.47010  0.31632  0.51179  1.0000
  C   C397      1.0  0.54878  0.33460  0.94814  1.0000
  H   H688      1.0  0.43287  0.08991  0.69281  1.0000
  C   C398      1.0  0.61736  0.18625  0.53525  1.0000
  H   H689      1.0  0.46354  0.19419  0.70936  1.0000
  H   H690      1.0  0.47672  0.27852  0.86757  1.0000
  H   H691      1.0  0.59435  0.20759  0.57355  1.0000
  H   H692      1.0  0.39297  0.99099  0.76879  1.0000
  C   C399      1.0  0.45916  0.07419  0.65854  1.0000
  H   H693      1.0  0.37462  0.08003  0.50169  1.0000
  C   C400      1.0  0.47110  0.32264  0.93625  1.0000
  H   H694      1.0  0.37745  0.99086  0.63970  1.0000
  H   H695      1.0  0.48565  0.03109  0.96708  1.0000
  H   H696      1.0  0.49308  0.33008  0.98107  1.0000
  H   H697      1.0  0.38714  0.43180  0.52727  1.0000
  H   H698      1.0  0.38990  0.04900  0.49918  1.0000
  H   H699      1.0  0.52534  0.27903  0.57943  1.0000
  H   H700      1.0  0.42414  0.19130  0.82398  1.0000
  H   H701      1.0  0.50434  0.30792  0.91879  1.0000
  H   H702      1.0  0.63168  0.22541  0.94906  1.0000
  C   C401      1.0  0.44108  0.23946  0.52595  1.0000
  H   H703      1.0  0.39290  0.16164  0.86492  1.0000
  H   H704      1.0  0.59347  0.40646  0.52526  1.0000
  C   C402      1.0  0.46672  0.20899  0.72813  1.0000
  C   C403      1.0  0.47763  0.32634  0.53599  1.0000
  H   H705      1.0  0.43617  0.27017  0.50829  1.0000
  C   C404      1.0  0.48080  0.06805  0.65743  1.0000
  H   H706      1.0  0.56390  0.35456  0.51415  1.0000
  H   H707      1.0  0.45534  0.30396  0.94419  1.0000
  H   H708      1.0  0.51118  0.28343  0.52252  1.0000
  H   H709      1.0  0.63487  0.11951  0.94690  1.0000
  C   C405      1.0  0.50596  0.29090  0.54446  1.0000
  H   H710      1.0  0.54855  0.33259  0.92048  1.0000
  H   H711      1.0  0.43990  0.20700  0.94235  1.0000
  H   H712      1.0  0.36719  0.46880  0.52880  1.0000
  H   H713      1.0  0.48575  0.09640  0.77963  1.0000
  H   H714      1.0  0.59895  0.38566  0.55124  1.0000
  H   H715      1.0  0.47969  0.09515  0.71877  1.0000
  H   H716      1.0  0.42148  0.08177  0.63276  1.0000
  C   C406      1.0  0.47404  0.07786  0.76676  1.0000
  H   H717      1.0  0.46771  0.09464  0.66510  1.0000
  H   H718      1.0  0.40329  0.15002  0.89909  1.0000
  H   H719      1.0  0.44879  0.24668  0.82495  1.0000
  H   H720      1.0  0.49294  0.25546  0.57027  1.0000
  H   H721      1.0  0.45217  0.07253  0.63239  1.0000
  H   H722      1.0  0.40382  0.13955  0.85708  1.0000
  H   H723      1.0  0.49970  0.28173  0.59740  1.0000
  C   C407      1.0  0.42113  0.06986  0.68448  1.0000
  H   H724      1.0  0.38482  0.02042  0.68612  1.0000
  H   H725      1.0  0.39469  0.05114  0.64193  1.0000
  C   C408      1.0  0.49230  0.05906  0.91250  1.0000
  H   H726      1.0  0.37612  0.01776  0.79106  1.0000
  H   H727      1.0  0.58955  0.18879  0.61020  1.0000
  C   C409      1.0  0.48232  0.07772  0.51010  1.0000
  S   S89       1.0  0.52099  0.15467  0.50731  1.0000
  H   H728      1.0  0.52974  0.01416  0.97895  1.0000
  C   C410      1.0  0.59173  0.18933  0.58265  1.0000
  H   H729      1.0  0.45347  0.21587  0.72251  1.0000
  H   H730      1.0  0.47315  0.32247  0.90873  1.0000
  H   H731      1.0  0.41021  0.03437  0.79067  1.0000
  H   H732      1.0  0.38206  0.08287  0.63457  1.0000
  N   N23       1.0  0.64180  0.18890  0.97321  1.0000
  C   C411      1.0  0.39265  0.99364  0.79617  1.0000
  H   H733      1.0  0.43446  0.02265  0.66579  1.0000
  C   C412      1.0  0.60469  0.20614  0.90904  1.0000
  H   H734      1.0  0.46242  0.04024  0.96712  1.0000
  H   H735      1.0  0.41812  0.03258  0.63946  1.0000
  H   H736      1.0  0.45220  0.09067  0.74056  1.0000
  C   C413      1.0  0.45857  0.26169  0.87485  1.0000
  C   C414      1.0  0.52787  0.25531  0.91810  1.0000
  H   H737      1.0  0.54421  0.29483  0.90706  1.0000
  H   H738      1.0  0.47410  0.22753  0.87498  1.0000
  C   C415      1.0  0.39780  0.01286  0.68393  1.0000
  H   H739      1.0  0.50398  0.07486  0.89533  1.0000
  H   H740      1.0  0.60090  0.20079  0.96187  1.0000
  C   C416      1.0  0.52738  0.28001  0.92021  1.0000
  H   H741      1.0  0.49811  0.07375  0.50959  1.0000
  H   H742      1.0  0.59522  0.35799  0.91489  1.0000
  C   C417      1.0  0.45089  0.23999  0.84979  1.0000
  H   H743      1.0  0.42131  0.43327  0.50737  1.0000
  C   C418      1.0  0.39015  0.45105  0.52346  1.0000
  H   H744      1.0  0.51006  0.27657  0.90677  1.0000
  H   H745      1.0  0.54563  0.01837  0.51967  1.0000
  H   H746      1.0  0.61099  0.16851  0.58457  1.0000
  H   H747      1.0  0.61572  0.20233  0.52542  1.0000
  H   H748      1.0  0.63454  0.18768  0.91977  1.0000
  C   C419      1.0  0.50282  0.30825  0.94641  1.0000
  H   H749      1.0  0.54728  0.35168  0.95264  1.0000
  H   H750      1.0  0.48953  0.09733  0.50136  1.0000
  H   H751      1.0  0.44319  0.47531  0.52458  1.0000
  C   C420      1.0  0.44227  0.25695  0.50185  1.0000
  C   C421      1.0  0.59601  0.36358  0.94152  1.0000
  C   C422      1.0  0.46522  0.21399  0.98365  1.0000
  C   C423      1.0  0.58586  0.44593  0.50238  1.0000
  C   C424      1.0  0.37043  0.99274  0.56733  1.0000
  C   C425      1.0  0.52741  0.28778  0.95713  1.0000
  C   C426      1.0  0.54164  0.00584  0.97269  1.0000
  H   H752      1.0  0.44208  0.40741  0.49977  1.0000
  H   H753      1.0  0.31813  0.47584  0.54551  1.0000
  C   C427      1.0  0.64389  0.16539  0.97424  1.0000
  C   C428      1.0  0.55349  0.01287  0.49846  1.0000
  H   H754      1.0  0.64580  0.12262  0.54011  1.0000
  H   H755      1.0  0.64273  0.42716  0.94635  1.0000
  H   H756      1.0  0.52181  0.48402  0.93334  1.0000
  H   H757      1.0  0.57393  0.02034  0.50350  1.0000
  H   H758      1.0  0.54434  0.28892  0.96902  1.0000
  Fe  Fe45      1.0  0.63609  0.48520  0.92442  1.0000
  C   C429      1.0  0.64320  0.16650  0.53930  1.0000
  H   H759      1.0  0.57756  0.34861  0.98771  1.0000
  H   H760      1.0  0.45439  0.03973  0.49717  1.0000
  H   H761      1.0  0.49708  0.30727  0.48990  1.0000
  S   S90       1.0  0.39481  0.53270  0.42713  1.0000
  C   C430      1.0  0.44244  0.63126  0.03356  1.0000
  Fe  Fe46      1.0  0.48676  0.85946  0.42795  1.0000
  H   H762      1.0  0.61857  0.94068  0.03665  1.0000
  S   S91       1.0  0.45196  0.86372  0.43234  1.0000
  Fe  Fe47      1.0  0.52375  0.85794  0.37742  1.0000
  S   S92       1.0  0.55079  0.86162  0.41897  1.0000
  S   S93       1.0  0.53752  0.85647  0.32455  1.0000
  Fe  Fe48      1.0  0.51618  0.83220  0.44617  1.0000
  H   H763      1.0  0.56854  0.95698  0.18112  1.0000
  Fe  Fe49      1.0  0.54332  0.89145  0.44058  1.0000
  S   S94       1.0  0.56920  0.92992  0.46605  1.0000
  S   S95       1.0  0.48944  0.82751  0.40363  1.0000
  S   S96       1.0  0.51870  0.88939  0.39779  1.0000
  Fe  Fe50      1.0  0.49758  0.85261  0.05069  1.0000
  S   S97       1.0  0.53756  0.86494  0.03536  1.0000
  S   S98       1.0  0.47253  0.84999  0.00670  1.0000
  Fe  Fe51      1.0  0.50847  0.84674  0.12426  1.0000
  S   S99       1.0  0.54861  0.85827  0.11285  1.0000
  S   S100      1.0  0.49060  0.83857  0.17639  1.0000
  Fe  Fe52      1.0  0.54903  0.88935  0.08201  1.0000
  S   S101      1.0  0.58115  0.93007  0.09310  1.0000
  Fe  Fe53      1.0  0.53324  0.83254  0.06690  1.0000
  S   S102      1.0  0.54783  0.80480  0.05493  1.0000
  S   S103      1.0  0.50942  0.87875  0.09532  1.0000
  S   S104      1.0  0.49279  0.81928  0.08038  1.0000
  C   C431      1.0  0.58694  0.96034  0.07956  1.0000
  H   H764      1.0  0.44905  0.51009  0.39243  1.0000
  C   C432      1.0  0.41957  0.86834  0.03319  1.0000
  H   H765      1.0  0.52349  0.79571  0.24300  1.0000
  H   H766      1.0  0.56928  0.94776  0.03141  1.0000
  C   C433      1.0  0.54274  0.77981  0.02600  1.0000
  Fe  Fe54      1.0  0.34984  0.48912  0.04603  1.0000
  C   C434      1.0  0.41366  0.62113  0.03680  1.0000
  H   H767      1.0  0.50957  0.93122  0.37801  1.0000
  H   H768      1.0  0.56407  0.76799  0.05620  1.0000
  C   C435      1.0  0.58604  0.96118  0.44944  1.0000
  H   H769      1.0  0.54082  0.95287  0.39486  1.0000
  H   H770      1.0  0.52479  0.89213  0.20406  1.0000
  H   H771      1.0  0.34679  0.78241  0.41317  1.0000
  H   H772      1.0  0.37144  0.58917  0.40250  1.0000
  C   C436      1.0  0.52396  0.85158  0.28368  1.0000
  C   C437      1.0  0.53865  0.85286  0.25604  1.0000
  C   C438      1.0  0.52875  0.84872  0.22314  1.0000
  C   C439      1.0  0.50391  0.84315  0.21742  1.0000
  C   C440      1.0  0.48920  0.84180  0.24508  1.0000
  C   C441      1.0  0.49914  0.84607  0.27797  1.0000
  H   H773      1.0  0.55785  0.85702  0.26011  1.0000
  H   H774      1.0  0.54032  0.84980  0.20221  1.0000
  H   H775      1.0  0.46996  0.83753  0.24100  1.0000
  H   H776      1.0  0.48754  0.84493  0.29889  1.0000
  H   H777      1.0  0.59126  0.92634  0.00941  1.0000
  S   S105      1.0  0.32335  0.49483  0.07898  1.0000
  H   H778      1.0  0.54747  0.57415  0.46065  1.0000
  C   C442      1.0  0.41833  0.48793  0.42676  1.0000
  H   H779      1.0  0.52594  0.96403  0.36623  1.0000
  H   H780      1.0  0.53080  0.90642  0.26021  1.0000
  C   C443      1.0  0.42123  0.54530  0.02960  1.0000
  C   C444      1.0  0.51459  0.96652  0.00646  1.0000
  H   H781      1.0  0.41394  0.53588  0.05312  1.0000
  H   H782      1.0  0.45947  0.56865  0.04814  1.0000
  H   H783      1.0  0.59131  0.89446  0.04674  1.0000
  H   H784      1.0  0.53638  0.91474  0.17169  1.0000
  H   H785      1.0  0.47025  0.95363  0.45064  1.0000
  H   H786      1.0  0.55010  0.80883  0.41942  1.0000
  C   C445      1.0  0.35746  0.80262  0.42116  1.0000
  C   C446      1.0  0.59133  0.51114  0.48295  1.0000
  H   H787      1.0  0.53003  0.75077  0.37934  1.0000
  C   C447      1.0  0.43921  0.86277  0.03505  1.0000
  C   C448      1.0  0.51082  0.78710  0.26467  1.0000
  H   H788      1.0  0.44846  0.86409  0.05870  1.0000
  H   H789      1.0  0.44136  0.57875  0.44057  1.0000
  C   C449      1.0  0.43424  0.56951  0.46424  1.0000
  H   H790      1.0  0.45036  0.49449  0.11691  1.0000
  H   H791      1.0  0.61811  0.53489  0.44506  1.0000
  H   H792      1.0  0.50472  0.69795  0.31810  1.0000
  H   H793      1.0  0.56600  0.90659  0.16139  1.0000
  H   H794      1.0  0.32790  0.86968  0.41905  1.0000
  H   H795      1.0  0.35811  0.79103  0.47096  1.0000
  H   H796      1.0  0.45564  0.51956  0.47731  1.0000
  C   C450      1.0  0.45509  0.67603  0.02869  1.0000
  C   C451      1.0  0.48408  0.66089  0.01091  1.0000
  H   H797      1.0  0.50081  0.90575  0.01678  1.0000
  H   H798      1.0  0.35832  0.55593  0.41042  1.0000
  H   H799      1.0  0.53616  0.68753  0.01899  1.0000
  C   C452      1.0  0.49978  0.67066  0.04386  1.0000
  H   H800      1.0  0.34240  0.53958  0.46820  1.0000
  C   C453      1.0  0.46870  0.72266  0.03109  1.0000
  H   H801      1.0  0.42002  0.50663  0.11646  1.0000
  C   C454      1.0  0.47050  0.70212  0.01159  1.0000
  H   H802      1.0  0.39344  0.80386  0.42911  1.0000
  N   N24       1.0  0.62577  0.87589  0.04389  1.0000
  H   H803      1.0  0.38721  0.80886  0.38659  1.0000
  H   H804      1.0  0.43510  0.67158  0.02862  1.0000
  H   H805      1.0  0.46070  0.67820  0.05556  1.0000
  H   H806      1.0  0.50580  0.91903  0.22969  1.0000
  C   C455      1.0  0.44694  0.85570  0.00623  1.0000
  C   C456      1.0  0.62876  0.90097  0.03353  1.0000
  H   H807      1.0  0.44997  0.63476  0.05955  1.0000
  H   H808      1.0  0.40452  0.62021  0.01247  1.0000
  H   H809      1.0  0.47751  0.72541  0.05626  1.0000
  C   C457      1.0  0.53206  0.91242  0.19882  1.0000
  H   H810      1.0  0.47737  0.94414  0.05051  1.0000
  H   H811      1.0  0.49066  0.65721  0.06454  1.0000
  H   H812      1.0  0.50231  0.68925  0.05149  1.0000
  S   S106      1.0  0.34935  0.49311  0.17365  1.0000
  C   C458      1.0  0.35360  0.80475  0.45912  1.0000
  H   H813      1.0  0.47895  0.74087  0.01761  1.0000
  H   H814      1.0  0.44868  0.71768  0.03367  1.0000
  N   N25       1.0  0.49639  0.93839  0.00869  1.0000
  H   H815      1.0  0.59603  0.83017  0.42365  1.0000
  H   H816      1.0  0.51996  0.95919  0.07430  1.0000
  H   H817      1.0  0.51529  0.49010  0.44816  1.0000
  H   H818      1.0  0.63411  0.86095  0.11094  1.0000
  H   H819      1.0  0.59870  0.82516  0.37979  1.0000
  H   H820      1.0  0.51407  0.77117  0.41127  1.0000
  C   C459      1.0  0.52664  0.79174  0.29642  1.0000
  C   C460      1.0  0.50974  0.78198  0.32784  1.0000
  H   H821      1.0  0.34877  0.84486  0.42798  1.0000
  N   N26       1.0  0.49606  0.94540  0.47762  1.0000
  H   H822      1.0  0.53938  0.91011  0.32240  1.0000
  C   C461      1.0  0.58723  0.82816  0.39863  1.0000
  N   N27       1.0  0.32786  0.79982  0.47006  1.0000
  H   H823      1.0  0.56093  0.78836  0.40363  1.0000
  H   H824      1.0  0.61348  0.83357  0.08643  1.0000
  H   H825      1.0  0.60694  0.91103  0.14921  1.0000
  C   C462      1.0  0.32959  0.83751  0.43832  1.0000
  H   H826      1.0  0.31515  0.82467  0.41988  1.0000
  C   C463      1.0  0.50635  0.93857  0.07199  1.0000
  Fe  Fe55      1.0  0.35591  0.49738  0.42279  1.0000
  H   H827      1.0  0.44111  0.96718  0.04161  1.0000
  H   H828      1.0  0.61352  0.88395  0.09091  1.0000
  H   H829      1.0  0.52958  0.93455  0.01146  1.0000
  H   H830      1.0  0.54221  0.81946  0.36501  1.0000
  C   C464      1.0  0.59185  0.97540  0.22499  1.0000
  H   H831      1.0  0.51344  0.70659  0.36130  1.0000
  H   H832      1.0  0.60046  0.82927  0.14537  1.0000
  H   H833      1.0  0.40837  0.59427  0.07604  1.0000
  C   C465      1.0  0.34937  0.49334  0.24259  1.0000
  H   H834      1.0  0.53820  0.78265  0.29325  1.0000
  H   H835      1.0  0.48027  0.73224  0.38704  1.0000
  H   H836      1.0  0.54167  0.93932  0.26312  1.0000
  H   H837      1.0  0.47869  0.87867  0.20110  1.0000
  C   C466      1.0  0.38529  0.81281  0.41318  1.0000
  H   H838      1.0  0.50821  0.93383  0.12529  1.0000
  H   H839      1.0  0.36790  0.51001  0.24044  1.0000
  C   C467      1.0  0.50973  0.92366  0.00225  1.0000
  H   H840      1.0  0.50328  0.79570  0.33323  1.0000
  S   S107      1.0  0.32133  0.49731  0.40275  1.0000
  C   C468      1.0  0.54622  0.80361  0.36517  1.0000
  H   H841      1.0  0.50853  0.98502  0.47063  1.0000
  H   H842      1.0  0.59695  0.85669  0.14222  1.0000
  H   H843      1.0  0.53991  0.81244  0.29882  1.0000
  C   C469      1.0  0.42478  0.49892  0.16935  1.0000
  H   H844      1.0  0.34027  0.87410  0.46107  1.0000
  H   H845      1.0  0.35386  0.95969  0.47252  1.0000
  H   H846      1.0  0.50280  0.78995  0.39305  1.0000
  S   S108      1.0  0.37226  0.51631  0.00417  1.0000
  C   C470      1.0  0.56636  0.95565  0.20878  1.0000
  H   H847      1.0  0.50579  0.97728  0.01615  1.0000
  C   C471      1.0  0.51709  0.77323  0.48804  1.0000
  H   H848      1.0  0.55588  0.94443  0.32252  1.0000
  H   H849      1.0  0.49480  0.92006  0.43883  1.0000
  N   N28       1.0  0.52221  0.77866  0.35851  1.0000
  H   H850      1.0  0.49101  0.72738  0.33707  1.0000
  H   H851      1.0  0.59120  0.93899  0.16741  1.0000
  S   S109      1.0  0.51106  0.86238  0.47165  1.0000
  H   H852      1.0  0.37442  0.55748  0.48021  1.0000
  H   H853      1.0  0.42354  0.50458  0.44288  1.0000
  H   H854      1.0  0.55291  0.96232  0.21428  1.0000
  C   C472      1.0  0.40717  0.86648  0.00268  1.0000
  C   C473      1.0  0.37447  0.97353  0.47397  1.0000
  C   C474      1.0  0.41749  0.51202  0.14199  1.0000
  H   H855      1.0  0.58973  0.85729  0.06920  1.0000
  H   H856      1.0  0.49851  0.76650  0.25972  1.0000
  C   C475      1.0  0.52889  0.75817  0.35440  1.0000
  H   H857      1.0  0.39627  0.83360  0.41717  1.0000
  H   H858      1.0  0.42771  0.54956  0.12526  1.0000
  C   C476      1.0  0.41158  0.54607  0.46499  1.0000
  H   H859      1.0  0.64148  0.90858  0.01157  1.0000
  H   H860      1.0  0.47130  0.74641  0.43972  1.0000
  C   C477      1.0  0.59472  0.98206  0.47143  1.0000
  H   H861      1.0  0.43087  0.54737  0.16969  1.0000
  C   C478      1.0  0.37053  0.57527  0.42093  1.0000
  C   C479      1.0  0.47860  0.74943  0.38624  1.0000
  H   H862      1.0  0.45392  0.54722  0.14158  1.0000
  N   N29       1.0  0.45693  0.65468  0.01273  1.0000
  H   H863      1.0  0.49212  0.95433  0.40715  1.0000
  C   C480      1.0  0.55113  0.74557  0.01067  1.0000
  C   C481      1.0  0.61179  0.83176  0.01626  1.0000
  C   C482      1.0  0.50694  0.94025  0.44681  1.0000
  H   H864      1.0  0.48340  0.93976  0.11260  1.0000
  H   H865      1.0  0.54120  0.53157  0.46447  1.0000
  H   H866      1.0  0.47136  0.91272  0.04588  1.0000
  H   H867      1.0  0.49885  0.79587  0.26702  1.0000
  H   H868      1.0  0.41381  0.87398  0.05556  1.0000
  C   C483      1.0  0.43358  0.54081  0.14495  1.0000
  C   C484      1.0  0.40492  0.53911  0.00205  1.0000
  C   C485      1.0  0.61030  0.86734  0.07549  1.0000
  C   C486      1.0  0.35665  0.55811  0.47940  1.0000
  H   H869      1.0  0.52478  0.65581  0.03444  1.0000
  H   H870      1.0  0.52574  0.94241  0.45206  1.0000
  C   C487      1.0  0.42258  0.48643  0.99166  1.0000
  N   N30       1.0  0.55551  0.92863  0.21977  1.0000
  C   C488      1.0  0.57362  0.91911  0.21409  1.0000
  C   C489      1.0  0.54769  0.92554  0.25614  1.0000
  H   H871      1.0  0.53710  0.72056  0.32906  1.0000
  H   H872      1.0  0.44567  0.50724  0.16913  1.0000
  H   H873      1.0  0.48882  0.89310  0.16074  1.0000
  C   C490      1.0  0.58220  0.91959  0.17765  1.0000
  C   C491      1.0  0.56719  0.92763  0.28287  1.0000
  C   C492      1.0  0.55787  0.92760  0.31823  1.0000
  H   H874      1.0  0.63792  0.91536  0.05387  1.0000
  C   C493      1.0  0.60142  0.91075  0.17566  1.0000
  H   H875      1.0  0.56491  0.89926  0.22274  1.0000
  H   H876      1.0  0.59108  0.92986  0.22940  1.0000
  C   C494      1.0  0.54186  0.58372  0.02279  1.0000
  H   H877      1.0  0.42075  0.50506  0.19362  1.0000
  H   H878      1.0  0.51395  0.74077  0.30498  1.0000
  H   H879      1.0  0.44530  0.61574  0.02406  1.0000
  H   H880      1.0  0.34324  0.83837  0.48771  1.0000
  H   H881      1.0  0.60660  0.97024  0.22151  1.0000
  H   H882      1.0  0.40831  0.49027  0.00290  1.0000
  H   H883      1.0  0.34960  0.49513  0.29671  1.0000
  H   H884      1.0  0.39751  0.50693  0.14464  1.0000
  H   H885      1.0  0.56992  0.91106  0.28078  1.0000
  H   H886      1.0  0.58582  0.94501  0.28010  1.0000
  H   H887      1.0  0.51720  0.92890  0.06726  1.0000
  H   H888      1.0  0.57168  0.92809  0.33679  1.0000
  H   H889      1.0  0.54710  0.49830  0.43820  1.0000
  H   H890      1.0  0.46080  0.76520  0.41768  1.0000
  C   C495      1.0  0.40006  0.59452  0.05140  1.0000
  H   H891      1.0  0.36873  0.82370  0.46815  1.0000
  H   H892      1.0  0.54445  0.57144  0.04073  1.0000
  H   H893      1.0  0.59304  0.89109  0.18497  1.0000
  C   C496      1.0  0.49360  0.92972  0.10582  1.0000
  H   H894      1.0  0.53127  0.97219  0.02307  1.0000
  H   H895      1.0  0.58743  0.84600  0.39298  1.0000
  S   S110      1.0  0.48933  0.59906  0.99383  1.0000
  C   C497      1.0  0.43710  0.86254  0.47072  1.0000
  H   H896      1.0  0.54820  0.76606  0.34390  1.0000
  H   H897      1.0  0.61867  0.92350  0.19054  1.0000
  C   C498      1.0  0.59203  0.96581  0.41556  1.0000
  H   H898      1.0  0.47071  0.90175  0.18741  1.0000
  H   H899      1.0  0.35083  0.81308  0.40574  1.0000
  C   C499      1.0  0.56014  0.80573  0.39859  1.0000
  C   C500      1.0  0.55356  0.76473  0.03312  1.0000
  C   C501      1.0  0.57943  0.96385  0.04793  1.0000
  H   H900      1.0  0.49249  0.55264  0.00486  1.0000
  C   C502      1.0  0.41852  0.86956  0.47149  1.0000
  H   H901      1.0  0.58099  0.53788  0.46630  1.0000
  C   C503      1.0  0.51124  0.73518  0.33160  1.0000
  H   H902      1.0  0.46803  0.74904  0.36350  1.0000
  H   H903      1.0  0.60759  0.97950  0.12444  1.0000
  C   C504      1.0  0.50521  0.77341  0.38818  1.0000
  C   C505      1.0  0.48645  0.93293  0.04392  1.0000
  H   H904      1.0  0.52911  0.58978  0.03370  1.0000
  C   C506      1.0  0.51706  0.71382  0.33533  1.0000
  C   C507      1.0  0.52613  0.67429  0.03970  1.0000
  H   H905      1.0  0.37325  0.59792  0.46315  1.0000
  C   C508      1.0  0.46261  0.74806  0.41616  1.0000
  H   H906      1.0  0.41050  0.63364  0.05380  1.0000
  H   H907      1.0  0.53735  0.68236  0.06304  1.0000
  C   C509      1.0  0.32589  0.86018  0.44331  1.0000
  H   H908      1.0  0.58934  0.97738  0.25202  1.0000
  C   C510      1.0  0.61497  0.85022  0.09944  1.0000
  H   H909      1.0  0.56003  0.80782  0.34481  1.0000
  H   H910      1.0  0.44339  0.73118  0.41366  1.0000
  H   H911      1.0  0.49230  0.76415  0.32081  1.0000
  H   H912      1.0  0.41378  0.87583  0.44881  1.0000
  C   C511      1.0  0.44698  0.56390  0.02670  1.0000
  C   C512      1.0  0.32737  0.82417  0.47182  1.0000
  C   C513      1.0  0.59605  0.84061  0.12801  1.0000
  C   C514      1.0  0.52244  0.95085  0.38713  1.0000
  H   H913      1.0  0.58582  0.95005  0.39835  1.0000
  C   C515      1.0  0.51050  0.95715  0.41624  1.0000
  S   S111      1.0  0.50797  0.79537  0.47373  1.0000
  H   H914      1.0  0.63009  0.54273  0.48744  1.0000
  H   H915      1.0  0.41954  0.50831  0.38210  1.0000
  H   H916      1.0  0.48002  0.90899  0.10522  1.0000
  H   H917      1.0  0.48489  0.64395  0.00267  1.0000
  C   C516      1.0  0.50993  0.91765  0.20310  1.0000
  H   H918      1.0  0.40140  0.58098  0.03415  1.0000
  C   C517      1.0  0.35996  0.57851  0.45384  1.0000
  H   H919      1.0  0.59981  0.81997  0.03690  1.0000
  H   H920      1.0  0.56056  0.60089  0.01848  1.0000
  H   H921      1.0  0.34148  0.57695  0.44816  1.0000
  H   H922      1.0  0.38399  0.96901  0.45385  1.0000
  C   C518      1.0  0.48560  0.89652  0.18703  1.0000
  H   H923      1.0  0.49078  0.70811  0.00991  1.0000
  H   H924      1.0  0.55979  0.73448  0.01677  1.0000
  C   C519      1.0  0.42819  0.49740  0.39175  1.0000
  H   H925      1.0  0.51459  0.93567  0.19078  1.0000
  C   C520      1.0  0.60128  0.98180  0.10013  1.0000
  C   C521      1.0  0.60398  0.90076  0.02487  1.0000
  H   H926      1.0  0.50632  0.53412  0.01437  1.0000
  H   H927      1.0  0.37972  0.58806  0.05479  1.0000
  H   H928      1.0  0.38996  0.57865  0.42484  1.0000
  H   H929      1.0  0.52316  0.97745  0.42262  1.0000
  H   H930      1.0  0.49452  0.67521  0.99133  1.0000
  H   H931      1.0  0.57653  0.82827  0.11818  1.0000
  C   C522      1.0  0.46961  0.93960  0.46869  1.0000
  H   H932      1.0  0.44549  0.93278  0.01400  1.0000
  H   H933      1.0  0.45894  0.92082  0.45578  1.0000
  C   C523      1.0  0.52940  0.77525  0.99571  1.0000
  H   H934      1.0  0.55584  0.79435  0.47252  1.0000
  H   H935      1.0  0.54877  0.98003  0.47317  1.0000
  C   C524      1.0  0.61234  0.85733  0.01545  1.0000
  H   H936      1.0  0.45323  0.52091  0.01170  1.0000
  C   C525      1.0  0.61823  0.52693  0.46987  1.0000
  H   H937      1.0  0.58037  0.49664  0.46348  1.0000
  C   C526      1.0  0.44302  0.98598  0.04586  1.0000
  C   C527      1.0  0.45669  0.57631  0.99626  1.0000
  H   H938      1.0  0.42456  0.98442  0.03970  1.0000
  H   H939      1.0  0.59395  0.88811  0.00326  1.0000
  H   H940      1.0  0.62680  0.51479  0.46717  1.0000
  C   C528      1.0  0.60935  0.92716  0.01548  1.0000
  S   S112      1.0  0.38330  0.87470  0.00170  1.0000
  H   H941      1.0  0.62171  0.93418  0.99328  1.0000
  H   H942      1.0  0.41740  0.91856  0.47057  1.0000
  C   C529      1.0  0.54150  0.77714  0.48393  1.0000
  H   H943      1.0  0.43138  0.95262  0.47096  1.0000
  H   H944      1.0  0.63092  0.83427  0.01882  1.0000
  H   H945      1.0  0.59213  0.85218  0.01386  1.0000
  C   C530      1.0  0.54220  0.57218  0.48741  1.0000
  C   C531      1.0  0.45669  0.94069  0.99095  1.0000
  H   H946      1.0  0.46782  0.96158  0.99315  1.0000
  C   C532      1.0  0.42800  0.93603  0.48598  1.0000
  H   H947      1.0  0.51390  0.90921  0.48722  1.0000
  H   H948      1.0  0.52131  0.56261  0.48949  1.0000
  C   C533      1.0  0.51112  0.97278  0.48876  1.0000
  H   H949      1.0  0.47170  0.49603  0.99242  1.0000
  C   C534      1.0  0.50474  0.54580  0.99435  1.0000
  H   H950      1.0  0.62094  0.86636  0.99119  1.0000
  Fe  Fe56      1.0  0.35961  0.91569  0.57627  1.0000
  S   S113      1.0  0.37395  0.89954  0.61546  1.0000
  S   S114      1.0  0.38801  0.95846  0.56935  1.0000
  Fe  Fe57      1.0  0.36687  0.86975  0.57679  1.0000
  S   S115      1.0  0.39590  0.85753  0.56871  1.0000
  H   H951      1.0  0.46035  0.51702  0.55345  1.0000
  Fe  Fe58      1.0  0.35644  0.87034  0.95885  1.0000
  H   H952      1.0  0.49208  0.93544  0.53008  1.0000
  C   C535      1.0  0.45307  0.93911  0.49836  1.0000
  Fe  Fe59      1.0  0.33526  0.90246  0.93075  1.0000
  S   S116      1.0  0.33951  0.94193  0.92435  1.0000
  S   S117      1.0  0.36797  0.89791  0.91670  1.0000
  Fe  Fe60      1.0  0.52715  0.65589  0.62375  1.0000
  S   S118      1.0  0.55766  0.67761  0.58609  1.0000
  S   S119      1.0  0.53832  0.67229  0.67710  1.0000
  Fe  Fe61      1.0  0.49194  0.62069  0.56856  1.0000
  S   S120      1.0  0.52015  0.64047  0.52773  1.0000
  S   S121      1.0  0.45321  0.58483  0.56301  1.0000
  Fe  Fe62      1.0  0.54824  0.63992  0.56416  1.0000
  S   S122      1.0  0.57993  0.63323  0.54597  1.0000
  Fe  Fe63      1.0  0.52745  0.67695  0.55278  1.0000
  S   S123      1.0  0.53913  0.71482  0.52574  1.0000
  S   S124      1.0  0.51971  0.61826  0.60371  1.0000
  S   S125      1.0  0.49733  0.65700  0.59165  1.0000
  Fe  Fe64      1.0  0.53818  0.68226  0.93519  1.0000
  S   S126      1.0  0.50060  0.64871  0.91917  1.0000
  S   S127      1.0  0.53429  0.71710  0.95049  1.0000
  Fe  Fe65      1.0  0.56477  0.65045  0.92250  1.0000
  S   S128      1.0  0.52847  0.61580  0.90762  1.0000
  S   S129      1.0  0.60164  0.64910  0.92073  1.0000
  Fe  Fe66      1.0  0.52132  0.64249  0.87699  1.0000
  S   S130      1.0  0.50439  0.62759  0.82457  1.0000
  Fe  Fe67      1.0  0.51119  0.62523  0.95069  1.0000
  H   H953      1.0  0.54656  0.59782  0.64796  1.0000
  S   S131      1.0  0.55833  0.67727  0.89049  1.0000
  S   S132      1.0  0.54822  0.65862  0.96790  1.0000
  H   H954      1.0  0.47014  0.54479  0.52867  1.0000
  H   H955      1.0  0.36374  0.95275  0.74524  1.0000
  S   S133      1.0  0.62950  0.50969  0.88902  1.0000
  S   S134      1.0  0.62303  0.50194  0.59244  1.0000
  N   N31       1.0  0.49267  0.53004  0.96331  1.0000
  H   H956      1.0  0.37849  0.87410  0.76729  1.0000
  C   C536      1.0  0.60561  0.62228  0.92545  1.0000
  C   C537      1.0  0.58507  0.59789  0.93017  1.0000
  C   C538      1.0  0.58902  0.57727  0.93445  1.0000
  C   C539      1.0  0.61345  0.58049  0.93372  1.0000
  S   S135      1.0  0.32740  0.84276  0.59503  1.0000
  C   C540      1.0  0.63006  0.62553  0.92430  1.0000
  H   H957      1.0  0.56618  0.59502  0.93077  1.0000
  C   C541      1.0  0.59891  0.59532  0.81392  1.0000
  H   H958      1.0  0.40773  0.98222  0.85868  1.0000
  H   H959      1.0  0.54333  0.97656  0.51768  1.0000
  C   C542      1.0  0.53987  0.98408  0.49439  1.0000
  H   H960      1.0  0.45232  0.51704  0.91464  1.0000
  H   H961      1.0  0.42466  0.94096  0.96776  1.0000
  Fe  Fe68      1.0  0.34009  0.86502  0.88453  1.0000
  H   H962      1.0  0.41618  0.93462  0.50773  1.0000
  C   C543      1.0  0.59095  0.61243  0.55794  1.0000
  C   C544      1.0  0.57987  0.59493  0.58365  1.0000
  C   C545      1.0  0.58962  0.57923  0.59266  1.0000
  C   C546      1.0  0.61038  0.58052  0.57592  1.0000
  C   C547      1.0  0.62110  0.59759  0.54968  1.0000
  C   C548      1.0  0.61154  0.61353  0.54095  1.0000
  H   H963      1.0  0.56377  0.59349  0.59648  1.0000
  H   H964      1.0  0.58095  0.56588  0.61271  1.0000
  C   C549      1.0  0.34318  0.86509  0.79010  1.0000
  H   H965      1.0  0.57811  0.53343  0.81592  1.0000
  C   C550      1.0  0.52786  0.65966  0.71784  1.0000
  C   C551      1.0  0.54052  0.67487  0.74600  1.0000
  C   C552      1.0  0.53374  0.66545  0.77877  1.0000
  C   C553      1.0  0.51401  0.64065  0.78387  1.0000
  C   C554      1.0  0.50122  0.62553  0.75568  1.0000
  C   C555      1.0  0.50805  0.63492  0.72293  1.0000
  H   H966      1.0  0.55580  0.69407  0.74250  1.0000
  H   H967      1.0  0.54370  0.67739  0.80009  1.0000
  H   H968      1.0  0.48582  0.60639  0.75925  1.0000
  H   H969      1.0  0.49795  0.62300  0.70166  1.0000
  H   H970      1.0  0.36658  0.97417  0.67842  1.0000
  H   H971      1.0  0.46276  0.95682  0.51337  1.0000
  H   H972      1.0  0.58120  0.81394  0.97923  1.0000
  C   C556      1.0  0.33304  0.49566  0.55139  1.0000
  C   C557      1.0  0.50524  0.73266  0.51528  1.0000
  Fe  Fe69      1.0  0.63975  0.49361  0.54823  1.0000
  C   C558      1.0  0.38482  0.97865  0.95452  1.0000
  H   H973      1.0  0.31901  0.78690  0.57412  1.0000
  H   H974      1.0  0.44769  0.57918  0.94506  1.0000
  H   H975      1.0  0.61896  0.53144  0.78367  1.0000
  C   C559      1.0  0.43823  0.56991  0.52474  1.0000
  H   H976      1.0  0.57334  0.56796  0.50365  1.0000
  Fe  Fe70      1.0  0.31491  0.86110  0.55702  1.0000
  H   H977      1.0  0.56518  0.53524  0.55110  1.0000
  C   C560      1.0  0.43046  0.85332  0.53002  1.0000
  C   C561      1.0  0.36588  0.97322  0.93072  1.0000
  H   H978      1.0  0.53871  0.48993  0.60232  1.0000
  H   H979      1.0  0.56899  0.51882  0.60745  1.0000
  H   H980      1.0  0.63704  0.59886  0.53649  1.0000
  H   H981      1.0  0.36267  0.80849  0.52397  1.0000
  H   H982      1.0  0.34474  0.82300  0.53622  1.0000
  H   H983      1.0  0.58265  0.63208  0.63884  1.0000
  C   C562      1.0  0.55919  0.49938  0.59665  1.0000
  H   H984      1.0  0.57864  0.55019  0.85372  1.0000
  C   C563      1.0  0.34369  0.80464  0.53158  1.0000
  H   H985      1.0  0.61917  0.59545  0.85885  1.0000
  H   H986      1.0  0.54267  0.49084  0.96872  1.0000
  N   N32       1.0  0.62817  0.57582  0.82103  1.0000
  H   H987      1.0  0.55398  0.78547  0.71702  1.0000
  H   H988      1.0  0.32916  0.50840  0.50322  1.0000
  C   C564      1.0  0.41182  0.86023  0.53078  1.0000
  H   H989      1.0  0.50386  0.97564  0.51276  1.0000
  C   C565      1.0  0.60363  0.61085  0.67149  1.0000
  H   H990      1.0  0.36767  0.94461  0.86728  1.0000
  C   C566      1.0  0.52966  0.73658  0.51106  1.0000
  C   C567      1.0  0.35947  0.87038  0.76282  1.0000
  C   C568      1.0  0.35147  0.87093  0.72978  1.0000
  H   H991      1.0  0.35234  0.80270  0.58369  1.0000
  H   H992      1.0  0.36429  0.87504  0.70920  1.0000
  C   C569      1.0  0.58558  0.53847  0.84181  1.0000
  C   C570      1.0  0.36958  0.93858  0.74967  1.0000
  H   H993      1.0  0.54808  0.92064  0.96791  1.0000
  S   S136      1.0  0.31902  0.89186  0.59297  1.0000
  S   S137      1.0  0.33146  0.83652  0.92589  1.0000
  C   C571      1.0  0.56329  0.50011  0.55895  1.0000
  C   C572      1.0  0.61481  0.55289  0.84295  1.0000
  C   C573      1.0  0.39545  0.59502  0.52830  1.0000
  H   H994      1.0  0.38517  0.51624  0.49662  1.0000
  H   H995      1.0  0.58195  0.57618  0.81331  1.0000
  H   H996      1.0  0.63816  0.61518  0.82615  1.0000
  H   H997      1.0  0.60808  0.63267  0.83269  1.0000
  C   C574      1.0  0.58687  0.64679  0.65814  1.0000
  H   H998      1.0  0.33930  0.90627  0.81102  1.0000
  H   H999      1.0  0.62026  0.62693  0.52094  1.0000
  C   C575      1.0  0.32301  0.92411  0.83976  1.0000
  C   C576      1.0  0.57454  0.51386  0.86142  1.0000
  H   H1000     1.0  0.36814  0.54248  0.53408  1.0000
  C   C577      1.0  0.32281  0.55746  0.51220  1.0000
  H   H1001     1.0  0.50589  0.56073  0.66277  1.0000
  S   S138      1.0  0.31582  0.86723  0.68250  1.0000
  H   H1002     1.0  0.61999  0.55834  0.86954  1.0000
  H   H1003     1.0  0.49106  0.71563  0.52731  1.0000
  C   C578      1.0  0.44738  0.51136  0.98693  1.0000
  H   H1004     1.0  0.35240  0.96922  0.79626  1.0000
  H   H1005     1.0  0.35253  0.91945  0.74697  1.0000
  H   H1006     1.0  0.62022  0.65683  0.60396  1.0000
  S   S139      1.0  0.62188  0.56034  0.58907  1.0000
  C   C579      1.0  0.36699  0.58698  0.52858  1.0000
  H   H1007     1.0  0.50527  0.58938  0.67057  1.0000
  H   H1008     1.0  0.43034  0.50870  0.50724  1.0000
  H   H1009     1.0  0.36596  0.97685  0.83679  1.0000
  H   H1010     1.0  0.37818  0.93686  0.69758  1.0000
  H   H1011     1.0  0.55046  0.59146  0.49843  1.0000
  H   H1012     1.0  0.35153  0.97646  0.56586  1.0000
  H   H1013     1.0  0.46015  0.49331  0.95123  1.0000
  H   H1014     1.0  0.60028  0.53579  0.72999  1.0000
  C   C580      1.0  0.52844  0.90539  0.96199  1.0000
  H   H1015     1.0  0.32140  0.57720  0.55750  1.0000
  Fe  Fe71      1.0  0.64440  0.53898  0.93022  1.0000
  H   H1016     1.0  0.58393  0.50909  0.55509  1.0000
  H   H1017     1.0  0.39420  0.92702  0.72623  1.0000
  C   C581      1.0  0.61991  0.67340  0.61484  1.0000
  H   H1018     1.0  0.61008  0.67147  0.71617  1.0000
  H   H1019     1.0  0.61959  0.58687  0.66222  1.0000
  H   H1020     1.0  0.61650  0.63773  0.71187  1.0000
  C   C582      1.0  0.61385  0.66949  0.65202  1.0000
  H   H1021     1.0  0.60168  0.56129  0.77904  1.0000
  H   H1022     1.0  0.62556  0.52933  0.72390  1.0000
  H   H1023     1.0  0.59200  0.50114  0.50546  1.0000
  C   C583      1.0  0.43781  0.93399  0.96207  1.0000
  H   H1024     1.0  0.63214  0.58650  0.76919  1.0000
  H   H1025     1.0  0.52024  0.51981  0.49892  1.0000
  H   H1026     1.0  0.52774  0.89878  0.93591  1.0000
  H   H1027     1.0  0.45728  0.84899  0.50000  1.0000
  H   H1028     1.0  0.51362  0.91740  0.56302  1.0000
  C   C584      1.0  0.51000  0.91510  0.96571  1.0000
  H   H1029     1.0  0.49085  0.89933  0.95855  1.0000
  C   C585      1.0  0.59708  0.67327  0.77782  1.0000
  H   H1030     1.0  0.40534  0.85761  0.95031  1.0000
  H   H1031     1.0  0.61255  0.82668  0.96230  1.0000
  H   H1032     1.0  0.39584  0.97944  0.66081  1.0000
  H   H1033     1.0  0.45737  0.62326  0.96101  1.0000
  C   C586      1.0  0.43454  0.85382  0.97572  1.0000
  H   H1034     1.0  0.36236  0.58806  0.55514  1.0000
  C   C587      1.0  0.48812  0.54585  0.93857  1.0000
  H   H1035     1.0  0.38425  0.96339  0.96867  1.0000
  H   H1036     1.0  0.47999  0.93280  0.95881  1.0000
  C   C588      1.0  0.32308  0.78887  0.50478  1.0000
  H   H1037     1.0  0.56712  0.48859  0.60874  1.0000
  H   H1038     1.0  0.53370  0.50896  0.55056  1.0000
  C   C589      1.0  0.33763  0.79074  0.56483  1.0000
  C   C590      1.0  0.44310  0.85452  0.50020  1.0000
  C   C591      1.0  0.59177  0.61299  0.83160  1.0000
  C   C592      1.0  0.54765  0.75901  0.49526  1.0000
  C   C593      1.0  0.41469  0.85909  0.97393  1.0000
  C   C594      1.0  0.47174  0.53163  0.90745  1.0000
  C   C595      1.0  0.57974  0.52812  0.49022  1.0000
  C   C596      1.0  0.51500  0.92116  0.50881  1.0000
  C   C597      1.0  0.31858  0.86012  0.78375  1.0000
  C   C598      1.0  0.46933  0.54990  0.88393  1.0000
  H   H1039     1.0  0.58828  0.60925  0.72077  1.0000
  H   H1040     1.0  0.34865  0.54587  0.56323  1.0000
  H   H1041     1.0  0.53411  0.93806  0.50935  1.0000
  H   H1042     1.0  0.45966  0.66617  0.96117  1.0000
  C   C599      1.0  0.52720  0.75624  0.97309  1.0000
  H   H1043     1.0  0.40462  0.96034  0.72209  1.0000
  H   H1044     1.0  0.44331  0.52317  0.97011  1.0000
  H   H1045     1.0  0.39172  0.87390  0.50160  1.0000
  C   C600      1.0  0.50964  0.52180  0.94732  1.0000
  H   H1046     1.0  0.50643  0.56125  0.92894  1.0000
  C   C601      1.0  0.34969  0.54161  0.53641  1.0000
  H   H1047     1.0  0.48029  0.52231  0.89321  1.0000
  H   H1048     1.0  0.61364  0.74256  0.65723  1.0000
  H   H1049     1.0  0.48014  0.74742  0.50742  1.0000
  H   H1050     1.0  0.50512  0.49317  0.98447  1.0000
  S   S140      1.0  0.61692  0.55359  0.94093  1.0000
  C   C602      1.0  0.52037  0.50930  0.97084  1.0000
  H   H1051     1.0  0.62853  0.66689  0.66462  1.0000
  H   H1052     1.0  0.48815  0.56427  0.87439  1.0000
  H   H1053     1.0  0.45705  0.53928  0.86223  1.0000
  H   H1054     1.0  0.46071  0.55970  0.89699  1.0000
  H   H1055     1.0  0.57304  0.55868  0.93868  1.0000
  H   H1056     1.0  0.58797  0.71464  0.63799  1.0000
  H   H1057     1.0  0.58122  0.51776  0.88783  1.0000
  H   H1058     1.0  0.32290  0.57259  0.49691  1.0000
  N   N33       1.0  0.54456  0.75065  0.62129  1.0000
  C   C603      1.0  0.55591  0.73405  0.62653  1.0000
  C   C604      1.0  0.51791  0.73458  0.60789  1.0000
  C   C605      1.0  0.55982  0.76955  0.59460  1.0000
  C   C606      1.0  0.54500  0.76481  0.65264  1.0000
  C   C607      1.0  0.54302  0.75171  0.68661  1.0000
  C   C608      1.0  0.58473  0.74845  0.63472  1.0000
  C   C609      1.0  0.54954  0.78666  0.58217  1.0000
  C   C610      1.0  0.49857  0.71382  0.63112  1.0000
  C   C611      1.0  0.47284  0.69846  0.61359  1.0000
  C   C612      1.0  0.53845  0.76542  0.71531  1.0000
  C   C613      1.0  0.59286  0.73183  0.65298  1.0000
  C   C614      1.0  0.56945  0.80911  0.56237  1.0000
  H   H1059     1.0  0.55311  0.72242  0.60364  1.0000
  H   H1060     1.0  0.54590  0.71991  0.64627  1.0000
  H   H1061     1.0  0.50952  0.74647  0.60179  1.0000
  H   H1062     1.0  0.51814  0.72527  0.58402  1.0000
  H   H1063     1.0  0.56161  0.75964  0.57222  1.0000
  H   H1064     1.0  0.57951  0.78248  0.60362  1.0000
  H   H1065     1.0  0.56277  0.78354  0.65435  1.0000
  H   H1066     1.0  0.52961  0.76942  0.65144  1.0000
  H   H1067     1.0  0.56087  0.75195  0.69232  1.0000
  H   H1068     1.0  0.52765  0.73169  0.68677  1.0000
  H   H1069     1.0  0.59551  0.75480  0.61107  1.0000
  H   H1070     1.0  0.59038  0.76551  0.65041  1.0000
  H   H1071     1.0  0.54360  0.79420  0.60328  1.0000
  H   H1072     1.0  0.53304  0.77573  0.56521  1.0000
  H   H1073     1.0  0.50484  0.70049  0.63882  1.0000
  H   H1074     1.0  0.49549  0.72254  0.65360  1.0000
  H   H1075     1.0  0.46481  0.71072  0.60780  1.0000
  H   H1076     1.0  0.47457  0.68990  0.58997  1.0000
  H   H1077     1.0  0.45955  0.68301  0.63015  1.0000
  H   H1078     1.0  0.61741  0.62528  0.65424  1.0000
  C   C615      1.0  0.44753  0.58139  0.49395  1.0000
  H   H1079     1.0  0.51537  0.93050  0.94761  1.0000
  H   H1080     1.0  0.32561  0.94305  0.84528  1.0000
  H   H1081     1.0  0.58347  0.72606  0.67761  1.0000
  H   H1082     1.0  0.40670  0.62240  0.56929  1.0000
  H   H1083     1.0  0.58555  0.82211  0.57886  1.0000
  H   H1084     1.0  0.57662  0.80249  0.54155  1.0000
  H   H1085     1.0  0.56089  0.81976  0.55156  1.0000
  N   N34       1.0  0.36767  0.94594  0.81318  1.0000
  C   C616      1.0  0.38144  0.94167  0.78505  1.0000
  C   C617      1.0  0.37849  0.94340  0.84598  1.0000
  H   H1086     1.0  0.44035  0.84827  0.95331  1.0000
  C   C618      1.0  0.36860  0.97105  0.81136  1.0000
  N   N35       1.0  0.55305  0.51535  0.50356  1.0000
  C   C619      1.0  0.63399  0.60483  0.92848  1.0000
  H   H1087     1.0  0.43544  0.97246  0.89145  1.0000
  C   C620      1.0  0.40630  0.96366  0.85396  1.0000
  H   H1088     1.0  0.46170  0.90845  0.98702  1.0000
  H   H1089     1.0  0.60564  0.67609  0.60117  1.0000
  H   H1090     1.0  0.59129  0.66751  0.80405  1.0000
  C   C621      1.0  0.46823  0.50671  0.97282  1.0000
  H   H1091     1.0  0.38226  0.92413  0.78963  1.0000
  H   H1092     1.0  0.40148  0.95699  0.78411  1.0000
  H   H1093     1.0  0.52598  0.53804  0.93500  1.0000
  H   H1094     1.0  0.37652  0.92429  0.84751  1.0000
  H   H1095     1.0  0.42875  0.60629  0.91227  1.0000
  H   H1096     1.0  0.49930  0.50796  0.92677  1.0000
  S   S141      1.0  0.32470  0.87654  0.97520  1.0000
  C   C622      1.0  0.41198  0.62158  0.54302  1.0000
  H   H1097     1.0  0.52973  0.58328  0.97255  1.0000
  Fe  Fe72      1.0  0.33351  0.87437  0.63028  1.0000
  H   H1098     1.0  0.40371  0.95534  0.90717  1.0000
  H   H1099     1.0  0.60146  0.57956  0.69995  1.0000
  C   C623      1.0  0.53803  0.74116  0.98021  1.0000
  H   H1100     1.0  0.43212  0.62653  0.54282  1.0000
  H   H1101     1.0  0.41914  0.96540  0.83350  1.0000
  H   H1102     1.0  0.61528  0.68712  0.66213  1.0000
  C   C624      1.0  0.44052  0.62540  0.96039  1.0000
  H   H1103     1.0  0.44736  0.64025  0.90967  1.0000
  H   H1104     1.0  0.60370  0.60177  0.78770  1.0000
  C   C625      1.0  0.62194  0.59589  0.83131  1.0000
  H   H1105     1.0  0.59296  0.54351  0.50767  1.0000
  H   H1106     1.0  0.33184  0.49949  0.57827  1.0000
  H   H1107     1.0  0.55060  0.51441  0.93725  1.0000
  C   C626      1.0  0.41582  0.95717  0.88561  1.0000
  C   C627      1.0  0.51192  0.90604  0.54040  1.0000
  H   H1108     1.0  0.48596  0.52694  0.52408  1.0000
  H   H1109     1.0  0.36466  0.60176  0.51579  1.0000
  C   C628      1.0  0.43234  0.62431  0.92399  1.0000
  H   H1110     1.0  0.44849  0.92302  0.51517  1.0000
  C   C629      1.0  0.40599  0.86850  0.50136  1.0000
  S   S142      1.0  0.35481  0.86562  0.83139  1.0000
  H   H1111     1.0  0.57591  0.61300  0.81805  1.0000
  C   C630      1.0  0.46739  0.52541  0.52852  1.0000
  C   C631      1.0  0.49386  0.92785  0.50554  1.0000
  C   C632      1.0  0.54064  0.53004  0.49218  1.0000
  C   C633      1.0  0.55317  0.51563  0.54129  1.0000
  C   C634      1.0  0.62205  0.56904  0.78444  1.0000
  C   C635      1.0  0.44043  0.56997  0.96870  1.0000
  H   H1112     1.0  0.51697  0.75321  0.94979  1.0000
  C   C636      1.0  0.34036  0.92491  0.81126  1.0000
  H   H1113     1.0  0.43508  0.84687  0.55265  1.0000
  H   H1114     1.0  0.58548  0.60647  0.85745  1.0000
  H   H1115     1.0  0.33750  0.77263  0.56207  1.0000
  C   C637      1.0  0.59775  0.62364  0.70095  1.0000
  H   H1116     1.0  0.63284  0.60736  0.69825  1.0000
  H   H1117     1.0  0.42638  0.91314  0.95836  1.0000
  H   H1118     1.0  0.35176  0.49768  0.54644  1.0000
  H   H1119     1.0  0.58962  0.63655  0.76215  1.0000
  C   C638      1.0  0.41582  0.54621  0.52544  1.0000
  H   H1120     1.0  0.53775  0.75603  0.73926  1.0000
  C   C639      1.0  0.49908  0.75080  0.50391  1.0000
  H   H1121     1.0  0.47940  0.55583  0.95096  1.0000
  C   C640      1.0  0.51392  0.57809  0.67860  1.0000
  H   H1122     1.0  0.40854  0.53718  0.54918  1.0000
  H   H1123     1.0  0.59052  0.97879  0.49774  1.0000
  H   H1124     1.0  0.32068  0.76957  0.50400  1.0000
  H   H1125     1.0  0.62141  0.53935  0.83762  1.0000
  C   C641      1.0  0.62874  0.54957  0.77000  1.0000
  H   H1126     1.0  0.63143  0.56092  0.71792  1.0000
  H   H1127     1.0  0.32725  0.91687  0.86262  1.0000
  H   H1128     1.0  0.47620  0.90914  0.50230  1.0000
  H   H1129     1.0  0.53848  0.96990  0.96420  1.0000
  H   H1130     1.0  0.41581  0.93916  0.88208  1.0000
  H   H1131     1.0  0.57341  0.65349  0.65229  1.0000
  H   H1132     1.0  0.52013  0.76475  0.71170  1.0000
  C   C642      1.0  0.62094  0.54364  0.73322  1.0000
  H   H1133     1.0  0.50882  0.57243  0.70501  1.0000
  H   H1134     1.0  0.54365  0.62736  0.69168  1.0000
  H   H1135     1.0  0.56304  0.64139  0.75927  1.0000
  N   N36       1.0  0.34901  0.56107  0.51416  1.0000
  H   H1136     1.0  0.40217  0.59516  0.50260  1.0000
  H   H1137     1.0  0.54769  0.55726  0.53280  1.0000
  H   H1138     1.0  0.41467  0.62513  0.92248  1.0000
  H   H1139     1.0  0.54990  0.61056  0.72275  1.0000
  C   C643      1.0  0.54265  0.59334  0.67474  1.0000
  C   C644      1.0  0.58947  0.65754  0.71738  1.0000
  H   H1140     1.0  0.58654  0.59814  0.65670  1.0000
  C   C645      1.0  0.55439  0.61754  0.69673  1.0000
  H   H1141     1.0  0.56666  0.76251  0.49197  1.0000
  N   N37       1.0  0.58233  0.63597  0.69291  1.0000
  H   H1142     1.0  0.49326  0.88824  0.54024  1.0000
  C   C646      1.0  0.58362  0.65013  0.75471  1.0000
  H   H1143     1.0  0.55003  0.58094  0.68266  1.0000
  H   H1144     1.0  0.52697  0.90102  0.54145  1.0000
  H   H1145     1.0  0.33133  0.92593  0.78760  1.0000
  H   H1146     1.0  0.57985  0.66823  0.71047  1.0000
  S   S143      1.0  0.35435  0.88660  0.53688  1.0000
  H   H1147     1.0  0.40216  0.54692  0.95026  1.0000
  C   C647      1.0  0.44827  0.50944  0.50118  1.0000
  C   C648      1.0  0.60033  0.81672  0.98388  1.0000
  H   H1148     1.0  0.63880  0.69045  0.61129  1.0000
  H   H1149     1.0  0.39884  0.58198  0.54358  1.0000
  H   H1150     1.0  0.61792  0.68186  0.77634  1.0000
  H   H1151     1.0  0.44780  0.94281  0.93855  1.0000
  C   C649      1.0  0.41466  0.55160  0.97169  1.0000
  C   C650      1.0  0.32697  0.86622  0.72351  1.0000
  H   H1152     1.0  0.59191  0.68765  0.77106  1.0000
  H   H1153     1.0  0.38165  0.97145  0.49859  1.0000
  C   C651      1.0  0.40255  0.53430  0.49571  1.0000
  C   C652      1.0  0.53469  0.49908  0.95120  1.0000
  H   H1154     1.0  0.54485  0.56500  0.97931  1.0000
  H   H1155     1.0  0.42494  0.60883  0.97303  1.0000
  H   H1156     1.0  0.55358  0.50429  0.86118  1.0000
  C   C653      1.0  0.53682  0.48842  0.49114  1.0000
  C   C654      1.0  0.32898  0.51372  0.52960  1.0000
  C   C655      1.0  0.38788  0.94093  0.72231  1.0000
  H   H1157     1.0  0.52315  0.88919  0.97887  1.0000
  C   C656      1.0  0.55246  0.55748  0.50604  1.0000
  H   H1158     1.0  0.58013  0.50086  0.85004  1.0000
  H   H1159     1.0  0.46472  0.59965  0.49306  1.0000
  C   C657      1.0  0.61508  0.59524  0.68394  1.0000
  C   C658      1.0  0.52572  0.97692  0.97174  1.0000
  H   H1160     1.0  0.41013  0.63575  0.52798  1.0000
  H   H1161     1.0  0.51072  0.97157  0.95252  1.0000
  H   H1162     1.0  0.53374  0.52318  0.98949  1.0000
  C   C659      1.0  0.53107  0.56980  0.98962  1.0000
  C   C660      1.0  0.47399  0.92939  0.98522  1.0000
  H   H1163     1.0  0.59849  0.79777  0.98579  1.0000
  C   C661      1.0  0.44629  0.65053  0.97762  1.0000
  H   H1164     1.0  0.46321  0.70141  0.98590  1.0000
  H   H1165     1.0  0.42862  0.65145  0.97686  1.0000
  H   H1166     1.0  0.52103  0.78658  0.98943  1.0000
  H   H1167     1.0  0.66118  0.19888  0.03791  1.0000
  H   H1168     1.0  0.86119  0.32566  0.06502  1.0000
  S   S144      1.0  0.66912  0.10653  0.08641  1.0000
  H   H1169     1.0  0.65480  0.16560  0.99655  1.0000
  Fe  Fe73      1.0  0.67031  0.13930  0.05823  1.0000
  S   S145      1.0  0.69933  0.17097  0.02291  1.0000
  C   C662      1.0  0.70359  0.10229  0.32659  1.0000
  H   H1170     1.0  0.89560  0.47467  0.02767  1.0000
  Fe  Fe74      1.0  0.67607  0.13957  0.44173  1.0000
  H   H1171     1.0  0.81229  0.38171  0.09245  1.0000
  S   S146      1.0  0.71094  0.17871  0.45693  1.0000
  H   H1172     1.0  0.65690  0.42868  0.01398  1.0000
  C   C663      1.0  0.91714  0.41157  0.01194  1.0000
  H   H1173     1.0  0.75107  0.29002  0.08360  1.0000
  S   S147      1.0  0.67175  0.11598  0.39543  1.0000
  H   H1174     1.0  0.85038  0.47203  0.27639  1.0000
  S   S148      1.0  0.85314  0.43913  0.07996  1.0000
  H   H1175     1.0  0.65481  0.20547  0.42301  1.0000
  H   H1176     1.0  0.79228  0.28433  0.04824  1.0000
  H   H1177     1.0  0.76940  0.46156  0.35196  1.0000
  C   C664      1.0  0.84093  0.31224  0.07000  1.0000
  H   H1178     1.0  0.80711  0.45730  0.34287  1.0000
  H   H1179     1.0  0.74031  0.29763  0.99291  1.0000
  H   H1180     1.0  0.91137  0.44664  0.04904  1.0000
  H   H1181     1.0  0.76052  0.33151  0.99484  1.0000
  C   C665      1.0  0.84834  0.42332  0.04097  1.0000
  H   H1182     1.0  0.94065  0.47621  0.43471  1.0000
  H   H1183     1.0  0.75193  0.25540  0.05444  1.0000
  C   C666      1.0  0.92480  0.39128  0.00704  1.0000
  C   C667      1.0  0.79848  0.45422  0.36796  1.0000
  C   C668      1.0  0.91593  0.48193  0.03314  1.0000
  H   H1184     1.0  0.83812  0.31094  0.09745  1.0000
  C   C669      1.0  0.85037  0.41269  0.48527  1.0000
  H   H1185     1.0  0.74219  0.26251  0.01554  1.0000
  C   C670      1.0  0.70227  0.47215  0.08574  1.0000
  H   H1186     1.0  0.65551  0.45998  0.09367  1.0000
  H   H1187     1.0  0.69517  0.16748  0.36948  1.0000
  Fe  Fe75      1.0  0.85733  0.47821  0.08575  1.0000
  H   H1188     1.0  0.69528  0.45182  0.03950  1.0000
  C   C671      1.0  0.73055  0.48149  0.08826  1.0000
  C   C672      1.0  0.64846  0.44954  0.06966  1.0000
  H   H1189     1.0  0.68347  0.17231  0.30996  1.0000
  H   H1190     1.0  0.92107  0.38016  0.05933  1.0000
  C   C673      1.0  0.73059  0.19743  0.01530  1.0000
  H   H1191     1.0  0.77475  0.46385  0.39622  1.0000
  H   H1192     1.0  0.81357  0.46042  0.38724  1.0000
  C   C674      1.0  0.86109  0.43906  0.48259  1.0000
  H   H1193     1.0  0.92595  0.42092  0.03619  1.0000
  H   H1194     1.0  0.64812  0.09743  0.30292  1.0000
  H   H1195     1.0  0.65839  0.41967  0.07492  1.0000
  H   H1196     1.0  0.94566  0.40016  0.00889  1.0000
  C   C675      1.0  0.94488  0.45217  0.47078  1.0000
  C   C676      1.0  0.75055  0.22448  0.48149  1.0000
  H   H1197     1.0  0.79156  0.47931  0.30323  1.0000
  H   H1198     1.0  0.65570  0.18500  0.47450  1.0000
  H   H1199     1.0  0.70701  0.22687  0.04429  1.0000
  C   C677      1.0  0.93334  0.46802  0.45963  1.0000
  C   C678      1.0  0.89434  0.36244  0.46815  1.0000
  H   H1200     1.0  0.70896  0.19935  0.25360  1.0000
  H   H1201     1.0  0.96201  0.44922  0.00642  1.0000
  H   H1202     1.0  0.94008  0.40405  0.47116  1.0000
  H   H1203     1.0  0.85776  0.44701  0.46041  1.0000
  H   H1204     1.0  0.89626  0.39719  0.48166  1.0000
  C   C679      1.0  0.65643  0.44646  0.01074  1.0000
  C   C680      1.0  0.91431  0.44810  0.99433  1.0000
  C   C681      1.0  0.77957  0.24004  0.00081  1.0000
  H   H1205     1.0  0.73641  0.48324  0.11491  1.0000
  H   H1206     1.0  0.93904  0.43672  0.45215  1.0000
  H   H1207     1.0  0.96573  0.46472  0.47048  1.0000
  Fe  Fe76      1.0  0.64889  0.11510  0.12742  1.0000
  H   H1208     1.0  0.76955  0.34027  0.04835  1.0000
  H   H1209     1.0  0.78514  0.43364  0.37097  1.0000
  C   C682      1.0  0.91363  0.37137  0.03439  1.0000
  H   H1210     1.0  0.94264  0.46897  0.03423  1.0000
  H   H1211     1.0  0.71137  0.24647  0.08024  1.0000
  C   C683      1.0  0.79397  0.36777  0.10367  1.0000
  H   H1212     1.0  0.69217  0.45418  0.09972  1.0000
  H   H1213     1.0  0.69659  0.21755  0.35664  1.0000
  C   C684      1.0  0.68852  0.19841  0.36756  1.0000
  H   H1214     1.0  0.64789  0.48339  0.02820  1.0000
  H   H1215     1.0  0.91243  0.45605  0.45764  1.0000
  S   S149      1.0  0.81063  0.26693  0.99363  1.0000
  H   H1216     1.0  0.80206  0.35101  0.04474  1.0000
  H   H1217     1.0  0.68362  0.09371  0.33463  1.0000
  C   C685      1.0  0.78733  0.34074  0.09496  1.0000
  C   C686      1.0  0.65137  0.10269  0.24927  1.0000
  C   C687      1.0  0.77442  0.22764  0.03184  1.0000
  N   N38       1.0  0.71793  0.17096  0.30488  1.0000
  C   C688      1.0  0.71204  0.16630  0.26795  1.0000
  C   C689      1.0  0.70853  0.14604  0.32258  1.0000
  C   C690      1.0  0.70361  0.18318  0.31840  1.0000
  C   C691      1.0  0.74568  0.18883  0.31190  1.0000
  C   C692      1.0  0.76438  0.18133  0.29762  1.0000
  C   C693      1.0  0.71967  0.18995  0.24633  1.0000
  H   H1218     1.0  0.91886  0.35669  0.02993  1.0000
  C   C694      1.0  0.71075  0.12490  0.30397  1.0000
  H   H1219     1.0  0.69762  0.11778  0.28218  1.0000
  C   C695      1.0  0.79165  0.20326  0.30083  1.0000
  C   C696      1.0  0.71374  0.18259  0.20940  1.0000
  H   H1220     1.0  0.84741  0.37112  0.00802  1.0000
  H   H1221     1.0  0.69137  0.15328  0.26416  1.0000
  H   H1222     1.0  0.72101  0.15630  0.25653  1.0000
  H   H1223     1.0  0.71804  0.14924  0.34743  1.0000
  H   H1224     1.0  0.68795  0.13730  0.32782  1.0000
  C   C697      1.0  0.92209  0.46077  0.02945  1.0000
  H   H1225     1.0  0.66844  0.18654  0.35947  1.0000
  H   H1226     1.0  0.75136  0.20818  0.30311  1.0000
  H   H1227     1.0  0.74942  0.19103  0.33929  1.0000
  H   H1228     1.0  0.76072  0.17593  0.27085  1.0000
  H   H1229     1.0  0.76326  0.16546  0.31220  1.0000
  H   H1230     1.0  0.89325  0.43755  0.99315  1.0000
  H   H1231     1.0  0.74022  0.20371  0.24871  1.0000
  H   H1232     1.0  0.72320  0.19810  0.36708  1.0000
  C   C698      1.0  0.73563  0.19815  0.48675  1.0000
  H   H1233     1.0  0.70553  0.08762  0.31274  1.0000
  H   H1234     1.0  0.72994  0.13153  0.29452  1.0000
  H   H1235     1.0  0.70723  0.48449  0.03420  1.0000
  C   C699      1.0  0.69316  0.46785  0.04872  1.0000
  H   H1236     1.0  0.90223  0.36901  0.44289  1.0000
  H   H1237     1.0  0.79657  0.20925  0.32740  1.0000
  H   H1238     1.0  0.80476  0.19716  0.29142  1.0000
  H   H1239     1.0  0.79435  0.21964  0.28586  1.0000
  H   H1240     1.0  0.69315  0.16933  0.20553  1.0000
  H   H1241     1.0  0.71933  0.19973  0.19429  1.0000
  H   H1242     1.0  0.72423  0.17337  0.20027  1.0000
  H   H1243     1.0  0.74686  0.19752  0.06307  1.0000
  C   C700      1.0  0.77999  0.31051  0.00706  1.0000
  N   N39       1.0  0.66675  0.46297  0.04171  1.0000
  C   C701      1.0  0.75023  0.20668  0.03910  1.0000
  C   C702      1.0  0.74115  0.26357  0.04307  1.0000
  H   H1244     1.0  0.74676  0.23253  0.45980  1.0000
  H   H1245     1.0  0.84107  0.44878  0.01272  1.0000
  S   S150      1.0  0.64982  0.10450  0.47099  1.0000
  H   H1246     1.0  0.78933  0.23425  0.05049  1.0000
  S   S151      1.0  0.65928  0.11127  0.18167  1.0000
  H   H1247     1.0  0.77903  0.37150  0.09453  1.0000
  H   H1248     1.0  0.83066  0.34060  0.06345  1.0000
  C   C703      1.0  0.84262  0.43197  0.01179  1.0000
  H   H1249     1.0  0.79577  0.37062  0.13120  1.0000
  S   S152      1.0  0.65222  0.14898  0.10045  1.0000
  H   H1250     1.0  0.83611  0.29337  0.05985  1.0000
  H   H1251     1.0  0.89633  0.40162  0.01576  1.0000
  C   C704      1.0  0.84605  0.38802  0.00891  1.0000
  C   C705      1.0  0.78443  0.33613  0.05660  1.0000
  H   H1252     1.0  0.79314  0.29922  0.08642  1.0000
  H   H1253     1.0  0.80261  0.33807  0.10537  1.0000
  H   H1254     1.0  0.68914  0.20030  0.39522  1.0000
  H   H1255     1.0  0.85457  0.39452  0.06173  1.0000
  H   H1256     1.0  0.71612  0.10812  0.34903  1.0000
  H   H1257     1.0  0.90026  0.34920  0.47761  1.0000
  C   C706      1.0  0.85008  0.40131  0.03932  1.0000
  H   H1258     1.0  0.79865  0.32642  0.99908  1.0000
  C   C707      1.0  0.82463  0.32149  0.05328  1.0000
  H   H1259     1.0  0.82868  0.32311  0.02623  1.0000
  C   C708      1.0  0.70373  0.18608  0.35706  1.0000
  H   H1260     1.0  0.73507  0.46810  0.07556  1.0000
  C   C709      1.0  0.78432  0.46866  0.37162  1.0000
  H   H1261     1.0  0.65788  0.08943  0.24544  1.0000
  H   H1262     1.0  0.89270  0.36202  0.03421  1.0000
  H   H1263     1.0  0.77961  0.29321  0.99749  1.0000
  H   H1264     1.0  0.73815  0.29742  0.04901  1.0000
  C   C710      1.0  0.71351  0.24656  0.05270  1.0000
  H   H1265     1.0  0.70142  0.25298  0.04057  1.0000
  H   H1266     1.0  0.83872  0.40044  0.46507  1.0000
  H   H1267     1.0  0.87335  0.35205  0.46608  1.0000
  H   H1268     1.0  0.76947  0.32771  0.10781  1.0000
  H   H1269     1.0  0.71127  0.20253  0.30827  1.0000
  N   N40       1.0  0.77809  0.31012  0.04468  1.0000
  C   C711      1.0  0.79616  0.30270  0.05913  1.0000
  C   C712      1.0  0.75173  0.29114  0.05588  1.0000
  C   C713      1.0  0.64883  0.11534  0.22156  1.0000
  H   H1270     1.0  0.68321  0.23099  0.48562  1.0000
  H   H1271     1.0  0.85176  0.48559  0.21759  1.0000
  H   H1272     1.0  0.75323  0.48515  0.37777  1.0000
  H   H1273     1.0  0.93817  0.48376  0.47760  1.0000
  H   H1274     1.0  0.76801  0.48618  0.25721  1.0000
  H   H1275     1.0  0.69893  0.48616  0.09869  1.0000
  Fe  Fe77      1.0  0.84198  0.31163  0.87828  1.0000
  S   S153      1.0  0.86019  0.29713  0.91418  1.0000
  S   S154      1.0  0.83685  0.29530  0.82511  1.0000
  Fe  Fe78      1.0  0.84292  0.34846  0.93203  1.0000
  C   C714      1.0  0.65693  0.16078  0.94429  1.0000
  C   C715      1.0  0.90999  0.35558  0.69541  1.0000
  Fe  Fe79      1.0  0.88712  0.33817  0.92792  1.0000
  S   S155      1.0  0.92988  0.36142  0.91689  1.0000
  Fe  Fe80      1.0  0.83301  0.29677  0.95283  1.0000
  H   H1276     1.0  0.74122  0.22613  0.63122  1.0000
  S   S156      1.0  0.86927  0.35213  0.89101  1.0000
  S   S157      1.0  0.81337  0.30882  0.91600  1.0000
  Fe  Fe81      1.0  0.84881  0.34752  0.55581  1.0000
  S   S158      1.0  0.86353  0.32190  0.54013  1.0000
  H   H1277     1.0  0.66426  0.13199  0.92474  1.0000
  Fe  Fe82      1.0  0.84321  0.33065  0.62924  1.0000
  S   S159      1.0  0.85710  0.30402  0.61751  1.0000
  S   S160      1.0  0.83324  0.33859  0.68136  1.0000
  Fe  Fe83      1.0  0.88760  0.33620  0.58739  1.0000
  S   S161      1.0  0.92983  0.35362  0.60224  1.0000
  Fe  Fe84      1.0  0.83143  0.29234  0.57129  1.0000
  S   S162      1.0  0.80215  0.24977  0.56028  1.0000
  S   S163      1.0  0.87409  0.36305  0.60088  1.0000
  S   S164      1.0  0.81627  0.31773  0.58504  1.0000
  H   H1278     1.0  0.68126  0.44106  0.63852  1.0000
  C   C716      1.0  0.75959  0.31352  0.98782  1.0000
  H   H1279     1.0  0.83481  0.24328  0.60752  1.0000
  H   H1280     1.0  0.85338  0.25376  0.64573  1.0000
  H   H1281     1.0  0.92408  0.35036  0.68734  1.0000
  H   H1282     1.0  0.76747  0.24725  0.74498  1.0000
  H   H1283     1.0  0.71375  0.25353  0.91661  1.0000
  C   C717      1.0  0.76334  0.31391  0.95014  1.0000
  H   H1284     1.0  0.67115  0.46385  0.63561  1.0000
  H   H1285     1.0  0.64832  0.16125  0.92011  1.0000
  H   H1286     1.0  0.66468  0.13392  0.96958  1.0000
  H   H1287     1.0  0.72404  0.47909  0.74587  1.0000
  C   C718      1.0  0.93143  0.42383  0.61495  1.0000
  H   H1288     1.0  0.92285  0.40641  0.81411  1.0000
  H   H1289     1.0  0.76206  0.29602  0.94156  1.0000
  C   C719      1.0  0.83618  0.30805  0.78555  1.0000
  C   C720      1.0  0.83054  0.32736  0.78200  1.0000
  C   C721      1.0  0.82965  0.33637  0.74993  1.0000
  C   C722      1.0  0.83471  0.32650  0.72109  1.0000
  C   C723      1.0  0.84064  0.30740  0.72471  1.0000
  C   C724      1.0  0.84116  0.29811  0.75671  1.0000
  H   H1290     1.0  0.82656  0.33514  0.80388  1.0000
  H   H1291     1.0  0.82501  0.35115  0.74744  1.0000
  H   H1292     1.0  0.84509  0.30001  0.70289  1.0000
  H   H1293     1.0  0.84576  0.28332  0.75922  1.0000
  H   H1294     1.0  0.83394  0.42538  0.95904  1.0000
  H   H1295     1.0  0.70525  0.26186  0.95567  1.0000
  C   C725      1.0  0.88066  0.44447  0.53699  1.0000
  H   H1296     1.0  0.95678  0.36421  0.81400  1.0000
  C   C726      1.0  0.91115  0.41747  0.95259  1.0000
  H   H1297     1.0  0.94083  0.35816  0.74766  1.0000
  C   C727      1.0  0.75978  0.21450  0.66810  1.0000
  C   C728      1.0  0.77640  0.25994  0.68210  1.0000
  C   C729      1.0  0.90448  0.42087  0.89037  1.0000
  C   C730      1.0  0.96546  0.43688  0.95668  1.0000
  H   H1298     1.0  0.89274  0.34492  0.67954  1.0000
  C   C731      1.0  0.67037  0.45833  0.97771  1.0000
  C   C732      1.0  0.74100  0.18831  0.51514  1.0000
  C   C733      1.0  0.96688  0.37316  0.96670  1.0000
  C   C734      1.0  0.92670  0.36354  0.75528  1.0000
  N   N41       1.0  0.92205  0.35960  0.79241  1.0000
  C   C735      1.0  0.91212  0.33187  0.79911  1.0000
  C   C736      1.0  0.90238  0.36571  0.80403  1.0000
  C   C737      1.0  0.90756  0.39272  0.79716  1.0000
  C   C738      1.0  0.90318  0.34901  0.73212  1.0000
  C   C739      1.0  0.90919  0.32411  0.83647  1.0000
  C   C740      1.0  0.88411  0.39467  0.80407  1.0000
  H   H1299     1.0  0.76353  0.19858  0.67029  1.0000
  C   C741      1.0  0.90016  0.29597  0.83980  1.0000
  C   C742      1.0  0.66378  0.21314  0.53234  1.0000
  H   H1300     1.0  0.89305  0.31993  0.78758  1.0000
  H   H1301     1.0  0.88353  0.35188  0.79340  1.0000
  H   H1302     1.0  0.90000  0.36334  0.83146  1.0000
  H   H1303     1.0  0.91287  0.39833  0.77089  1.0000
  C   C743      1.0  0.83754  0.23729  0.63256  1.0000
  H   H1304     1.0  0.84279  0.22255  0.62903  1.0000
  H   H1305     1.0  0.88861  0.35399  0.73825  1.0000
  H   H1306     1.0  0.89501  0.32744  0.84886  1.0000
  H   H1307     1.0  0.92733  0.33473  0.85047  1.0000
  H   H1308     1.0  0.86878  0.38283  0.78590  1.0000
  H   H1309     1.0  0.87716  0.38834  0.82976  1.0000
  H   H1310     1.0  0.88876  0.41460  0.80145  1.0000
  H   H1311     1.0  0.79902  0.24628  0.78308  1.0000
  H   H1312     1.0  0.91398  0.29150  0.82857  1.0000
  H   H1313     1.0  0.89824  0.29094  0.86666  1.0000
  H   H1314     1.0  0.67737  0.17517  0.94449  1.0000
  H   H1315     1.0  0.91150  0.40806  0.55270  1.0000
  H   H1316     1.0  0.68163  0.20926  0.98659  1.0000
  H   H1317     1.0  0.91770  0.37609  0.69122  1.0000
  C   C744      1.0  0.68717  0.22397  0.50906  1.0000
  H   H1318     1.0  0.92461  0.32575  0.78734  1.0000
  C   C745      1.0  0.81330  0.22659  0.65286  1.0000
  H   H1319     1.0  0.77598  0.30472  0.67708  1.0000
  H   H1320     1.0  0.79836  0.20986  0.63902  1.0000
  H   H1321     1.0  0.93198  0.45147  0.92135  1.0000
  H   H1322     1.0  0.93319  0.40713  0.62125  1.0000
  H   H1323     1.0  0.91617  0.41224  0.88435  1.0000
  H   H1324     1.0  0.81715  0.22029  0.67691  1.0000
  H   H1325     1.0  0.68373  0.17957  0.53612  1.0000
  C   C746      1.0  0.65497  0.13495  0.94661  1.0000
  C   C747      1.0  0.66772  0.21254  0.97270  1.0000
  H   H1326     1.0  0.66503  0.15958  0.50133  1.0000
  H   H1327     1.0  0.77326  0.30512  0.63236  1.0000
  H   H1328     1.0  0.93527  0.38374  0.74865  1.0000
  C   C748      1.0  0.71044  0.24613  0.52562  1.0000
  H   H1329     1.0  0.79159  0.21779  0.71525  1.0000
  H   H1330     1.0  0.91111  0.41814  0.61409  1.0000
  H   H1331     1.0  0.68025  0.20923  0.92202  1.0000
  H   H1332     1.0  0.97642  0.42528  0.54210  1.0000
  H   H1333     1.0  0.77330  0.26485  0.62738  1.0000
  H   H1334     1.0  0.97791  0.38994  0.88543  1.0000
  C   C749      1.0  0.96665  0.37188  0.55217  1.0000
  H   H1335     1.0  0.90674  0.43420  0.87020  1.0000
  S   S165      1.0  0.86198  0.33688  0.96991  1.0000
  H   H1336     1.0  0.80143  0.28902  0.64737  1.0000
  C   C750      1.0  0.77071  0.23104  0.74296  1.0000
  H   H1337     1.0  0.72105  0.20278  0.96532  1.0000
  C   C751      1.0  0.87645  0.45508  0.50834  1.0000
  C   C752      1.0  0.67915  0.22340  0.93802  1.0000
  H   H1338     1.0  0.71387  0.17952  0.63833  1.0000
  C   C753      1.0  0.94655  0.37491  0.81194  1.0000
  H   H1339     1.0  0.76713  0.22588  0.79670  1.0000
  C   C754      1.0  0.96109  0.37246  0.58593  1.0000
  H   H1340     1.0  0.67027  0.21260  0.55821  1.0000
  S   S166      1.0  0.83506  0.38055  0.94099  1.0000
  H   H1341     1.0  0.82171  0.26419  0.66820  1.0000
  C   C755      1.0  0.75988  0.23094  0.97708  1.0000
  H   H1342     1.0  0.80218  0.25174  0.63259  1.0000
  C   C756      1.0  0.66404  0.14011  0.54602  1.0000
  H   H1343     1.0  0.74776  0.28054  0.65577  1.0000
  H   H1344     1.0  0.66756  0.22980  0.92453  1.0000
  H   H1345     1.0  0.88423  0.40587  0.89123  1.0000
  H   H1346     1.0  0.75222  0.21354  0.73864  1.0000
  H   H1347     1.0  0.76539  0.19619  0.55836  1.0000
  H   H1348     1.0  0.74341  0.20933  0.68460  1.0000
  H   H1349     1.0  0.76334  0.23996  0.95301  1.0000
  C   C757      1.0  0.75020  0.21431  0.63217  1.0000
  H   H1350     1.0  0.96152  0.43977  0.93051  1.0000
  N   N42       1.0  0.78250  0.23892  0.67992  1.0000
  C   C758      1.0  0.91259  0.43501  0.92380  1.0000
  C   C759      1.0  0.78953  0.23479  0.71467  1.0000
  C   C760      1.0  0.66353  0.43817  0.95056  1.0000
  H   H1351     1.0  0.71850  0.24138  0.95507  1.0000
  H   H1352     1.0  0.89242  0.45676  0.55708  1.0000
  C   C761      1.0  0.76120  0.20434  0.53714  1.0000
  H   H1353     1.0  0.71645  0.23961  0.54783  1.0000
  H   H1354     1.0  0.72312  0.18826  0.59558  1.0000
  H   H1355     1.0  0.74842  0.31590  0.93705  1.0000
  H   H1356     1.0  0.75646  0.25223  0.69007  1.0000
  C   C762      1.0  0.83851  0.41862  0.98141  1.0000
  H   H1357     1.0  0.89069  0.40407  0.95716  1.0000
  H   H1358     1.0  0.89492  0.32828  0.73430  1.0000
  H   H1359     1.0  0.78834  0.27405  0.70176  1.0000
  H   H1360     1.0  0.91834  0.40526  0.94310  1.0000
  C   C763      1.0  0.78079  0.27621  0.65059  1.0000
  C   C764      1.0  0.85471  0.40208  0.51376  1.0000
  H   H1361     1.0  0.95156  0.36000  0.53488  1.0000
  H   H1362     1.0  0.78201  0.33025  0.94332  1.0000
  H   H1363     1.0  0.76566  0.22136  0.61381  1.0000
  H   H1364     1.0  0.88140  0.28429  0.82743  1.0000
  C   C765      1.0  0.80518  0.24661  0.65799  1.0000
  S   S167      1.0  0.84157  0.36888  0.51515  1.0000
  C   C766      1.0  0.66539  0.16290  0.52861  1.0000
  H   H1365     1.0  0.83305  0.47275  0.94277  1.0000
  C   C767      1.0  0.76865  0.29259  0.65430  1.0000
  H   H1366     1.0  0.87281  0.41007  0.56211  1.0000
  H   H1367     1.0  0.94256  0.37790  0.83821  1.0000
  H   H1368     1.0  0.66764  0.22835  0.98647  1.0000
  H   H1369     1.0  0.95849  0.41650  0.95940  1.0000
  C   C768      1.0  0.68754  0.46104  0.63252  1.0000
  H   H1370     1.0  0.67971  0.13747  0.53719  1.0000
  H   H1371     1.0  0.72997  0.16821  0.51975  1.0000
  H   H1372     1.0  0.69384  0.46443  0.60614  1.0000
  C   C769      1.0  0.70577  0.24642  0.94170  1.0000
  C   C770      1.0  0.96145  0.37500  0.93315  1.0000
  H   H1373     1.0  0.66594  0.14312  0.57351  1.0000
  C   C771      1.0  0.77627  0.23065  0.53173  1.0000
  H   H1374     1.0  0.89957  0.44228  0.92881  1.0000
  C   C772      1.0  0.86970  0.41805  0.53983  1.0000
  H   H1375     1.0  0.70647  0.26124  0.53321  1.0000
  C   C773      1.0  0.84024  0.39662  0.97980  1.0000
  H   H1376     1.0  0.73836  0.17508  0.61998  1.0000
  H   H1377     1.0  0.72634  0.25426  0.50770  1.0000
  C   C774      1.0  0.73014  0.18760  0.62102  1.0000
  H   H1378     1.0  0.78400  0.21235  0.77700  1.0000
  C   C775      1.0  0.93204  0.41457  0.55310  1.0000
  H   H1379     1.0  0.80832  0.25107  0.72224  1.0000
  H   H1380     1.0  0.67030  0.42510  0.95768  1.0000
  H   H1381     1.0  0.67263  0.44741  0.92677  1.0000
  H   H1382     1.0  0.65827  0.22790  0.53333  1.0000
  H   H1383     1.0  0.66461  0.47171  0.96840  1.0000
  H   H1384     1.0  0.69235  0.20977  0.50175  1.0000
  C   C776      1.0  0.78090  0.22872  0.77691  1.0000
  C   C777      1.0  0.90301  0.38491  0.49212  1.0000
  H   H1385     1.0  0.96435  0.44206  0.58465  1.0000
  C   C778      1.0  0.73576  0.20980  0.98424  1.0000
  C   C779      1.0  0.77050  0.24057  0.50378  1.0000
  H   H1386     1.0  0.95868  0.46620  0.97328  1.0000
  H   H1387     1.0  0.95798  0.41258  0.79057  1.0000
  H   H1388     1.0  0.94083  0.43831  0.63502  1.0000
  H   H1389     1.0  0.92054  0.46375  0.97609  1.0000
  H   H1390     1.0  0.70200  0.47388  0.68186  1.0000
  H   H1391     1.0  0.69120  0.46873  0.98123  1.0000
  C   C780      1.0  0.96638  0.40096  0.79754  1.0000
  H   H1392     1.0  0.72422  0.47395  0.65327  1.0000
  H   H1393     1.0  0.97736  0.38787  0.63436  1.0000
  H   H1394     1.0  0.91559  0.43400  0.50776  1.0000
  C   C781      1.0  0.70916  0.47868  0.65599  1.0000
  H   H1395     1.0  0.94108  0.45108  0.57636  1.0000
  H   H1396     1.0  0.91806  0.38121  0.98276  1.0000
  C   C782      1.0  0.95279  0.44665  0.98147  1.0000
  H   H1397     1.0  0.95157  0.36253  0.98376  1.0000
  H   H1398     1.0  0.89356  0.37722  0.51625  1.0000
  C   C783      1.0  0.94382  0.43485  0.58147  1.0000
  H   H1399     1.0  0.93350  0.39794  0.56114  1.0000
  H   H1400     1.0  0.78173  0.26063  0.49893  1.0000
  C   C784      1.0  0.93216  0.39957  0.49663  1.0000
  N   N43       1.0  0.94320  0.42291  0.51873  1.0000
  C   C785      1.0  0.97162  0.43465  0.52184  1.0000
  H   H1401     1.0  0.94454  0.45884  0.52308  1.0000
  H   H1402     1.0  0.93756  0.38603  0.50672  1.0000
  N   N44       1.0  0.92434  0.43089  0.98470  1.0000
  C   C786      1.0  0.93633  0.44191  0.50640  1.0000
  H   H1403     1.0  0.97495  0.39804  0.77479  1.0000
  H   H1404     1.0  0.82856  0.48338  0.98282  1.0000
  H   H1405     1.0  0.81230  0.48551  0.94630  1.0000
  H   H1406     1.0  0.75935  0.55725  0.03651  1.0000
  S   S168      1.0  0.86573  0.50384  0.04232  1.0000
  Fe  Fe85      1.0  0.86272  0.51920  0.13577  1.0000
  S   S169      1.0  0.87122  0.54731  0.09391  1.0000
  S   S170      1.0  0.86587  0.53529  0.18898  1.0000
  Fe  Fe86      1.0  0.83872  0.51454  0.06561  1.0000
  S   S171      1.0  0.80618  0.51045  0.03055  1.0000
  Fe  Fe87      1.0  0.89716  0.53402  0.07438  1.0000
  S   S172      1.0  0.93734  0.55295  0.05249  1.0000
  N   N45       1.0  0.78986  0.51238  0.35797  1.0000
  S   S173      1.0  0.88983  0.50757  0.11688  1.0000
  Fe  Fe88      1.0  0.90864  0.56164  0.43545  1.0000
  S   S174      1.0  0.90687  0.52557  0.42003  1.0000
  S   S175      1.0  0.94665  0.59815  0.42681  1.0000
  Fe  Fe89      1.0  0.85035  0.53417  0.45119  1.0000
  C   C787      1.0  0.69258  0.89972  0.08324  1.0000
  C   C788      1.0  0.96852  0.53344  0.14799  1.0000
  Fe  Fe90      1.0  0.88254  0.50914  0.46532  1.0000
  Fe  Fe91      1.0  0.87126  0.51676  0.39205  1.0000
  C   C789      1.0  0.97688  0.60728  0.44474  1.0000
  H   H1407     1.0  0.96986  0.54754  0.21468  1.0000
  S   S176      1.0  0.87376  0.55356  0.40532  1.0000
  H   H1408     1.0  0.75628  0.50577  0.46683  1.0000
  H   H1409     1.0  0.85183  0.53107  0.99462  1.0000
  C   C790      1.0  0.78854  0.49936  0.26155  1.0000
  C   C791      1.0  0.97256  0.60067  0.07875  1.0000
  H   H1410     1.0  0.82666  0.55031  0.31354  1.0000
  C   C792      1.0  0.86562  0.52458  0.23054  1.0000
  C   C793      1.0  0.87313  0.54207  0.25731  1.0000
  C   C794      1.0  0.87271  0.53450  0.29072  1.0000
  C   C795      1.0  0.86430  0.50913  0.29798  1.0000
  H   H1411     1.0  0.76062  0.49005  0.32100  1.0000
  H   H1412     1.0  0.85238  0.57606  0.05468  1.0000
  H   H1413     1.0  0.87931  0.56165  0.25215  1.0000
  H   H1414     1.0  0.87879  0.54826  0.31085  1.0000
  S   S177      1.0  0.81074  0.52953  0.46267  1.0000
  C   C796      1.0  0.96158  0.55979  0.21053  1.0000
  N   N46       1.0  0.96884  0.57196  0.17666  1.0000
  C   C797      1.0  0.76773  0.50554  0.38070  1.0000
  C   C798      1.0  0.78260  0.51828  0.01821  1.0000
  C   C799      1.0  0.92963  0.57758  0.17263  1.0000
  H   H1415     1.0  0.77960  0.52233  0.31104  1.0000
  H   H1416     1.0  0.92793  0.60547  0.14077  1.0000
  C   C800      1.0  0.95869  0.58949  0.17051  1.0000
  C   C801      1.0  0.66985  0.90189  0.07220  1.0000
  C   C802      1.0  0.85768  0.49933  0.23774  1.0000
  H   H1417     1.0  0.96084  0.60217  0.35372  1.0000
  H   H1418     1.0  0.76515  0.53981  0.38697  1.0000
  H   H1419     1.0  0.92278  0.56966  0.19779  1.0000
  H   H1420     1.0  0.81460  0.54467  0.38914  1.0000
  H   H1421     1.0  0.92761  0.49778  0.01606  1.0000
  H   H1422     1.0  0.79193  0.54713  0.05555  1.0000
  H   H1423     1.0  0.71910  0.51938  0.38976  1.0000
  C   C803      1.0  0.92201  0.59741  0.16611  1.0000
  H   H1424     1.0  0.79348  0.51883  0.25449  1.0000
  H   H1425     1.0  0.91967  0.56237  0.15362  1.0000
  H   H1426     1.0  0.83539  0.59178  0.04352  1.0000
  H   H1427     1.0  0.79909  0.55153  0.35664  1.0000
  C   C804      1.0  0.80830  0.54036  0.36246  1.0000
  C   C805      1.0  0.74495  0.52993  0.99615  1.0000
  C   C806      1.0  0.76116  0.54270  0.02357  1.0000
  C   C807      1.0  0.95704  0.55095  0.15074  1.0000
  H   H1428     1.0  0.81053  0.50443  0.39523  1.0000
  C   C808      1.0  0.96524  0.61941  0.33942  1.0000
  C   C809      1.0  0.84844  0.57945  0.00118  1.0000
  H   H1429     1.0  0.73049  0.50583  0.42007  1.0000
  H   H1430     1.0  0.97204  0.62680  0.48622  1.0000
  C   C810      1.0  0.67408  0.52988  0.05468  1.0000
  H   H1431     1.0  0.83102  0.56063  0.00005  1.0000
  H   H1432     1.0  0.90113  0.58844  0.16754  1.0000
  H   H1433     1.0  0.96417  0.50165  0.11836  1.0000
  H   H1434     1.0  0.65983  0.90257  0.09482  1.0000
  H   H1435     1.0  0.68630  0.88224  0.09795  1.0000
  C   C811      1.0  0.77978  0.53701  0.03447  1.0000
  C   C812      1.0  0.83207  0.55191  0.34031  1.0000
  H   H1436     1.0  0.87812  0.57112  0.01121  1.0000
  H   H1437     1.0  0.95809  0.55895  0.12557  1.0000
  S   S178      1.0  0.86210  0.49799  0.33973  1.0000
  H   H1438     1.0  0.66152  0.88337  0.02382  1.0000
  H   H1439     1.0  0.95385  0.62722  0.34996  1.0000
  C   C813      1.0  0.78048  0.50616  0.32215  1.0000
  C   C814      1.0  0.95513  0.51336  0.12064  1.0000
  H   H1440     1.0  0.95663  0.60308  0.08405  1.0000
  C   C815      1.0  0.75382  0.52058  0.37569  1.0000
  H   H1441     1.0  0.65368  0.52344  0.05147  1.0000
  H   H1442     1.0  0.70539  0.91626  0.09923  1.0000
  H   H1443     1.0  0.75063  0.52245  0.34882  1.0000
  S   S179      1.0  0.84658  0.49668  0.43639  1.0000
  C   C816      1.0  0.72815  0.50775  0.39290  1.0000
  H   H1444     1.0  0.84316  0.54245  0.34443  1.0000
  H   H1445     1.0  0.81869  0.50185  0.35423  1.0000
  H   H1446     1.0  0.89814  0.54628  0.99075  1.0000
  S   S180      1.0  0.82914  0.48731  0.10843  1.0000
  H   H1447     1.0  0.93491  0.50070  0.12680  1.0000
  H   H1448     1.0  0.85435  0.58363  0.37471  1.0000
  H   H1449     1.0  0.83966  0.59076  0.34058  1.0000
  C   C817      1.0  0.84924  0.58018  0.34776  1.0000
  C   C818      1.0  0.79563  0.49877  0.29804  1.0000
  H   H1450     1.0  0.86691  0.58758  0.33320  1.0000
  C   C819      1.0  0.96835  0.57805  0.06403  1.0000
  H   H1451     1.0  0.93609  0.55384  0.27094  1.0000
  H   H1452     1.0  0.74164  0.50039  0.07666  1.0000
  H   H1453     1.0  0.86935  0.60828  0.03952  1.0000
  C   C820      1.0  0.80223  0.49783  0.36975  1.0000
  H   H1454     1.0  0.69838  0.51537  0.06631  1.0000
  H   H1455     1.0  0.81632  0.51136  0.30055  1.0000
  C   C821      1.0  0.95702  0.56286  0.27292  1.0000
  H   H1456     1.0  0.68417  0.53910  0.03135  1.0000
  C   C822      1.0  0.67773  0.50762  0.06320  1.0000
  H   H1457     1.0  0.79931  0.49348  0.24523  1.0000
  H   H1458     1.0  0.95959  0.61412  0.31287  1.0000
  H   H1459     1.0  0.96451  0.59800  0.14536  1.0000
  H   H1460     1.0  0.77396  0.50805  0.40740  1.0000
  H   H1461     1.0  0.68193  0.54418  0.07519  1.0000
  H   H1462     1.0  0.93656  0.53826  0.15557  1.0000
  H   H1463     1.0  0.95648  0.52242  0.09617  1.0000
  H   H1464     1.0  0.94073  0.54666  0.21160  1.0000
  H   H1465     1.0  0.93067  0.61285  0.18512  1.0000
  C   C823      1.0  0.85175  0.58958  0.03692  1.0000
  H   H1466     1.0  0.67919  0.49710  0.01307  1.0000
  H   H1467     1.0  0.96710  0.60582  0.18809  1.0000
  H   H1468     1.0  0.96656  0.52346  0.17176  1.0000
  H   H1469     1.0  0.91772  0.58004  0.99300  1.0000
  H   H1470     1.0  0.96193  0.54794  0.27711  1.0000
  H   H1471     1.0  0.71545  0.48872  0.38180  1.0000
  H   H1472     1.0  0.66814  0.49987  0.08721  1.0000
  C   C824      1.0  0.66723  0.48742  0.03493  1.0000
  C   C825      1.0  0.85688  0.49169  0.27120  1.0000
  H   H1473     1.0  0.67726  0.92021  0.05907  1.0000
  H   H1474     1.0  0.70331  0.89937  0.06119  1.0000
  C   C826      1.0  0.76639  0.50546  0.99079  1.0000
  S   S181      1.0  0.88570  0.54584  0.48243  1.0000
  H   H1475     1.0  0.96397  0.59223  0.23866  1.0000
  C   C827      1.0  0.65195  0.87975  0.04845  1.0000
  H   H1476     1.0  0.91990  0.48939  0.05917  1.0000
  C   C828      1.0  0.96956  0.57773  0.24128  1.0000
  H   H1477     1.0  0.96352  0.57575  0.29497  1.0000
  C   C829      1.0  0.79057  0.53557  0.48940  1.0000
  H   H1478     1.0  0.65108  0.86231  0.05772  1.0000
  C   C830      1.0  0.76403  0.52089  0.48521  1.0000
  Fe  Fe92      1.0  0.65667  0.50742  0.62221  1.0000
  S   S182      1.0  0.68493  0.55621  0.91369  1.0000
  S   S183      1.0  0.68365  0.54037  0.82052  1.0000
  H   H1479     1.0  0.66137  0.57183  0.82166  1.0000
  H   H1480     1.0  0.70550  0.62557  0.84297  1.0000
  Fe  Fe93      1.0  0.68841  0.52782  0.94638  1.0000
  H   H1481     1.0  0.86916  0.59089  0.92757  1.0000
  H   H1482     1.0  0.84566  0.59245  0.98483  1.0000
  C   C831      1.0  0.74732  0.52529  0.50475  1.0000
  Fe  Fe94      1.0  0.69379  0.53565  0.56496  1.0000
  C   C832      1.0  0.65633  0.58670  0.82564  1.0000
  S   S184      1.0  0.73670  0.55207  0.55384  1.0000
  H   H1483     1.0  0.82520  0.56825  0.87992  1.0000
  C   C833      1.0  0.89338  0.56651  0.94813  1.0000
  H   H1484     1.0  0.89166  0.55417  0.92673  1.0000
  S   S185      1.0  0.68028  0.54856  0.61015  1.0000
  C   C834      1.0  0.75677  0.54474  0.52888  1.0000
  H   H1485     1.0  0.83857  0.55822  0.84753  1.0000
  Fe  Fe95      1.0  0.66981  0.52568  0.87351  1.0000
  C   C835      1.0  0.74382  0.55062  0.67177  1.0000
  H   H1486     1.0  0.79109  0.57443  0.55167  1.0000
  C   C836      1.0  0.67377  0.52595  0.78017  1.0000
  C   C837      1.0  0.79999  0.55470  0.51399  1.0000
  H   H1487     1.0  0.94364  0.57903  0.94546  1.0000
  C   C838      1.0  0.90957  0.56346  0.97567  1.0000
  C   C839      1.0  0.67649  0.53056  0.71910  1.0000
  C   C840      1.0  0.68382  0.54104  0.75160  1.0000
  H   H1488     1.0  0.90488  0.58616  0.93856  1.0000
  H   H1489     1.0  0.75434  0.60068  0.66746  1.0000
  H   H1490     1.0  0.68415  0.54244  0.69746  1.0000
  H   H1491     1.0  0.69724  0.56104  0.75464  1.0000
  S   S186      1.0  0.65045  0.49001  0.67444  1.0000
  Fe  Fe96      1.0  0.64700  0.54296  0.57848  1.0000
  C   C841      1.0  0.78330  0.55929  0.53328  1.0000
  C   C842      1.0  0.71863  0.50710  0.64907  1.0000
  H   H1492     1.0  0.82986  0.52979  0.96491  1.0000
  H   H1493     1.0  0.88734  0.59781  0.98533  1.0000
  C   C843      1.0  0.73049  0.51500  0.72637  1.0000
  H   H1494     1.0  0.70387  0.61739  0.88645  1.0000
  H   H1495     1.0  0.70122  0.59516  0.85474  1.0000
  C   C844      1.0  0.76519  0.53235  0.64121  1.0000
  H   H1496     1.0  0.76215  0.53938  0.61703  1.0000
  C   C845      1.0  0.85665  0.57019  0.93175  1.0000
  H   H1497     1.0  0.72760  0.55232  0.62367  1.0000
  H   H1498     1.0  0.85773  0.58865  0.86749  1.0000
  H   H1499     1.0  0.76118  0.57392  0.62731  1.0000
  H   H1500     1.0  0.65297  0.60788  0.92869  1.0000
  H   H1501     1.0  0.70323  0.51035  0.65754  1.0000
  H   H1502     1.0  0.78331  0.54793  0.65188  1.0000
  H   H1503     1.0  0.86831  0.55672  0.88763  1.0000
  S   S187      1.0  0.72172  0.53821  0.98377  1.0000
  C   C846      1.0  0.65940  0.50465  0.71473  1.0000
  H   H1504     1.0  0.85370  0.51641  0.92134  1.0000
  C   C847      1.0  0.85133  0.55636  0.89760  1.0000
  C   C848      1.0  0.74299  0.56526  0.64089  1.0000
  H   H1505     1.0  0.72046  0.57952  0.66426  1.0000
  H   H1506     1.0  0.73568  0.50114  0.95869  1.0000
  H   H1507     1.0  0.73804  0.59684  0.62826  1.0000
  H   H1508     1.0  0.94352  0.56091  0.98070  1.0000
  C   C849      1.0  0.73868  0.58688  0.65102  1.0000
  H   H1509     1.0  0.83574  0.53647  0.90002  1.0000
  C   C850      1.0  0.66765  0.59853  0.86045  1.0000
  H   H1510     1.0  0.83803  0.56748  0.93942  1.0000
  H   H1511     1.0  0.76827  0.49098  0.97779  1.0000
  C   C851      1.0  0.85257  0.51369  0.94866  1.0000
  S   S188      1.0  0.66264  0.53423  0.53229  1.0000
  H   H1512     1.0  0.71919  0.50978  0.62150  1.0000
  C   C852      1.0  0.69632  0.60985  0.86104  1.0000
  H   H1513     1.0  0.71069  0.50657  0.71725  1.0000
  N   N47       1.0  0.74374  0.52627  0.66480  1.0000
  C   C853      1.0  0.64952  0.48956  0.74328  1.0000
  C   C854      1.0  0.74774  0.51115  0.97989  1.0000
  C   C855      1.0  0.79263  0.51961  0.60926  1.0000
  H   H1514     1.0  0.76093  0.56398  0.68671  1.0000
  H   H1515     1.0  0.71839  0.49812  0.77510  1.0000
  C   C856      1.0  0.65644  0.50013  0.77577  1.0000
  H   H1516     1.0  0.72724  0.54681  0.68720  1.0000
  S   S189      1.0  0.64894  0.51333  0.96654  1.0000
  H   H1517     1.0  0.87000  0.51391  0.95689  1.0000
  S   S190      1.0  0.67119  0.49472  0.57890  1.0000
  C   C857      1.0  0.84270  0.56871  0.87165  1.0000
  H   H1518     1.0  0.66691  0.60148  0.80657  1.0000
  H   H1519     1.0  0.76830  0.53124  0.70678  1.0000
  H   H1520     1.0  0.92447  0.54475  0.94450  1.0000
  C   C858      1.0  0.73098  0.49875  0.75481  1.0000
  C   C859      1.0  0.93160  0.56195  0.96050  1.0000
  C   C860      1.0  0.84983  0.53432  0.96776  1.0000
  C   C861      1.0  0.74873  0.51765  0.69777  1.0000
  H   H1521     1.0  0.64939  0.55708  0.77125  1.0000
  H   H1522     1.0  0.73621  0.53398  0.73703  1.0000
  H   H1523     1.0  0.80992  0.53366  0.62308  1.0000
  H   H1524     1.0  0.72710  0.51375  0.50086  1.0000
  N   N48       1.0  0.86778  0.56167  0.95897  1.0000
  H   H1525     1.0  0.66395  0.61395  0.86707  1.0000
  S   S191      1.0  0.67553  0.49845  0.90518  1.0000
  H   H1526     1.0  0.79059  0.52837  0.58609  1.0000
  C   C862      1.0  0.76921  0.51025  0.63105  1.0000
  H   H1527     1.0  0.65973  0.58402  0.88022  1.0000
  H   H1528     1.0  0.82021  0.56628  0.51779  1.0000
  H   H1529     1.0  0.79496  0.50340  0.60187  1.0000
  H   H1530     1.0  0.77184  0.50095  0.65310  1.0000
  H   H1531     1.0  0.75045  0.50688  0.76514  1.0000
  H   H1532     1.0  0.64857  0.48824  0.79739  1.0000
  C   C863      1.0  0.83024  0.48726  0.95559  1.0000
  S   S192      1.0  0.89193  0.48841  0.50494  1.0000
  H   H1533     1.0  0.74836  0.49946  0.69509  1.0000
  H   H1534     1.0  0.75289  0.49615  0.61579  1.0000
  H   H1535     1.0  0.64614  0.64430  0.92080  1.0000
  H   H1536     1.0  0.97711  0.54633  0.51444  1.0000
  C   C864      1.0  0.87180  0.57799  0.98955  1.0000
